MODEL 1
REMARK VINA RESULT:      -8.4      0.000      0.000
REMARK  Name = 
REMARK  12 active torsions:
REMARK  status: ('A' for Active; 'I' for Inactive)
REMARK    1  A    between atoms: C_1  and  C_2
REMARK    2  A    between atoms: C_5  and  C_6
REMARK    3  A    between atoms: C_6  and  N_7
REMARK    4  A    between atoms: C_8  and  C_10
REMARK    5  A    between atoms: C_14  and  C_15
REMARK    6  A    between atoms: C_15  and  C_16
REMARK    7  A    between atoms: C_15  and  O_17
REMARK    8  A    between atoms: O_17  and  C_18
REMARK    9  A    between atoms: C_23  and  N_24
REMARK   10  A    between atoms: N_24  and  C_25
REMARK   11  A    between atoms: N_28  and  C_29
REMARK   12  A    between atoms: C_29  and  C_30
REMARK                            x       y       z     vdW  Elec       q    Type
REMARK                         _______ _______ _______ _____ _____    ______ ____
ROOT
ATOM      1  C   UNL     1       2.237   7.583  18.359  0.00  0.00    +0.000 C 
ATOM      2  C   UNL     1       3.373   7.932  17.382  0.00  0.00    +0.000 C 
ENDROOT
BRANCH   1   7
ATOM      3  C   UNL     1      -0.586  10.325  18.276  0.00  0.00    +0.000 A 
ATOM      4  C   UNL     1      -0.206  11.087  19.382  0.00  0.00    +0.000 A 
ATOM      5  C   UNL     1       0.955  10.756  20.102  0.00  0.00    +0.000 A 
ATOM      6  C   UNL     1       1.747   9.655  19.745  0.00  0.00    +0.000 A 
ATOM      7  C   UNL     1       1.394   8.848  18.656  0.00  0.00    +0.000 A 
ATOM      8  C   UNL     1       0.229   9.216  17.926  0.00  0.00    +0.000 A 
BRANCH   3  10
ATOM      9  N   UNL     1      -2.706  11.639  17.834  0.00  0.00    +0.000 N 
ATOM     10  C   UNL     1      -1.876  10.561  17.503  0.00  0.00    +0.000 C 
ATOM     11  O   UNL     1      -2.168   9.768  16.616  0.00  0.00    +0.000 OA
ATOM     12  H   UNL     1      -2.496  12.216  18.632  0.00  0.00    +0.000 HD
BRANCH   9  13
ATOM     13  C   UNL     1      -4.081  11.689  17.325  0.00  0.00    +0.000 C 
BRANCH  13  18
ATOM     14  C   UNL     1      -7.916  11.302  21.727  0.00  0.00    +0.000 C 
ATOM     15  C   UNL     1      -7.047  11.560  20.525  0.00  0.00    +0.000 A 
ATOM     16  C   UNL     1      -7.251  10.859  19.328  0.00  0.00    +0.000 A 
ATOM     17  C   UNL     1      -6.346  10.973  18.253  0.00  0.00    +0.000 A 
ATOM     18  C   UNL     1      -5.210  11.787  18.345  0.00  0.00    +0.000 A 
ATOM     19  C   UNL     1      -5.043  12.527  19.535  0.00  0.00    +0.000 A 
ATOM     20  C   UNL     1      -5.946  12.414  20.608  0.00  0.00    +0.000 A 
ENDBRANCH  13  18
ENDBRANCH   9  13
ENDBRANCH   3  10
ENDBRANCH   1   7
BRANCH   1  21
ATOM     21  O   UNL     1       2.684   7.015  19.615  0.00  0.00    +0.000 OA
BRANCH  21  22
ATOM     22  C   UNL     1       2.483   5.679  19.905  0.00  0.00    +0.000 A 
ATOM     23  C   UNL     1       1.293   5.135  20.399  0.00  0.00    +0.000 A 
ATOM     24  C   UNL     1       1.145   3.755  20.534  0.00  0.00    +0.000 A 
ATOM     25  C   UNL     1       2.210   2.948  20.198  0.00  0.00    +0.000 A 
ATOM     26  N   UNL     1       3.404   3.430  19.802  0.00  0.00    +0.000 NA
ATOM     27  C   UNL     1       3.558   4.775  19.679  0.00  0.00    +0.000 A 
BRANCH  27  28
ATOM     28  N   UNL     1       4.864   5.293  19.437  0.00  0.00    +0.000 N 
ATOM     29  H   UNL     1       5.285   5.564  20.321  0.00  0.00    +0.000 HD
BRANCH  28  30
ATOM     30  C   UNL     1       5.646   5.104  18.340  0.00  0.00    +0.000 A 
ATOM     31  C   UNL     1       6.940   5.580  18.025  0.00  0.00    +0.000 A 
ATOM     32  N   UNL     1       7.339   5.226  16.792  0.00  0.00    +0.000 NA
ATOM     33  N   UNL     1       6.281   4.547  16.298  0.00  0.00    +0.000 N 
ATOM     34  C   UNL     1       5.278   4.387  17.223  0.00  0.00    +0.000 A 
BRANCH  33  35
ATOM     35  C   UNL     1       6.290   4.088  14.906  0.00  0.00    +0.000 C 
BRANCH  35  36
ATOM     36  C   UNL     1       7.259   4.926  14.089  0.00  0.00    +0.000 C 
ATOM     37  N   UNL     1       8.063   5.621  13.411  0.00  0.00    +0.000 NA
ENDBRANCH  35  36
ENDBRANCH  33  35
ENDBRANCH  28  30
ENDBRANCH  27  28
ENDBRANCH  21  22
ENDBRANCH   1  21
TORSDOF 10
ENDMDL
MODEL 2
REMARK VINA RESULT:      -8.3      2.500      3.227
REMARK  Name = 
REMARK  12 active torsions:
REMARK  status: ('A' for Active; 'I' for Inactive)
REMARK    1  A    between atoms: C_1  and  C_2
REMARK    2  A    between atoms: C_5  and  C_6
REMARK    3  A    between atoms: C_6  and  N_7
REMARK    4  A    between atoms: C_8  and  C_10
REMARK    5  A    between atoms: C_14  and  C_15
REMARK    6  A    between atoms: C_15  and  C_16
REMARK    7  A    between atoms: C_15  and  O_17
REMARK    8  A    between atoms: O_17  and  C_18
REMARK    9  A    between atoms: C_23  and  N_24
REMARK   10  A    between atoms: N_24  and  C_25
REMARK   11  A    between atoms: N_28  and  C_29
REMARK   12  A    between atoms: C_29  and  C_30
REMARK                            x       y       z     vdW  Elec       q    Type
REMARK                         _______ _______ _______ _____ _____    ______ ____
ROOT
ATOM      1  C   UNL     1       2.868   6.456  19.692  0.00  0.00    +0.000 C 
ATOM      2  C   UNL     1       2.144   5.660  20.791  0.00  0.00    +0.000 C 
ENDROOT
BRANCH   1   7
ATOM      3  C   UNL     1       0.843   9.805  20.119  0.00  0.00    +0.000 A 
ATOM      4  C   UNL     1       0.856  10.256  18.799  0.00  0.00    +0.000 A 
ATOM      5  C   UNL     1       1.455   9.480  17.792  0.00  0.00    +0.000 A 
ATOM      6  C   UNL     1       2.064   8.251  18.084  0.00  0.00    +0.000 A 
ATOM      7  C   UNL     1       2.096   7.766  19.397  0.00  0.00    +0.000 A 
ATOM      8  C   UNL     1       1.461   8.557  20.396  0.00  0.00    +0.000 A 
BRANCH   3  10
ATOM      9  N   UNL     1      -0.448  11.785  21.029  0.00  0.00    +0.000 N 
ATOM     10  C   UNL     1       0.300  10.628  21.279  0.00  0.00    +0.000 C 
ATOM     11  O   UNL     1       0.562  10.260  22.418  0.00  0.00    +0.000 OA
ATOM     12  H   UNL     1      -0.563  12.122  20.087  0.00  0.00    +0.000 HD
BRANCH   9  13
ATOM     13  C   UNL     1      -0.697  12.745  22.110  0.00  0.00    +0.000 C 
BRANCH  13  18
ATOM     14  C   UNL     1      -6.274  12.904  23.874  0.00  0.00    +0.000 C 
ATOM     15  C   UNL     1      -4.866  13.063  23.364  0.00  0.00    +0.000 A 
ATOM     16  C   UNL     1      -4.537  12.720  22.045  0.00  0.00    +0.000 A 
ATOM     17  C   UNL     1      -3.198  12.710  21.607  0.00  0.00    +0.000 A 
ATOM     18  C   UNL     1      -2.148  13.038  22.475  0.00  0.00    +0.000 A 
ATOM     19  C   UNL     1      -2.495  13.432  23.785  0.00  0.00    +0.000 A 
ATOM     20  C   UNL     1      -3.833  13.443  24.223  0.00  0.00    +0.000 A 
ENDBRANCH  13  18
ENDBRANCH   9  13
ENDBRANCH   3  10
ENDBRANCH   1   7
BRANCH   1  21
ATOM     21  O   UNL     1       3.048   5.732  18.450  0.00  0.00    +0.000 OA
BRANCH  21  22
ATOM     22  C   UNL     1       2.783   4.377  18.369  0.00  0.00    +0.000 A 
ATOM     23  C   UNL     1       1.512   3.802  18.463  0.00  0.00    +0.000 A 
ATOM     24  C   UNL     1       1.332   2.438  18.235  0.00  0.00    +0.000 A 
ATOM     25  C   UNL     1       2.439   1.672  17.946  0.00  0.00    +0.000 A 
ATOM     26  N   UNL     1       3.693   2.165  17.931  0.00  0.00    +0.000 NA
ATOM     27  C   UNL     1       3.877   3.492  18.164  0.00  0.00    +0.000 A 
BRANCH  27  28
ATOM     28  N   UNL     1       5.207   3.978  18.327  0.00  0.00    +0.000 N 
ATOM     29  H   UNL     1       5.610   3.574  19.168  0.00  0.00    +0.000 HD
BRANCH  28  30
ATOM     30  C   UNL     1       6.015   4.529  17.382  0.00  0.00    +0.000 A 
ATOM     31  C   UNL     1       6.922   5.613  17.448  0.00  0.00    +0.000 A 
ATOM     32  N   UNL     1       7.482   5.896  16.260  0.00  0.00    +0.000 NA
ATOM     33  N   UNL     1       6.906   5.011  15.418  0.00  0.00    +0.000 N 
ATOM     34  C   UNL     1       6.080   4.126  16.066  0.00  0.00    +0.000 A 
BRANCH  33  35
ATOM     35  C   UNL     1       7.181   5.082  13.980  0.00  0.00    +0.000 C 
BRANCH  35  36
ATOM     36  C   UNL     1       6.411   3.995  13.249  0.00  0.00    +0.000 C 
ATOM     37  N   UNL     1       5.772   3.093  12.643  0.00  0.00    +0.000 NA
ENDBRANCH  35  36
ENDBRANCH  33  35
ENDBRANCH  28  30
ENDBRANCH  27  28
ENDBRANCH  21  22
ENDBRANCH   1  21
TORSDOF 10
ENDMDL
MODEL 3
REMARK VINA RESULT:      -8.1      3.426      4.754
REMARK  Name = 
REMARK  12 active torsions:
REMARK  status: ('A' for Active; 'I' for Inactive)
REMARK    1  A    between atoms: C_1  and  C_2
REMARK    2  A    between atoms: C_5  and  C_6
REMARK    3  A    between atoms: C_6  and  N_7
REMARK    4  A    between atoms: C_8  and  C_10
REMARK    5  A    between atoms: C_14  and  C_15
REMARK    6  A    between atoms: C_15  and  C_16
REMARK    7  A    between atoms: C_15  and  O_17
REMARK    8  A    between atoms: O_17  and  C_18
REMARK    9  A    between atoms: C_23  and  N_24
REMARK   10  A    between atoms: N_24  and  C_25
REMARK   11  A    between atoms: N_28  and  C_29
REMARK   12  A    between atoms: C_29  and  C_30
REMARK                            x       y       z     vdW  Elec       q    Type
REMARK                         _______ _______ _______ _____ _____    ______ ____
ROOT
ATOM      1  C   UNL     1       2.384   7.040  18.825  0.00  0.00    +0.000 C 
ATOM      2  C   UNL     1       3.274   7.680  17.746  0.00  0.00    +0.000 C 
ENDROOT
BRANCH   1   7
ATOM      3  C   UNL     1       0.723  10.382  20.079  0.00  0.00    +0.000 A 
ATOM      4  C   UNL     1       0.499  10.045  21.414  0.00  0.00    +0.000 A 
ATOM      5  C   UNL     1       0.915   8.797  21.908  0.00  0.00    +0.000 A 
ATOM      6  C   UNL     1       1.548   7.859  21.080  0.00  0.00    +0.000 A 
ATOM      7  C   UNL     1       1.777   8.142  19.728  0.00  0.00    +0.000 A 
ATOM      8  C   UNL     1       1.369   9.421  19.255  0.00  0.00    +0.000 A 
BRANCH   3  10
ATOM      9  N   UNL     1       1.042  12.392  18.572  0.00  0.00    +0.000 N 
ATOM     10  C   UNL     1       0.219  11.670  19.445  0.00  0.00    +0.000 C 
ATOM     11  O   UNL     1      -0.903  12.059  19.746  0.00  0.00    +0.000 OA
ATOM     12  H   UNL     1       1.996  12.106  18.420  0.00  0.00    +0.000 HD
BRANCH   9  13
ATOM     13  C   UNL     1       0.700  13.773  18.215  0.00  0.00    +0.000 C 
BRANCH  13  18
ATOM     14  C   UNL     1       2.497  18.623  20.951  0.00  0.00    +0.000 C 
ATOM     15  C   UNL     1       2.213  17.288  20.315  0.00  0.00    +0.000 A 
ATOM     16  C   UNL     1       2.577  17.034  18.985  0.00  0.00    +0.000 A 
ATOM     17  C   UNL     1       2.172  15.853  18.332  0.00  0.00    +0.000 A 
ATOM     18  C   UNL     1       1.388  14.894  18.986  0.00  0.00    +0.000 A 
ATOM     19  C   UNL     1       1.072  15.136  20.340  0.00  0.00    +0.000 A 
ATOM     20  C   UNL     1       1.477  16.315  20.993  0.00  0.00    +0.000 A 
ENDBRANCH  13  18
ENDBRANCH   9  13
ENDBRANCH   3  10
ENDBRANCH   1   7
BRANCH   1  21
ATOM     21  O   UNL     1       3.065   6.074  19.664  0.00  0.00    +0.000 OA
BRANCH  21  22
ATOM     22  C   UNL     1       2.659   4.753  19.705  0.00  0.00    +0.000 A 
ATOM     23  C   UNL     1       1.383   4.317  20.076  0.00  0.00    +0.000 A 
ATOM     24  C   UNL     1       1.030   2.973  19.958  0.00  0.00    +0.000 A 
ATOM     25  C   UNL     1       1.978   2.086  19.497  0.00  0.00    +0.000 A 
ATOM     26  N   UNL     1       3.245   2.444  19.211  0.00  0.00    +0.000 NA
ATOM     27  C   UNL     1       3.599   3.752  19.335  0.00  0.00    +0.000 A 
BRANCH  27  28
ATOM     28  N   UNL     1       4.975   4.101  19.208  0.00  0.00    +0.000 N 
ATOM     29  H   UNL     1       5.445   3.934  20.094  0.00  0.00    +0.000 HD
BRANCH  28  30
ATOM     30  C   UNL     1       5.702   4.228  18.065  0.00  0.00    +0.000 A 
ATOM     31  C   UNL     1       7.008   4.723  17.842  0.00  0.00    +0.000 A 
ATOM     32  N   UNL     1       7.338   4.751  16.539  0.00  0.00    +0.000 NA
ATOM     33  N   UNL     1       6.225   4.302  15.919  0.00  0.00    +0.000 N 
ATOM     34  C   UNL     1       5.251   3.907  16.804  0.00  0.00    +0.000 A 
BRANCH  33  35
ATOM     35  C   UNL     1       6.154   4.295  14.456  0.00  0.00    +0.000 C 
BRANCH  35  36
ATOM     36  C   UNL     1       7.330   5.062  13.874  0.00  0.00    +0.000 C 
ATOM     37  N   UNL     1       8.306   5.698  13.392  0.00  0.00    +0.000 NA
ENDBRANCH  35  36
ENDBRANCH  33  35
ENDBRANCH  28  30
ENDBRANCH  27  28
ENDBRANCH  21  22
ENDBRANCH   1  21
TORSDOF 10
ENDMDL
MODEL 4
REMARK VINA RESULT:      -8.1      3.338      4.263
REMARK  Name = 
REMARK  12 active torsions:
REMARK  status: ('A' for Active; 'I' for Inactive)
REMARK    1  A    between atoms: C_1  and  C_2
REMARK    2  A    between atoms: C_5  and  C_6
REMARK    3  A    between atoms: C_6  and  N_7
REMARK    4  A    between atoms: C_8  and  C_10
REMARK    5  A    between atoms: C_14  and  C_15
REMARK    6  A    between atoms: C_15  and  C_16
REMARK    7  A    between atoms: C_15  and  O_17
REMARK    8  A    between atoms: O_17  and  C_18
REMARK    9  A    between atoms: C_23  and  N_24
REMARK   10  A    between atoms: N_24  and  C_25
REMARK   11  A    between atoms: N_28  and  C_29
REMARK   12  A    between atoms: C_29  and  C_30
REMARK                            x       y       z     vdW  Elec       q    Type
REMARK                         _______ _______ _______ _____ _____    ______ ____
ROOT
ATOM      1  C   UNL     1       2.880   6.736  18.299  0.00  0.00    +0.000 C 
ATOM      2  C   UNL     1       3.945   7.456  17.455  0.00  0.00    +0.000 C 
ENDROOT
BRANCH   1   7
ATOM      3  C   UNL     1       0.697   9.833  19.371  0.00  0.00    +0.000 A 
ATOM      4  C   UNL     1       0.498   9.524  20.717  0.00  0.00    +0.000 A 
ATOM      5  C   UNL     1       1.090   8.378  21.274  0.00  0.00    +0.000 A 
ATOM      6  C   UNL     1       1.878   7.513  20.500  0.00  0.00    +0.000 A 
ATOM      7  C   UNL     1       2.090   7.770  19.140  0.00  0.00    +0.000 A 
ATOM      8  C   UNL     1       1.501   8.949  18.602  0.00  0.00    +0.000 A 
BRANCH   3  10
ATOM      9  N   UNL     1       0.535  12.294  18.796  0.00  0.00    +0.000 N 
ATOM     10  C   UNL     1       0.015  11.000  18.671  0.00  0.00    +0.000 C 
ATOM     11  O   UNL     1      -1.003  10.771  18.030  0.00  0.00    +0.000 OA
ATOM     12  H   UNL     1       1.312  12.472  19.410  0.00  0.00    +0.000 HD
BRANCH   9  13
ATOM     13  C   UNL     1      -0.277  13.451  18.403  0.00  0.00    +0.000 C 
BRANCH  13  18
ATOM     14  C   UNL     1       1.436  18.430  20.955  0.00  0.00    +0.000 C 
ATOM     15  C   UNL     1       0.809  17.183  20.390  0.00  0.00    +0.000 A 
ATOM     16  C   UNL     1       0.931  15.954  21.053  0.00  0.00    +0.000 A 
ATOM     17  C   UNL     1       0.492  14.756  20.456  0.00  0.00    +0.000 A 
ATOM     18  C   UNL     1      -0.077  14.750  19.175  0.00  0.00    +0.000 A 
ATOM     19  C   UNL     1      -0.242  15.999  18.539  0.00  0.00    +0.000 A 
ATOM     20  C   UNL     1       0.196  17.196  19.136  0.00  0.00    +0.000 A 
ENDBRANCH  13  18
ENDBRANCH   9  13
ENDBRANCH   3  10
ENDBRANCH   1   7
BRANCH   1  21
ATOM     21  O   UNL     1       3.407   5.720  19.185  0.00  0.00    +0.000 OA
BRANCH  21  22
ATOM     22  C   UNL     1       2.989   4.405  19.093  0.00  0.00    +0.000 A 
ATOM     23  C   UNL     1       1.670   3.969  19.254  0.00  0.00    +0.000 A 
ATOM     24  C   UNL     1       1.327   2.640  19.010  0.00  0.00    +0.000 A 
ATOM     25  C   UNL     1       2.323   1.766  18.637  0.00  0.00    +0.000 A 
ATOM     26  N   UNL     1       3.621   2.119  18.553  0.00  0.00    +0.000 NA
ATOM     27  C   UNL     1       3.964   3.411  18.801  0.00  0.00    +0.000 A 
BRANCH  27  28
ATOM     28  N   UNL     1       5.347   3.744  18.890  0.00  0.00    +0.000 N 
ATOM     29  H   UNL     1       5.787   3.158  19.594  0.00  0.00    +0.000 HD
BRANCH  28  30
ATOM     30  C   UNL     1       6.110   4.391  17.968  0.00  0.00    +0.000 A 
ATOM     31  C   UNL     1       7.044   5.445  18.105  0.00  0.00    +0.000 A 
ATOM     32  N   UNL     1       7.538   5.858  16.926  0.00  0.00    +0.000 NA
ATOM     33  N   UNL     1       6.894   5.088  16.023  0.00  0.00    +0.000 N 
ATOM     34  C   UNL     1       6.087   4.145  16.613  0.00  0.00    +0.000 A 
BRANCH  33  35
ATOM     35  C   UNL     1       7.085   5.324  14.589  0.00  0.00    +0.000 C 
BRANCH  35  36
ATOM     36  C   UNL     1       6.389   4.237  13.786  0.00  0.00    +0.000 C 
ATOM     37  N   UNL     1       5.812   3.335  13.121  0.00  0.00    +0.000 NA
ENDBRANCH  35  36
ENDBRANCH  33  35
ENDBRANCH  28  30
ENDBRANCH  27  28
ENDBRANCH  21  22
ENDBRANCH   1  21
TORSDOF 10
ENDMDL
MODEL 5
REMARK VINA RESULT:      -8.0      2.626      3.523
REMARK  Name = 
REMARK  12 active torsions:
REMARK  status: ('A' for Active; 'I' for Inactive)
REMARK    1  A    between atoms: C_1  and  C_2
REMARK    2  A    between atoms: C_5  and  C_6
REMARK    3  A    between atoms: C_6  and  N_7
REMARK    4  A    between atoms: C_8  and  C_10
REMARK    5  A    between atoms: C_14  and  C_15
REMARK    6  A    between atoms: C_15  and  C_16
REMARK    7  A    between atoms: C_15  and  O_17
REMARK    8  A    between atoms: O_17  and  C_18
REMARK    9  A    between atoms: C_23  and  N_24
REMARK   10  A    between atoms: N_24  and  C_25
REMARK   11  A    between atoms: N_28  and  C_29
REMARK   12  A    between atoms: C_29  and  C_30
REMARK                            x       y       z     vdW  Elec       q    Type
REMARK                         _______ _______ _______ _____ _____    ______ ____
ROOT
ATOM      1  C   UNL     1       2.612   6.504  19.689  0.00  0.00    +0.000 C 
ATOM      2  C   UNL     1       2.211   5.759  20.973  0.00  0.00    +0.000 C 
ENDROOT
BRANCH   1   7
ATOM      3  C   UNL     1       0.631   9.762  20.669  0.00  0.00    +0.000 A 
ATOM      4  C   UNL     1       0.709  10.456  19.461  0.00  0.00    +0.000 A 
ATOM      5  C   UNL     1       1.337   9.870  18.349  0.00  0.00    +0.000 A 
ATOM      6  C   UNL     1       1.911   8.593  18.423  0.00  0.00    +0.000 A 
ATOM      7  C   UNL     1       1.877   7.866  19.620  0.00  0.00    +0.000 A 
ATOM      8  C   UNL     1       1.214   8.468  20.726  0.00  0.00    +0.000 A 
BRANCH   3  10
ATOM      9  N   UNL     1      -0.977  11.310  21.868  0.00  0.00    +0.000 N 
ATOM     10  C   UNL     1       0.053  10.363  21.942  0.00  0.00    +0.000 C 
ATOM     11  O   UNL     1       0.534  10.014  23.014  0.00  0.00    +0.000 OA
ATOM     12  H   UNL     1      -1.285  11.655  20.973  0.00  0.00    +0.000 HD
BRANCH   9  13
ATOM     13  C   UNL     1      -1.314  12.120  23.043  0.00  0.00    +0.000 C 
BRANCH  13  18
ATOM     14  C   UNL     1      -5.964  15.566  22.181  0.00  0.00    +0.000 C 
ATOM     15  C   UNL     1      -4.883  14.586  22.551  0.00  0.00    +0.000 A 
ATOM     16  C   UNL     1      -3.903  14.920  23.497  0.00  0.00    +0.000 A 
ATOM     17  C   UNL     1      -2.797  14.078  23.730  0.00  0.00    +0.000 A 
ATOM     18  C   UNL     1      -2.635  12.880  23.021  0.00  0.00    +0.000 A 
ATOM     19  C   UNL     1      -3.655  12.529  22.110  0.00  0.00    +0.000 A 
ATOM     20  C   UNL     1      -4.759  13.369  21.878  0.00  0.00    +0.000 A 
ENDBRANCH  13  18
ENDBRANCH   9  13
ENDBRANCH   3  10
ENDBRANCH   1   7
BRANCH   1  21
ATOM     21  O   UNL     1       2.350   5.771  18.467  0.00  0.00    +0.000 OA
BRANCH  21  22
ATOM     22  C   UNL     1       2.264   4.391  18.468  0.00  0.00    +0.000 A 
ATOM     23  C   UNL     1       1.122   3.658  18.804  0.00  0.00    +0.000 A 
ATOM     24  C   UNL     1       1.095   2.274  18.644  0.00  0.00    +0.000 A 
ATOM     25  C   UNL     1       2.229   1.647  18.178  0.00  0.00    +0.000 A 
ATOM     26  N   UNL     1       3.380   2.299  17.924  0.00  0.00    +0.000 NA
ATOM     27  C   UNL     1       3.417   3.649  18.088  0.00  0.00    +0.000 A 
BRANCH  27  28
ATOM     28  N   UNL     1       4.675   4.313  17.995  0.00  0.00    +0.000 N 
ATOM     29  H   UNL     1       5.249   4.054  18.793  0.00  0.00    +0.000 HD
BRANCH  28  30
ATOM     30  C   UNL     1       5.251   4.858  16.890  0.00  0.00    +0.000 A 
ATOM     31  C   UNL     1       5.110   6.137  16.301  0.00  0.00    +0.000 A 
ATOM     32  N   UNL     1       5.804   6.261  15.157  0.00  0.00    +0.000 NA
ATOM     33  N   UNL     1       6.367   5.045  14.992  0.00  0.00    +0.000 N 
ATOM     34  C   UNL     1       6.121   4.201  16.049  0.00  0.00    +0.000 A 
BRANCH  33  35
ATOM     35  C   UNL     1       7.124   4.746  13.774  0.00  0.00    +0.000 C 
BRANCH  35  36
ATOM     36  C   UNL     1       6.330   3.801  12.887  0.00  0.00    +0.000 C 
ATOM     37  N   UNL     1       5.670   3.017  12.153  0.00  0.00    +0.000 NA
ENDBRANCH  35  36
ENDBRANCH  33  35
ENDBRANCH  28  30
ENDBRANCH  27  28
ENDBRANCH  21  22
ENDBRANCH   1  21
TORSDOF 10
ENDMDL
MODEL 6
REMARK VINA RESULT:      -8.0      2.236      2.634
REMARK  Name = 
REMARK  12 active torsions:
REMARK  status: ('A' for Active; 'I' for Inactive)
REMARK    1  A    between atoms: C_1  and  C_2
REMARK    2  A    between atoms: C_5  and  C_6
REMARK    3  A    between atoms: C_6  and  N_7
REMARK    4  A    between atoms: C_8  and  C_10
REMARK    5  A    between atoms: C_14  and  C_15
REMARK    6  A    between atoms: C_15  and  C_16
REMARK    7  A    between atoms: C_15  and  O_17
REMARK    8  A    between atoms: O_17  and  C_18
REMARK    9  A    between atoms: C_23  and  N_24
REMARK   10  A    between atoms: N_24  and  C_25
REMARK   11  A    between atoms: N_28  and  C_29
REMARK   12  A    between atoms: C_29  and  C_30
REMARK                            x       y       z     vdW  Elec       q    Type
REMARK                         _______ _______ _______ _____ _____    ______ ____
ROOT
ATOM      1  C   UNL     1       2.140   7.367  18.647  0.00  0.00    +0.000 C 
ATOM      2  C   UNL     1       2.918   8.188  17.604  0.00  0.00    +0.000 C 
ENDROOT
BRANCH   1   7
ATOM      3  C   UNL     1       0.118  10.249  20.408  0.00  0.00    +0.000 A 
ATOM      4  C   UNL     1       0.311   9.889  21.742  0.00  0.00    +0.000 A 
ATOM      5  C   UNL     1       1.110   8.779  22.066  0.00  0.00    +0.000 A 
ATOM      6  C   UNL     1       1.718   8.001  21.070  0.00  0.00    +0.000 A 
ATOM      7  C   UNL     1       1.537   8.311  19.716  0.00  0.00    +0.000 A 
ATOM      8  C   UNL     1       0.745   9.453  19.411  0.00  0.00    +0.000 A 
BRANCH   3  10
ATOM      9  N   UNL     1      -0.794  12.600  20.654  0.00  0.00    +0.000 N 
ATOM     10  C   UNL     1      -0.806  11.377  19.971  0.00  0.00    +0.000 C 
ATOM     11  O   UNL     1      -1.568  11.167  19.035  0.00  0.00    +0.000 OA
ATOM     12  H   UNL     1      -0.233  12.712  21.482  0.00  0.00    +0.000 HD
BRANCH   9  13
ATOM     13  C   UNL     1      -1.883  13.561  20.455  0.00  0.00    +0.000 C 
BRANCH  13  18
ATOM     14  C   UNL     1      -6.420  12.678  24.043  0.00  0.00    +0.000 C 
ATOM     15  C   UNL     1      -5.229  13.088  23.219  0.00  0.00    +0.000 A 
ATOM     16  C   UNL     1      -5.396  13.750  21.995  0.00  0.00    +0.000 A 
ATOM     17  C   UNL     1      -4.302  13.993  21.141  0.00  0.00    +0.000 A 
ATOM     18  C   UNL     1      -3.009  13.577  21.483  0.00  0.00    +0.000 A 
ATOM     19  C   UNL     1      -2.844  12.958  22.742  0.00  0.00    +0.000 A 
ATOM     20  C   UNL     1      -3.937  12.716  23.594  0.00  0.00    +0.000 A 
ENDBRANCH  13  18
ENDBRANCH   9  13
ENDBRANCH   3  10
ENDBRANCH   1   7
BRANCH   1  21
ATOM     21  O   UNL     1       2.929   6.351  19.314  0.00  0.00    +0.000 OA
BRANCH  21  22
ATOM     22  C   UNL     1       2.591   5.012  19.225  0.00  0.00    +0.000 A 
ATOM     23  C   UNL     1       1.434   4.440  19.763  0.00  0.00    +0.000 A 
ATOM     24  C   UNL     1       1.117   3.107  19.506  0.00  0.00    +0.000 A 
ATOM     25  C   UNL     1       1.986   2.365  18.737  0.00  0.00    +0.000 A 
ATOM     26  N   UNL     1       3.154   2.848  18.270  0.00  0.00    +0.000 NA
ATOM     27  C   UNL     1       3.475   4.144  18.527  0.00  0.00    +0.000 A 
BRANCH  27  28
ATOM     28  N   UNL     1       4.782   4.602  18.191  0.00  0.00    +0.000 N 
ATOM     29  H   UNL     1       5.414   4.400  18.961  0.00  0.00    +0.000 HD
BRANCH  28  30
ATOM     30  C   UNL     1       5.280   4.874  16.955  0.00  0.00    +0.000 A 
ATOM     31  C   UNL     1       5.227   6.047  16.166  0.00  0.00    +0.000 A 
ATOM     32  N   UNL     1       5.783   5.884  14.954  0.00  0.00    +0.000 NA
ATOM     33  N   UNL     1       6.166   4.588  14.950  0.00  0.00    +0.000 N 
ATOM     34  C   UNL     1       5.950   3.971  16.159  0.00  0.00    +0.000 A 
BRANCH  33  35
ATOM     35  C   UNL     1       6.721   3.992  13.733  0.00  0.00    +0.000 C 
BRANCH  35  36
ATOM     36  C   UNL     1       5.602   3.647  12.765  0.00  0.00    +0.000 C 
ATOM     37  N   UNL     1       4.673   3.363  11.961  0.00  0.00    +0.000 NA
ENDBRANCH  35  36
ENDBRANCH  33  35
ENDBRANCH  28  30
ENDBRANCH  27  28
ENDBRANCH  21  22
ENDBRANCH   1  21
TORSDOF 10
ENDMDL
MODEL 7
REMARK VINA RESULT:      -8.0      3.012      3.687
REMARK  Name = 
REMARK  12 active torsions:
REMARK  status: ('A' for Active; 'I' for Inactive)
REMARK    1  A    between atoms: C_1  and  C_2
REMARK    2  A    between atoms: C_5  and  C_6
REMARK    3  A    between atoms: C_6  and  N_7
REMARK    4  A    between atoms: C_8  and  C_10
REMARK    5  A    between atoms: C_14  and  C_15
REMARK    6  A    between atoms: C_15  and  C_16
REMARK    7  A    between atoms: C_15  and  O_17
REMARK    8  A    between atoms: O_17  and  C_18
REMARK    9  A    between atoms: C_23  and  N_24
REMARK   10  A    between atoms: N_24  and  C_25
REMARK   11  A    between atoms: N_28  and  C_29
REMARK   12  A    between atoms: C_29  and  C_30
REMARK                            x       y       z     vdW  Elec       q    Type
REMARK                         _______ _______ _______ _____ _____    ______ ____
ROOT
ATOM      1  C   UNL     1       2.684   6.622  19.614  0.00  0.00    +0.000 C 
ATOM      2  C   UNL     1       1.824   5.857  20.634  0.00  0.00    +0.000 C 
ENDROOT
BRANCH   1   7
ATOM      3  C   UNL     1       0.491   9.888  19.751  0.00  0.00    +0.000 A 
ATOM      4  C   UNL     1       0.906  10.498  18.567  0.00  0.00    +0.000 A 
ATOM      5  C   UNL     1       1.827   9.853  17.724  0.00  0.00    +0.000 A 
ATOM      6  C   UNL     1       2.362   8.599  18.052  0.00  0.00    +0.000 A 
ATOM      7  C   UNL     1       1.993   7.956  19.240  0.00  0.00    +0.000 A 
ATOM      8  C   UNL     1       1.040   8.616  20.066  0.00  0.00    +0.000 A 
BRANCH   3  10
ATOM      9  N   UNL     1      -0.130  10.504  22.128  0.00  0.00    +0.000 N 
ATOM     10  C   UNL     1      -0.428  10.561  20.761  0.00  0.00    +0.000 C 
ATOM     11  O   UNL     1      -1.435  11.119  20.340  0.00  0.00    +0.000 OA
ATOM     12  H   UNL     1       0.646   9.953  22.456  0.00  0.00    +0.000 HD
BRANCH   9  13
ATOM     13  C   UNL     1      -1.154  10.860  23.116  0.00  0.00    +0.000 C 
BRANCH  13  18
ATOM     14  C   UNL     1      -3.143  16.295  23.976  0.00  0.00    +0.000 C 
ATOM     15  C   UNL     1      -2.668  14.931  23.551  0.00  0.00    +0.000 A 
ATOM     16  C   UNL     1      -3.543  13.836  23.540  0.00  0.00    +0.000 A 
ATOM     17  C   UNL     1      -3.073  12.529  23.303  0.00  0.00    +0.000 A 
ATOM     18  C   UNL     1      -1.714  12.277  23.075  0.00  0.00    +0.000 A 
ATOM     19  C   UNL     1      -0.850  13.393  23.036  0.00  0.00    +0.000 A 
ATOM     20  C   UNL     1      -1.320  14.698  23.272  0.00  0.00    +0.000 A 
ENDBRANCH  13  18
ENDBRANCH   9  13
ENDBRANCH   3  10
ENDBRANCH   1   7
BRANCH   1  21
ATOM     21  O   UNL     1       2.964   5.885  18.398  0.00  0.00    +0.000 OA
BRANCH  21  22
ATOM     22  C   UNL     1       2.781   4.516  18.335  0.00  0.00    +0.000 A 
ATOM     23  C   UNL     1       1.550   3.865  18.455  0.00  0.00    +0.000 A 
ATOM     24  C   UNL     1       1.451   2.490  18.244  0.00  0.00    +0.000 A 
ATOM     25  C   UNL     1       2.598   1.790  17.944  0.00  0.00    +0.000 A 
ATOM     26  N   UNL     1       3.819   2.359  17.903  0.00  0.00    +0.000 NA
ATOM     27  C   UNL     1       3.924   3.698  18.119  0.00  0.00    +0.000 A 
BRANCH  27  28
ATOM     28  N   UNL     1       5.224   4.266  18.254  0.00  0.00    +0.000 N 
ATOM     29  H   UNL     1       5.626   3.975  19.142  0.00  0.00    +0.000 HD
BRANCH  28  30
ATOM     30  C   UNL     1       6.028   4.754  17.271  0.00  0.00    +0.000 A 
ATOM     31  C   UNL     1       6.799   5.938  17.200  0.00  0.00    +0.000 A 
ATOM     32  N   UNL     1       7.403   6.094  16.010  0.00  0.00    +0.000 NA
ATOM     33  N   UNL     1       6.991   5.022  15.300  0.00  0.00    +0.000 N 
ATOM     34  C   UNL     1       6.228   4.157  16.046  0.00  0.00    +0.000 A 
BRANCH  33  35
ATOM     35  C   UNL     1       7.354   4.895  13.887  0.00  0.00    +0.000 C 
BRANCH  35  36
ATOM     36  C   UNL     1       6.381   3.964  13.181  0.00  0.00    +0.000 C 
ATOM     37  N   UNL     1       5.574   3.193  12.596  0.00  0.00    +0.000 NA
ENDBRANCH  35  36
ENDBRANCH  33  35
ENDBRANCH  28  30
ENDBRANCH  27  28
ENDBRANCH  21  22
ENDBRANCH   1  21
TORSDOF 10
ENDMDL
MODEL 8
REMARK VINA RESULT:      -7.9      2.537      4.964
REMARK  Name = 
REMARK  12 active torsions:
REMARK  status: ('A' for Active; 'I' for Inactive)
REMARK    1  A    between atoms: C_1  and  C_2
REMARK    2  A    between atoms: C_5  and  C_6
REMARK    3  A    between atoms: C_6  and  N_7
REMARK    4  A    between atoms: C_8  and  C_10
REMARK    5  A    between atoms: C_14  and  C_15
REMARK    6  A    between atoms: C_15  and  C_16
REMARK    7  A    between atoms: C_15  and  O_17
REMARK    8  A    between atoms: O_17  and  C_18
REMARK    9  A    between atoms: C_23  and  N_24
REMARK   10  A    between atoms: N_24  and  C_25
REMARK   11  A    between atoms: N_28  and  C_29
REMARK   12  A    between atoms: C_29  and  C_30
REMARK                            x       y       z     vdW  Elec       q    Type
REMARK                         _______ _______ _______ _____ _____    ______ ____
ROOT
ATOM      1  C   UNL     1       3.922   3.224  18.189  0.00  0.00    +0.000 C 
ATOM      2  C   UNL     1       2.861   2.356  17.490  0.00  0.00    +0.000 C 
ENDROOT
BRANCH   1   7
ATOM      3  C   UNL     1       2.285   6.621  19.319  0.00  0.00    +0.000 A 
ATOM      4  C   UNL     1       1.782   6.236  20.562  0.00  0.00    +0.000 A 
ATOM      5  C   UNL     1       2.007   4.936  21.044  0.00  0.00    +0.000 A 
ATOM      6  C   UNL     1       2.722   3.992  20.292  0.00  0.00    +0.000 A 
ATOM      7  C   UNL     1       3.229   4.324  19.030  0.00  0.00    +0.000 A 
ATOM      8  C   UNL     1       3.010   5.655  18.572  0.00  0.00    +0.000 A 
BRANCH   3  10
ATOM      9  N   UNL     1       1.300   8.953  19.402  0.00  0.00    +0.000 N 
ATOM     10  C   UNL     1       2.004   7.977  18.687  0.00  0.00    +0.000 C 
ATOM     11  O   UNL     1       2.386   8.166  17.538  0.00  0.00    +0.000 OA
ATOM     12  H   UNL     1       0.909   8.738  20.305  0.00  0.00    +0.000 HD
BRANCH   9  13
ATOM     13  C   UNL     1       0.752  10.121  18.704  0.00  0.00    +0.000 C 
BRANCH  13  18
ATOM     14  C   UNL     1      -3.708  13.435  20.539  0.00  0.00    +0.000 C 
ATOM     15  C   UNL     1      -2.671  12.419  20.139  0.00  0.00    +0.000 A 
ATOM     16  C   UNL     1      -1.610  12.099  20.997  0.00  0.00    +0.000 A 
ATOM     17  C   UNL     1      -0.549  11.276  20.570  0.00  0.00    +0.000 A 
ATOM     18  C   UNL     1      -0.514  10.753  19.271  0.00  0.00    +0.000 A 
ATOM     19  C   UNL     1      -1.614  11.039  18.432  0.00  0.00    +0.000 A 
ATOM     20  C   UNL     1      -2.674  11.861  18.859  0.00  0.00    +0.000 A 
ENDBRANCH  13  18
ENDBRANCH   9  13
ENDBRANCH   3  10
ENDBRANCH   1   7
BRANCH   1  21
ATOM     21  O   UNL     1       4.868   3.851  17.289  0.00  0.00    +0.000 OA
BRANCH  21  22
ATOM     22  C   UNL     1       5.820   4.737  17.757  0.00  0.00    +0.000 A 
ATOM     23  C   UNL     1       6.206   4.867  19.095  0.00  0.00    +0.000 A 
ATOM     24  C   UNL     1       7.270   5.695  19.449  0.00  0.00    +0.000 A 
ATOM     25  C   UNL     1       7.909   6.401  18.454  0.00  0.00    +0.000 A 
ATOM     26  N   UNL     1       7.518   6.375  17.165  0.00  0.00    +0.000 NA
ATOM     27  C   UNL     1       6.473   5.578  16.814  0.00  0.00    +0.000 A 
BRANCH  27  28
ATOM     28  N   UNL     1       5.946   5.686  15.494  0.00  0.00    +0.000 N 
ATOM     29  H   UNL     1       5.495   6.591  15.388  0.00  0.00    +0.000 HD
BRANCH  28  30
ATOM     30  C   UNL     1       6.295   4.966  14.395  0.00  0.00    +0.000 A 
ATOM     31  C   UNL     1       7.413   5.065  13.532  0.00  0.00    +0.000 A 
ATOM     32  N   UNL     1       7.351   4.204  12.502  0.00  0.00    +0.000 NA
ATOM     33  N   UNL     1       6.172   3.572  12.684  0.00  0.00    +0.000 N 
ATOM     34  C   UNL     1       5.547   3.947  13.849  0.00  0.00    +0.000 A 
BRANCH  33  35
ATOM     35  C   UNL     1       5.688   2.620  11.681  0.00  0.00    +0.000 C 
BRANCH  35  36
ATOM     36  C   UNL     1       4.323   3.052  11.171  0.00  0.00    +0.000 C 
ATOM     37  N   UNL     1       3.190   3.409  10.749  0.00  0.00    +0.000 NA
ENDBRANCH  35  36
ENDBRANCH  33  35
ENDBRANCH  28  30
ENDBRANCH  27  28
ENDBRANCH  21  22
ENDBRANCH   1  21
TORSDOF 10
ENDMDL
MODEL 9
REMARK VINA RESULT:      -7.9      2.702      5.601
REMARK  Name = 
REMARK  12 active torsions:
REMARK  status: ('A' for Active; 'I' for Inactive)
REMARK    1  A    between atoms: C_1  and  C_2
REMARK    2  A    between atoms: C_5  and  C_6
REMARK    3  A    between atoms: C_6  and  N_7
REMARK    4  A    between atoms: C_8  and  C_10
REMARK    5  A    between atoms: C_14  and  C_15
REMARK    6  A    between atoms: C_15  and  C_16
REMARK    7  A    between atoms: C_15  and  O_17
REMARK    8  A    between atoms: O_17  and  C_18
REMARK    9  A    between atoms: C_23  and  N_24
REMARK   10  A    between atoms: N_24  and  C_25
REMARK   11  A    between atoms: N_28  and  C_29
REMARK   12  A    between atoms: C_29  and  C_30
REMARK                            x       y       z     vdW  Elec       q    Type
REMARK                         _______ _______ _______ _____ _____    ______ ____
ROOT
ATOM      1  C   UNL     1       4.630   4.263  18.237  0.00  0.00    +0.000 C 
ATOM      2  C   UNL     1       4.271   2.836  17.788  0.00  0.00    +0.000 C 
ENDROOT
BRANCH   1   7
ATOM      3  C   UNL     1       2.084   6.582  20.145  0.00  0.00    +0.000 A 
ATOM      4  C   UNL     1       1.462   5.630  20.953  0.00  0.00    +0.000 A 
ATOM      5  C   UNL     1       1.884   4.290  20.921  0.00  0.00    +0.000 A 
ATOM      6  C   UNL     1       2.920   3.871  20.074  0.00  0.00    +0.000 A 
ATOM      7  C   UNL     1       3.562   4.785  19.229  0.00  0.00    +0.000 A 
ATOM      8  C   UNL     1       3.135   6.142  19.296  0.00  0.00    +0.000 A 
BRANCH   3  10
ATOM      9  N   UNL     1       1.465   8.637  18.800  0.00  0.00    +0.000 N 
ATOM     10  C   UNL     1       1.625   8.030  20.052  0.00  0.00    +0.000 C 
ATOM     11  O   UNL     1       1.431   8.640  21.097  0.00  0.00    +0.000 OA
ATOM     12  H   UNL     1       1.729   8.147  17.961  0.00  0.00    +0.000 HD
BRANCH   9  13
ATOM     13  C   UNL     1       1.340  10.095  18.703  0.00  0.00    +0.000 C 
BRANCH  13  18
ATOM     14  C   UNL     1      -4.259  11.789  18.535  0.00  0.00    +0.000 C 
ATOM     15  C   UNL     1      -2.792  11.473  18.409  0.00  0.00    +0.000 A 
ATOM     16  C   UNL     1      -2.358  10.345  17.699  0.00  0.00    +0.000 A 
ATOM     17  C   UNL     1      -1.006   9.950  17.711  0.00  0.00    +0.000 A 
ATOM     18  C   UNL     1      -0.047  10.669  18.437  0.00  0.00    +0.000 A 
ATOM     19  C   UNL     1      -0.486  11.833  19.105  0.00  0.00    +0.000 A 
ATOM     20  C   UNL     1      -1.836  12.227  19.092  0.00  0.00    +0.000 A 
ENDBRANCH  13  18
ENDBRANCH   9  13
ENDBRANCH   3  10
ENDBRANCH   1   7
BRANCH   1  21
ATOM     21  O   UNL     1       4.763   5.213  17.152  0.00  0.00    +0.000 OA
BRANCH  21  22
ATOM     22  C   UNL     1       5.549   4.933  16.049  0.00  0.00    +0.000 A 
ATOM     23  C   UNL     1       5.128   4.217  14.924  0.00  0.00    +0.000 A 
ATOM     24  C   UNL     1       5.953   4.102  13.807  0.00  0.00    +0.000 A 
ATOM     25  C   UNL     1       7.200   4.684  13.852  0.00  0.00    +0.000 A 
ATOM     26  N   UNL     1       7.683   5.309  14.944  0.00  0.00    +0.000 NA
ATOM     27  C   UNL     1       6.887   5.415  16.042  0.00  0.00    +0.000 A 
BRANCH  27  28
ATOM     28  N   UNL     1       7.456   5.911  17.251  0.00  0.00    +0.000 N 
ATOM     29  H   UNL     1       8.018   5.181  17.680  0.00  0.00    +0.000 HD
BRANCH  28  30
ATOM     30  C   UNL     1       7.627   7.209  17.621  0.00  0.00    +0.000 A 
ATOM     31  C   UNL     1       7.052   8.403  17.126  0.00  0.00    +0.000 A 
ATOM     32  N   UNL     1       7.545   9.503  17.720  0.00  0.00    +0.000 NA
ATOM     33  N   UNL     1       8.467   9.015  18.578  0.00  0.00    +0.000 N 
ATOM     34  C   UNL     1       8.491   7.642  18.603  0.00  0.00    +0.000 A 
BRANCH  33  35
ATOM     35  C   UNL     1       9.316   9.934  19.341  0.00  0.00    +0.000 C 
BRANCH  35  36
ATOM     36  C   UNL     1       9.754  11.091  18.459  0.00  0.00    +0.000 C 
ATOM     37  N   UNL     1      10.116  12.052  17.727  0.00  0.00    +0.000 NA
ENDBRANCH  35  36
ENDBRANCH  33  35
ENDBRANCH  28  30
ENDBRANCH  27  28
ENDBRANCH  21  22
ENDBRANCH   1  21
TORSDOF 10
ENDMDL
