MODEL 1
REMARK VINA RESULT:      -7.7      0.000      0.000
REMARK  Name = 
REMARK  12 active torsions:
REMARK  status: ('A' for Active; 'I' for Inactive)
REMARK    1  A    between atoms: C_1  and  N_2
REMARK    2  A    between atoms: N_2  and  C_3
REMARK    3  A    between atoms: C_3  and  C_4
REMARK    4  A    between atoms: C_4  and  C_5
REMARK    5  A    between atoms: C_11  and  C_13
REMARK    6  A    between atoms: C_18  and  C_19
REMARK    7  A    between atoms: N_21  and  CA_22
REMARK    8  A    between atoms: CA_22  and  C_23
REMARK    9  A    between atoms: CA_22  and  CB_25
REMARK   10  A    between atoms: CB_25  and  CG_26
REMARK   11  A    between atoms: CG_26  and  CD_27
REMARK   12  A    between atoms: CD_27  and  NE_28
REMARK                            x       y       z     vdW  Elec       q    Type
REMARK                         _______ _______ _______ _____ _____    ______ ____
ROOT
ATOM      1  C   UNK A   0       3.084   6.547  19.121  0.00  0.00    +0.000 C 
ATOM      2  C   UNK A   0       2.705   6.034  17.721  0.00  0.00    +0.000 C 
ATOM      3  C   UNK A   0       1.901   4.738  17.808  0.00  0.00    +0.000 C 
ATOM      4  C   UNK A   0       2.720   3.644  18.482  0.00  0.00    +0.000 C 
ATOM      5  C   UNK A   0       3.305   4.100  19.825  0.00  0.00    +0.000 C 
ATOM      6  C   UNK A   0       4.035   5.467  19.746  0.00  0.00    +0.000 C 
ENDROOT
BRANCH   1   9
ATOM      7  C   UNK A   0       0.402   8.307  21.362  0.00  0.00    +0.000 C 
ATOM      8  N   UNK A   0       1.442   8.170  20.338  0.00  0.00    +0.000 N 
ATOM      9  C   UNK A   0       1.920   6.869  20.126  0.00  0.00    +0.000 C 
ATOM     10  O   UNK A   0       1.469   5.949  20.846  0.00  0.00    +0.000 OA
BRANCH   8  11
ATOM     11  C   UNK A   0       1.629   9.252  19.367  0.00  0.00    +0.000 C 
BRANCH  11  12
ATOM     12  C   UNK A   0       0.822   9.255  18.059  0.00  0.00    +0.000 C 
BRANCH  12  13
ATOM     13  C   UNK A   0      -0.456  10.071  18.173  0.00  0.00    +0.000 A 
ATOM     14  C   UNK A   0      -0.546  11.057  19.167  0.00  0.00    +0.000 A 
ATOM     15  C   UNK A   0      -1.715  11.808  19.325  0.00  0.00    +0.000 A 
ATOM     16  C   UNK A   0      -2.805  11.592  18.487  0.00  0.00    +0.000 A 
ATOM     17  C   UNK A   0      -2.734  10.620  17.495  0.00  0.00    +0.000 A 
ATOM     18  C   UNK A   0      -1.566   9.858  17.342  0.00  0.00    +0.000 A 
ENDBRANCH  12  13
ENDBRANCH  11  12
ENDBRANCH   8  11
ENDBRANCH   1   9
BRANCH   6  19
ATOM     19  C   UNK A   0       5.360   5.274  18.989  0.00  0.00    +0.000 C 
ATOM     20  O   UNK A   0       6.023   4.233  19.072  0.00  0.00    +0.000 OA
ATOM     21  N   ARG A   1       5.818   6.321  18.236  0.00  0.00    +0.000 N 
ATOM     22  H   ARG A   1       5.410   7.238  18.364  0.00  0.00    +0.000 HD
BRANCH  21  23
ATOM     23  CA  ARG A   1       7.080   6.208  17.499  0.00  0.00    +0.000 C 
BRANCH  23  24
ATOM     24  C   ARG A   1       6.875   5.342  16.251  0.00  0.00    +0.000 C 
ATOM     25  O   ARG A   1       7.712   4.549  15.800  0.00  0.00    +0.000 OA
ENDBRANCH  23  24
BRANCH  23  26
ATOM     26  CB  ARG A   1       7.641   7.585  17.108  0.00  0.00    +0.000 C 
BRANCH  26  27
ATOM     27  CG  ARG A   1       8.354   8.297  18.270  0.00  0.00    +0.000 C 
BRANCH  27  28
ATOM     28  CD  ARG A   1       8.225   9.817  18.158  0.00  0.00    +0.000 C 
BRANCH  28  29
ATOM     29  NE  ARG A   1       9.560  10.411  18.227  0.00  0.00    +0.000 NA
ATOM     30  CZ  ARG A   1       9.932  10.926  19.339  0.00  0.00    +0.000 C 
ATOM     31  NH1 ARG A   1       9.257  10.985  20.508  0.00  0.00    +0.000 N 
ATOM     32  NH2 ARG A   1      11.119  11.566  19.421  0.00  0.00    +0.000 N 
ATOM     33 HH11 ARG A   1       8.456  10.377  20.606  0.00  0.00    +0.000 HD
ATOM     34 HH12 ARG A   1       9.786  11.101  21.359  0.00  0.00    +0.000 HD
ATOM     35 HH21 ARG A   1      11.711  11.404  18.614  0.00  0.00    +0.000 HD
ATOM     36 HH22 ARG A   1      11.610  11.574  20.299  0.00  0.00    +0.000 HD
ENDBRANCH  28  29
ENDBRANCH  27  28
ENDBRANCH  26  27
ENDBRANCH  23  26
ENDBRANCH  21  23
ENDBRANCH   6  19
TORSDOF 11
ENDMDL
MODEL 2
REMARK VINA RESULT:      -7.7      0.989      1.244
REMARK  Name = 
REMARK  12 active torsions:
REMARK  status: ('A' for Active; 'I' for Inactive)
REMARK    1  A    between atoms: C_1  and  N_2
REMARK    2  A    between atoms: N_2  and  C_3
REMARK    3  A    between atoms: C_3  and  C_4
REMARK    4  A    between atoms: C_4  and  C_5
REMARK    5  A    between atoms: C_11  and  C_13
REMARK    6  A    between atoms: C_18  and  C_19
REMARK    7  A    between atoms: N_21  and  CA_22
REMARK    8  A    between atoms: CA_22  and  C_23
REMARK    9  A    between atoms: CA_22  and  CB_25
REMARK   10  A    between atoms: CB_25  and  CG_26
REMARK   11  A    between atoms: CG_26  and  CD_27
REMARK   12  A    between atoms: CD_27  and  NE_28
REMARK                            x       y       z     vdW  Elec       q    Type
REMARK                         _______ _______ _______ _____ _____    ______ ____
ROOT
ATOM      1  C   UNK A   0       2.907   6.094  19.111  0.00  0.00    +0.000 C 
ATOM      2  C   UNK A   0       2.301   5.404  17.877  0.00  0.00    +0.000 C 
ATOM      3  C   UNK A   0       1.332   4.296  18.285  0.00  0.00    +0.000 C 
ATOM      4  C   UNK A   0       2.053   3.224  19.092  0.00  0.00    +0.000 C 
ATOM      5  C   UNK A   0       2.845   3.815  20.266  0.00  0.00    +0.000 C 
ATOM      6  C   UNK A   0       3.754   5.005  19.857  0.00  0.00    +0.000 C 
ENDROOT
BRANCH   1   9
ATOM      7  C   UNK A   0       0.690   8.636  21.096  0.00  0.00    +0.000 C 
ATOM      8  N   UNK A   0       1.559   8.133  20.029  0.00  0.00    +0.000 N 
ATOM      9  C   UNK A   0       1.923   6.782  20.125  0.00  0.00    +0.000 C 
ATOM     10  O   UNK A   0       1.526   6.133  21.120  0.00  0.00    +0.000 OA
BRANCH   8  11
ATOM     11  C   UNK A   0       1.668   8.896  18.782  0.00  0.00    +0.000 C 
BRANCH  11  12
ATOM     12  C   UNK A   0       1.286  10.385  18.760  0.00  0.00    +0.000 C 
BRANCH  12  13
ATOM     13  C   UNK A   0      -0.194  10.596  18.484  0.00  0.00    +0.000 A 
ATOM     14  C   UNK A   0      -0.871  11.624  19.155  0.00  0.00    +0.000 A 
ATOM     15  C   UNK A   0      -2.239  11.831  18.952  0.00  0.00    +0.000 A 
ATOM     16  C   UNK A   0      -2.946  11.021  18.070  0.00  0.00    +0.000 A 
ATOM     17  C   UNK A   0      -2.292   9.996  17.394  0.00  0.00    +0.000 A 
ATOM     18  C   UNK A   0      -0.922   9.780  17.604  0.00  0.00    +0.000 A 
ENDBRANCH  12  13
ENDBRANCH  11  12
ENDBRANCH   8  11
ENDBRANCH   1   9
BRANCH   6  19
ATOM     19  C   UNK A   0       4.943   4.461  19.047  0.00  0.00    +0.000 C 
ATOM     20  O   UNK A   0       5.575   3.455  19.394  0.00  0.00    +0.000 OA
ATOM     21  N   ARG A   1       5.318   5.155  17.930  0.00  0.00    +0.000 N 
ATOM     22  H   ARG A   1       4.967   6.094  17.788  0.00  0.00    +0.000 HD
BRANCH  21  23
ATOM     23  CA  ARG A   1       6.451   4.698  17.118  0.00  0.00    +0.000 C 
BRANCH  23  24
ATOM     24  C   ARG A   1       5.935   3.978  15.868  0.00  0.00    +0.000 C 
ATOM     25  O   ARG A   1       6.388   4.138  14.727  0.00  0.00    +0.000 OA
ENDBRANCH  23  24
BRANCH  23  26
ATOM     26  CB  ARG A   1       7.378   5.859  16.723  0.00  0.00    +0.000 C 
BRANCH  26  27
ATOM     27  CG  ARG A   1       6.925   7.214  17.293  0.00  0.00    +0.000 C 
BRANCH  27  28
ATOM     28  CD  ARG A   1       8.041   7.884  18.095  0.00  0.00    +0.000 C 
BRANCH  28  29
ATOM     29  NE  ARG A   1       8.180   9.270  17.645  0.00  0.00    +0.000 NA
ATOM     30  CZ  ARG A   1       8.803  10.089  18.407  0.00  0.00    +0.000 C 
ATOM     31  NH1 ARG A   1       9.394   9.849  19.599  0.00  0.00    +0.000 N 
ATOM     32  NH2 ARG A   1       8.874  11.397  18.074  0.00  0.00    +0.000 N 
ATOM     33 HH11 ARG A   1       9.563   8.883  19.840  0.00  0.00    +0.000 HD
ATOM     34 HH12 ARG A   1      10.119  10.479  19.906  0.00  0.00    +0.000 HD
ATOM     35 HH21 ARG A   1       8.581  11.577  17.121  0.00  0.00    +0.000 HD
ATOM     36 HH22 ARG A   1       9.671  11.934  18.371  0.00  0.00    +0.000 HD
ENDBRANCH  28  29
ENDBRANCH  27  28
ENDBRANCH  26  27
ENDBRANCH  23  26
ENDBRANCH  21  23
ENDBRANCH   6  19
TORSDOF 11
ENDMDL
MODEL 3
REMARK VINA RESULT:      -7.5      0.910      1.420
REMARK  Name = 
REMARK  12 active torsions:
REMARK  status: ('A' for Active; 'I' for Inactive)
REMARK    1  A    between atoms: C_1  and  N_2
REMARK    2  A    between atoms: N_2  and  C_3
REMARK    3  A    between atoms: C_3  and  C_4
REMARK    4  A    between atoms: C_4  and  C_5
REMARK    5  A    between atoms: C_11  and  C_13
REMARK    6  A    between atoms: C_18  and  C_19
REMARK    7  A    between atoms: N_21  and  CA_22
REMARK    8  A    between atoms: CA_22  and  C_23
REMARK    9  A    between atoms: CA_22  and  CB_25
REMARK   10  A    between atoms: CB_25  and  CG_26
REMARK   11  A    between atoms: CG_26  and  CD_27
REMARK   12  A    between atoms: CD_27  and  NE_28
REMARK                            x       y       z     vdW  Elec       q    Type
REMARK                         _______ _______ _______ _____ _____    ______ ____
ROOT
ATOM      1  C   UNK A   0       2.907   6.202  19.325  0.00  0.00    +0.000 C 
ATOM      2  C   UNK A   0       2.525   5.815  17.886  0.00  0.00    +0.000 C 
ATOM      3  C   UNK A   0       1.403   4.778  17.873  0.00  0.00    +0.000 C 
ATOM      4  C   UNK A   0       1.844   3.504  18.583  0.00  0.00    +0.000 C 
ATOM      5  C   UNK A   0       2.413   3.782  19.980  0.00  0.00    +0.000 C 
ATOM      6  C   UNK A   0       3.483   4.907  19.995  0.00  0.00    +0.000 C 
ENDROOT
BRANCH   1   9
ATOM      7  C   UNK A   0       0.469   8.608  21.216  0.00  0.00    +0.000 C 
ATOM      8  N   UNK A   0       1.488   8.188  20.251  0.00  0.00    +0.000 N 
ATOM      9  C   UNK A   0       1.789   6.819  20.241  0.00  0.00    +0.000 C 
ATOM     10  O   UNK A   0       1.212   6.081  21.073  0.00  0.00    +0.000 OA
BRANCH   8  11
ATOM     11  C   UNK A   0       1.827   9.083  19.141  0.00  0.00    +0.000 C 
BRANCH  11  12
ATOM     12  C   UNK A   0       0.938   9.118  17.888  0.00  0.00    +0.000 C 
BRANCH  12  13
ATOM     13  C   UNK A   0      -0.235  10.073  18.041  0.00  0.00    +0.000 A 
ATOM     14  C   UNK A   0      -1.443   9.776  17.394  0.00  0.00    +0.000 A 
ATOM     15  C   UNK A   0      -2.536  10.644  17.484  0.00  0.00    +0.000 A 
ATOM     16  C   UNK A   0      -2.439  11.814  18.229  0.00  0.00    +0.000 A 
ATOM     17  C   UNK A   0      -1.250  12.127  18.880  0.00  0.00    +0.000 A 
ATOM     18  C   UNK A   0      -0.149  11.262  18.781  0.00  0.00    +0.000 A 
ENDBRANCH  12  13
ENDBRANCH  11  12
ENDBRANCH   8  11
ENDBRANCH   1   9
BRANCH   6  19
ATOM     19  C   UNK A   0       4.768   4.372  19.343  0.00  0.00    +0.000 C 
ATOM     20  O   UNK A   0       5.176   3.219  19.531  0.00  0.00    +0.000 OA
ATOM     21  N   ARG A   1       5.489   5.234  18.563  0.00  0.00    +0.000 N 
ATOM     22  H   ARG A   1       5.292   6.226  18.609  0.00  0.00    +0.000 HD
BRANCH  21  23
ATOM     23  CA  ARG A   1       6.731   4.793  17.920  0.00  0.00    +0.000 C 
BRANCH  23  24
ATOM     24  C   ARG A   1       6.516   4.671  16.408  0.00  0.00    +0.000 C 
ATOM     25  O   ARG A   1       5.918   3.738  15.855  0.00  0.00    +0.000 OA
ENDBRANCH  23  24
BRANCH  23  26
ATOM     26  CB  ARG A   1       7.901   5.743  18.220  0.00  0.00    +0.000 C 
BRANCH  26  27
ATOM     27  CG  ARG A   1       7.686   7.160  17.660  0.00  0.00    +0.000 C 
BRANCH  27  28
ATOM     28  CD  ARG A   1       8.314   8.221  18.564  0.00  0.00    +0.000 C 
BRANCH  28  29
ATOM     29  NE  ARG A   1       8.232   9.520  17.896  0.00  0.00    +0.000 NA
ATOM     30  CZ  ARG A   1       8.922  10.487  18.376  0.00  0.00    +0.000 C 
ATOM     31  NH1 ARG A   1       9.762  10.479  19.434  0.00  0.00    +0.000 N 
ATOM     32  NH2 ARG A   1       8.805  11.724  17.847  0.00  0.00    +0.000 N 
ATOM     33 HH11 ARG A   1      10.063   9.576  19.773  0.00  0.00    +0.000 HD
ATOM     34 HH12 ARG A   1      10.475  11.190  19.482  0.00  0.00    +0.000 HD
ATOM     35 HH21 ARG A   1       8.309  11.730  16.963  0.00  0.00    +0.000 HD
ATOM     36 HH22 ARG A   1       9.594  12.347  17.882  0.00  0.00    +0.000 HD
ENDBRANCH  28  29
ENDBRANCH  27  28
ENDBRANCH  26  27
ENDBRANCH  23  26
ENDBRANCH  21  23
ENDBRANCH   6  19
TORSDOF 11
ENDMDL
MODEL 4
REMARK VINA RESULT:      -7.5      1.300      1.773
REMARK  Name = 
REMARK  12 active torsions:
REMARK  status: ('A' for Active; 'I' for Inactive)
REMARK    1  A    between atoms: C_1  and  N_2
REMARK    2  A    between atoms: N_2  and  C_3
REMARK    3  A    between atoms: C_3  and  C_4
REMARK    4  A    between atoms: C_4  and  C_5
REMARK    5  A    between atoms: C_11  and  C_13
REMARK    6  A    between atoms: C_18  and  C_19
REMARK    7  A    between atoms: N_21  and  CA_22
REMARK    8  A    between atoms: CA_22  and  C_23
REMARK    9  A    between atoms: CA_22  and  CB_25
REMARK   10  A    between atoms: CB_25  and  CG_26
REMARK   11  A    between atoms: CG_26  and  CD_27
REMARK   12  A    between atoms: CD_27  and  NE_28
REMARK                            x       y       z     vdW  Elec       q    Type
REMARK                         _______ _______ _______ _____ _____    ______ ____
ROOT
ATOM      1  C   UNK A   0       3.084   6.492  19.105  0.00  0.00    +0.000 C 
ATOM      2  C   UNK A   0       2.639   5.965  17.730  0.00  0.00    +0.000 C 
ATOM      3  C   UNK A   0       1.820   4.683  17.869  0.00  0.00    +0.000 C 
ATOM      4  C   UNK A   0       2.651   3.587  18.525  0.00  0.00    +0.000 C 
ATOM      5  C   UNK A   0       3.298   4.053  19.836  0.00  0.00    +0.000 C 
ATOM      6  C   UNK A   0       4.044   5.408  19.706  0.00  0.00    +0.000 C 
ENDROOT
BRANCH   1   9
ATOM      7  C   UNK A   0       0.457   8.314  21.363  0.00  0.00    +0.000 C 
ATOM      8  N   UNK A   0       1.439   8.138  20.289  0.00  0.00    +0.000 N 
ATOM      9  C   UNK A   0       1.967   6.846  20.153  0.00  0.00    +0.000 C 
ATOM     10  O   UNK A   0       1.605   5.971  20.972  0.00  0.00    +0.000 OA
BRANCH   8  11
ATOM     11  C   UNK A   0       1.514   9.141  19.223  0.00  0.00    +0.000 C 
BRANCH  11  12
ATOM     12  C   UNK A   0       0.282   9.996  18.888  0.00  0.00    +0.000 C 
BRANCH  12  13
ATOM     13  C   UNK A   0       0.612  11.477  18.811  0.00  0.00    +0.000 A 
ATOM     14  C   UNK A   0      -0.426  12.413  18.929  0.00  0.00    +0.000 A 
ATOM     15  C   UNK A   0      -0.168  13.784  18.833  0.00  0.00    +0.000 A 
ATOM     16  C   UNK A   0       1.130  14.239  18.628  0.00  0.00    +0.000 A 
ATOM     17  C   UNK A   0       2.174  13.327  18.510  0.00  0.00    +0.000 A 
ATOM     18  C   UNK A   0       1.915  11.951  18.595  0.00  0.00    +0.000 A 
ENDBRANCH  12  13
ENDBRANCH  11  12
ENDBRANCH   8  11
ENDBRANCH   1   9
BRANCH   6  19
ATOM     19  C   UNK A   0       5.333   5.184  18.898  0.00  0.00    +0.000 C 
ATOM     20  O   UNK A   0       6.015   4.158  19.011  0.00  0.00    +0.000 OA
ATOM     21  N   ARG A   1       5.738   6.188  18.061  0.00  0.00    +0.000 N 
ATOM     22  H   ARG A   1       5.324   7.106  18.152  0.00  0.00    +0.000 HD
BRANCH  21  23
ATOM     23  CA  ARG A   1       6.964   6.044  17.270  0.00  0.00    +0.000 C 
BRANCH  23  24
ATOM     24  C   ARG A   1       6.639   5.386  15.924  0.00  0.00    +0.000 C 
ATOM     25  O   ARG A   1       7.455   5.217  15.009  0.00  0.00    +0.000 OA
ENDBRANCH  23  24
BRANCH  23  26
ATOM     26  CB  ARG A   1       7.665   7.395  17.049  0.00  0.00    +0.000 C 
BRANCH  26  27
ATOM     27  CG  ARG A   1       8.221   8.005  18.347  0.00  0.00    +0.000 C 
BRANCH  27  28
ATOM     28  CD  ARG A   1       8.470   9.506  18.198  0.00  0.00    +0.000 C 
BRANCH  28  29
ATOM     29  NE  ARG A   1       9.208   9.982  19.369  0.00  0.00    +0.000 NA
ATOM     30  CZ  ARG A   1       9.679  11.173  19.339  0.00  0.00    +0.000 C 
ATOM     31  NH1 ARG A   1       9.572  12.097  18.359  0.00  0.00    +0.000 N 
ATOM     32  NH2 ARG A   1      10.443  11.619  20.359  0.00  0.00    +0.000 N 
ATOM     33 HH11 ARG A   1       8.871  11.935  17.651  0.00  0.00    +0.000 HD
ATOM     34 HH12 ARG A   1       9.686  13.068  18.606  0.00  0.00    +0.000 HD
ATOM     35 HH21 ARG A   1      10.411  11.013  21.172  0.00  0.00    +0.000 HD
ATOM     36 HH22 ARG A   1      10.443  12.601  20.577  0.00  0.00    +0.000 HD
ENDBRANCH  28  29
ENDBRANCH  27  28
ENDBRANCH  26  27
ENDBRANCH  23  26
ENDBRANCH  21  23
ENDBRANCH   6  19
TORSDOF 11
ENDMDL
MODEL 5
REMARK VINA RESULT:      -7.2      2.897      3.817
REMARK  Name = 
REMARK  12 active torsions:
REMARK  status: ('A' for Active; 'I' for Inactive)
REMARK    1  A    between atoms: C_1  and  N_2
REMARK    2  A    between atoms: N_2  and  C_3
REMARK    3  A    between atoms: C_3  and  C_4
REMARK    4  A    between atoms: C_4  and  C_5
REMARK    5  A    between atoms: C_11  and  C_13
REMARK    6  A    between atoms: C_18  and  C_19
REMARK    7  A    between atoms: N_21  and  CA_22
REMARK    8  A    between atoms: CA_22  and  C_23
REMARK    9  A    between atoms: CA_22  and  CB_25
REMARK   10  A    between atoms: CB_25  and  CG_26
REMARK   11  A    between atoms: CG_26  and  CD_27
REMARK   12  A    between atoms: CD_27  and  NE_28
REMARK                            x       y       z     vdW  Elec       q    Type
REMARK                         _______ _______ _______ _____ _____    ______ ____
ROOT
ATOM      1  C   UNK A   0       2.949   6.424  19.215  0.00  0.00    +0.000 C 
ATOM      2  C   UNK A   0       2.476   5.928  17.838  0.00  0.00    +0.000 C 
ATOM      3  C   UNK A   0       1.445   4.809  17.979  0.00  0.00    +0.000 C 
ATOM      4  C   UNK A   0       2.049   3.614  18.707  0.00  0.00    +0.000 C 
ATOM      5  C   UNK A   0       2.713   4.014  20.031  0.00  0.00    +0.000 C 
ATOM      6  C   UNK A   0       3.685   5.216  19.893  0.00  0.00    +0.000 C 
ENDROOT
BRANCH   1   9
ATOM      7  C   UNK A   0       0.465   8.729  21.172  0.00  0.00    +0.000 C 
ATOM      8  N   UNK A   0       1.422   8.330  20.136  0.00  0.00    +0.000 N 
ATOM      9  C   UNK A   0       1.868   7.003  20.199  0.00  0.00    +0.000 C 
ATOM     10  O   UNK A   0       1.464   6.287  21.143  0.00  0.00    +0.000 OA
BRANCH   8  11
ATOM     11  C   UNK A   0       1.545   9.153  18.929  0.00  0.00    +0.000 C 
BRANCH  11  12
ATOM     12  C   UNK A   0       1.025  10.599  18.931  0.00  0.00    +0.000 C 
BRANCH  12  13
ATOM     13  C   UNK A   0      -0.435  10.685  18.519  0.00  0.00    +0.000 A 
ATOM     14  C   UNK A   0      -1.256  11.652  19.119  0.00  0.00    +0.000 A 
ATOM     15  C   UNK A   0      -2.612  11.744  18.789  0.00  0.00    +0.000 A 
ATOM     16  C   UNK A   0      -3.164  10.879  17.850  0.00  0.00    +0.000 A 
ATOM     17  C   UNK A   0      -2.367   9.914  17.243  0.00  0.00    +0.000 A 
ATOM     18  C   UNK A   0      -1.009   9.814  17.580  0.00  0.00    +0.000 A 
ENDBRANCH  12  13
ENDBRANCH  11  12
ENDBRANCH   8  11
ENDBRANCH   1   9
BRANCH   6  19
ATOM     19  C   UNK A   0       4.948   4.747  19.152  0.00  0.00    +0.000 C 
ATOM     20  O   UNK A   0       5.412   3.608  19.293  0.00  0.00    +0.000 OA
ATOM     21  N   ARG A   1       5.583   5.651  18.346  0.00  0.00    +0.000 N 
ATOM     22  H   ARG A   1       5.350   6.632  18.423  0.00  0.00    +0.000 HD
BRANCH  21  23
ATOM     23  CA  ARG A   1       6.799   5.272  17.620  0.00  0.00    +0.000 C 
BRANCH  23  24
ATOM     24  C   ARG A   1       7.901   4.896  18.617  0.00  0.00    +0.000 C 
ATOM     25  O   ARG A   1       8.198   5.558  19.619  0.00  0.00    +0.000 OA
ENDBRANCH  23  24
BRANCH  23  26
ATOM     26  CB  ARG A   1       6.545   4.114  16.641  0.00  0.00    +0.000 C 
BRANCH  26  27
ATOM     27  CG  ARG A   1       5.383   4.388  15.671  0.00  0.00    +0.000 C 
BRANCH  27  28
ATOM     28  CD  ARG A   1       5.863   4.428  14.220  0.00  0.00    +0.000 C 
BRANCH  28  29
ATOM     29  NE  ARG A   1       7.056   5.271  14.140  0.00  0.00    +0.000 NA
ATOM     30  CZ  ARG A   1       7.725   5.264  13.048  0.00  0.00    +0.000 C 
ATOM     31  NH1 ARG A   1       7.469   4.583  11.908  0.00  0.00    +0.000 N 
ATOM     32  NH2 ARG A   1       8.882   5.955  12.962  0.00  0.00    +0.000 N 
ATOM     33 HH11 ARG A   1       6.542   4.197  11.803  0.00  0.00    +0.000 HD
ATOM     34 HH12 ARG A   1       7.867   4.929  11.048  0.00  0.00    +0.000 HD
ATOM     35 HH21 ARG A   1       9.017   6.594  13.738  0.00  0.00    +0.000 HD
ATOM     36 HH22 ARG A   1       9.168   6.321  12.070  0.00  0.00    +0.000 HD
ENDBRANCH  28  29
ENDBRANCH  27  28
ENDBRANCH  26  27
ENDBRANCH  23  26
ENDBRANCH  21  23
ENDBRANCH   6  19
TORSDOF 11
ENDMDL
MODEL 6
REMARK VINA RESULT:      -7.2      2.310      4.124
REMARK  Name = 
REMARK  12 active torsions:
REMARK  status: ('A' for Active; 'I' for Inactive)
REMARK    1  A    between atoms: C_1  and  N_2
REMARK    2  A    between atoms: N_2  and  C_3
REMARK    3  A    between atoms: C_3  and  C_4
REMARK    4  A    between atoms: C_4  and  C_5
REMARK    5  A    between atoms: C_11  and  C_13
REMARK    6  A    between atoms: C_18  and  C_19
REMARK    7  A    between atoms: N_21  and  CA_22
REMARK    8  A    between atoms: CA_22  and  C_23
REMARK    9  A    between atoms: CA_22  and  CB_25
REMARK   10  A    between atoms: CB_25  and  CG_26
REMARK   11  A    between atoms: CG_26  and  CD_27
REMARK   12  A    between atoms: CD_27  and  NE_28
REMARK                            x       y       z     vdW  Elec       q    Type
REMARK                         _______ _______ _______ _____ _____    ______ ____
ROOT
ATOM      1  C   UNK A   0       5.485   5.857  18.335  0.00  0.00    +0.000 C 
ATOM      2  C   UNK A   0       5.084   5.994  16.856  0.00  0.00    +0.000 C 
ATOM      3  C   UNK A   0       5.566   4.796  16.041  0.00  0.00    +0.000 C 
ATOM      4  C   UNK A   0       7.086   4.691  16.089  0.00  0.00    +0.000 C 
ATOM      5  C   UNK A   0       7.625   4.719  17.525  0.00  0.00    +0.000 C 
ATOM      6  C   UNK A   0       7.052   5.885  18.375  0.00  0.00    +0.000 C 
ENDROOT
BRANCH   1   9
ATOM      7  C   UNK A   0       3.414   3.366  20.531  0.00  0.00    +0.000 C 
ATOM      8  N   UNK A   0       3.720   4.587  19.780  0.00  0.00    +0.000 N 
ATOM      9  C   UNK A   0       4.960   4.604  19.125  0.00  0.00    +0.000 C 
ATOM     10  O   UNK A   0       5.717   3.617  19.268  0.00  0.00    +0.000 OA
BRANCH   8  11
ATOM     11  C   UNK A   0       2.628   5.501  19.433  0.00  0.00    +0.000 C 
BRANCH  11  12
ATOM     12  C   UNK A   0       2.178   6.572  20.438  0.00  0.00    +0.000 C 
BRANCH  12  13
ATOM     13  C   UNK A   0       1.801   7.878  19.757  0.00  0.00    +0.000 A 
ATOM     14  C   UNK A   0       0.946   8.769  20.421  0.00  0.00    +0.000 A 
ATOM     15  C   UNK A   0       0.551   9.967  19.816  0.00  0.00    +0.000 A 
ATOM     16  C   UNK A   0       1.012  10.293  18.545  0.00  0.00    +0.000 A 
ATOM     17  C   UNK A   0       1.861   9.423  17.870  0.00  0.00    +0.000 A 
ATOM     18  C   UNK A   0       2.250   8.217  18.471  0.00  0.00    +0.000 A 
ENDBRANCH  12  13
ENDBRANCH  11  12
ENDBRANCH   8  11
ENDBRANCH   1   9
BRANCH   6  19
ATOM     19  C   UNK A   0       7.676   7.203  17.885  0.00  0.00    +0.000 C 
ATOM     20  O   UNK A   0       7.761   7.489  16.684  0.00  0.00    +0.000 OA
ATOM     21  N   ARG A   1       8.181   8.054  18.830  0.00  0.00    +0.000 N 
ATOM     22  H   ARG A   1       8.331   7.716  19.772  0.00  0.00    +0.000 HD
BRANCH  21  23
ATOM     23  CA  ARG A   1       8.799   9.322  18.431  0.00  0.00    +0.000 C 
BRANCH  23  24
ATOM     24  C   ARG A   1       7.788  10.169  17.650  0.00  0.00    +0.000 C 
ATOM     25  O   ARG A   1       7.972  11.344  17.306  0.00  0.00    +0.000 OA
ENDBRANCH  23  24
BRANCH  23  26
ATOM     26  CB  ARG A   1       9.332  10.106  19.642  0.00  0.00    +0.000 C 
BRANCH  26  27
ATOM     27  CG  ARG A   1      10.637  10.864  19.343  0.00  0.00    +0.000 C 
BRANCH  27  28
ATOM     28  CD  ARG A   1      10.429  12.378  19.392  0.00  0.00    +0.000 C 
BRANCH  28  29
ATOM     29  NE  ARG A   1      11.226  12.999  18.334  0.00  0.00    +0.000 NA
ATOM     30  CZ  ARG A   1      10.618  13.727  17.473  0.00  0.00    +0.000 C 
ATOM     31  NH1 ARG A   1       9.304  14.036  17.408  0.00  0.00    +0.000 N 
ATOM     32  NH2 ARG A   1      11.300  14.244  16.427  0.00  0.00    +0.000 N 
ATOM     33 HH11 ARG A   1       8.751  13.863  18.235  0.00  0.00    +0.000 HD
ATOM     34 HH12 ARG A   1       9.035  14.867  16.904  0.00  0.00    +0.000 HD
ATOM     35 HH21 ARG A   1      12.305  14.162  16.533  0.00  0.00    +0.000 HD
ATOM     36 HH22 ARG A   1      10.996  15.116  16.028  0.00  0.00    +0.000 HD
ENDBRANCH  28  29
ENDBRANCH  27  28
ENDBRANCH  26  27
ENDBRANCH  23  26
ENDBRANCH  21  23
ENDBRANCH   6  19
TORSDOF 11
ENDMDL
MODEL 7
REMARK VINA RESULT:      -7.1      2.631      4.741
REMARK  Name = 
REMARK  12 active torsions:
REMARK  status: ('A' for Active; 'I' for Inactive)
REMARK    1  A    between atoms: C_1  and  N_2
REMARK    2  A    between atoms: N_2  and  C_3
REMARK    3  A    between atoms: C_3  and  C_4
REMARK    4  A    between atoms: C_4  and  C_5
REMARK    5  A    between atoms: C_11  and  C_13
REMARK    6  A    between atoms: C_18  and  C_19
REMARK    7  A    between atoms: N_21  and  CA_22
REMARK    8  A    between atoms: CA_22  and  C_23
REMARK    9  A    between atoms: CA_22  and  CB_25
REMARK   10  A    between atoms: CB_25  and  CG_26
REMARK   11  A    between atoms: CG_26  and  CD_27
REMARK   12  A    between atoms: CD_27  and  NE_28
REMARK                            x       y       z     vdW  Elec       q    Type
REMARK                         _______ _______ _______ _____ _____    ______ ____
ROOT
ATOM      1  C   UNK A   0       2.899   6.548  18.987  0.00  0.00    +0.000 C 
ATOM      2  C   UNK A   0       2.316   6.012  17.669  0.00  0.00    +0.000 C 
ATOM      3  C   UNK A   0       1.429   4.792  17.913  0.00  0.00    +0.000 C 
ATOM      4  C   UNK A   0       2.235   3.663  18.543  0.00  0.00    +0.000 C 
ATOM      5  C   UNK A   0       3.010   4.123  19.784  0.00  0.00    +0.000 C 
ATOM      6  C   UNK A   0       3.830   5.420  19.551  0.00  0.00    +0.000 C 
ENDROOT
BRANCH   1   9
ATOM      7  C   UNK A   0       0.625   8.615  21.410  0.00  0.00    +0.000 C 
ATOM      8  N   UNK A   0       1.517   8.347  20.278  0.00  0.00    +0.000 N 
ATOM      9  C   UNK A   0       1.892   7.008  20.103  0.00  0.00    +0.000 C 
ATOM     10  O   UNK A   0       1.486   6.166  20.937  0.00  0.00    +0.000 OA
BRANCH   8  11
ATOM     11  C   UNK A   0       1.637   9.350  19.217  0.00  0.00    +0.000 C 
BRANCH  11  12
ATOM     12  C   UNK A   0       0.716   9.281  17.989  0.00  0.00    +0.000 C 
BRANCH  12  13
ATOM     13  C   UNK A   0      -0.543  10.114  18.167  0.00  0.00    +0.000 A 
ATOM     14  C   UNK A   0      -1.646   9.864  17.337  0.00  0.00    +0.000 A 
ATOM     15  C   UNK A   0      -2.813  10.629  17.448  0.00  0.00    +0.000 A 
ATOM     16  C   UNK A   0      -2.895  11.645  18.394  0.00  0.00    +0.000 A 
ATOM     17  C   UNK A   0      -1.813  11.907  19.227  0.00  0.00    +0.000 A 
ATOM     18  C   UNK A   0      -0.639  11.148  19.110  0.00  0.00    +0.000 A 
ENDBRANCH  12  13
ENDBRANCH  11  12
ENDBRANCH   8  11
ENDBRANCH   1   9
BRANCH   6  19
ATOM     19  C   UNK A   0       5.036   5.086  18.657  0.00  0.00    +0.000 C 
ATOM     20  O   UNK A   0       5.383   3.922  18.422  0.00  0.00    +0.000 OA
ATOM     21  N   ARG A   1       5.756   6.132  18.148  0.00  0.00    +0.000 N 
ATOM     22  H   ARG A   1       5.624   7.058  18.534  0.00  0.00    +0.000 HD
BRANCH  21  23
ATOM     23  CA  ARG A   1       6.924   5.884  17.298  0.00  0.00    +0.000 C 
BRANCH  23  24
ATOM     24  C   ARG A   1       7.612   4.584  17.728  0.00  0.00    +0.000 C 
ATOM     25  O   ARG A   1       8.474   4.504  18.613  0.00  0.00    +0.000 OA
ENDBRANCH  23  24
BRANCH  23  26
ATOM     26  CB  ARG A   1       6.546   5.821  15.809  0.00  0.00    +0.000 C 
BRANCH  26  27
ATOM     27  CG  ARG A   1       6.546   4.389  15.246  0.00  0.00    +0.000 C 
BRANCH  27  28
ATOM     28  CD  ARG A   1       5.750   4.299  13.944  0.00  0.00    +0.000 C 
BRANCH  28  29
ATOM     29  NE  ARG A   1       6.309   3.226  13.122  0.00  0.00    +0.000 NA
ATOM     30  CZ  ARG A   1       5.634   2.834  12.106  0.00  0.00    +0.000 C 
ATOM     31  NH1 ARG A   1       4.448   3.297  11.652  0.00  0.00    +0.000 N 
ATOM     32  NH2 ARG A   1       6.067   1.784  11.375  0.00  0.00    +0.000 N 
ATOM     33 HH11 ARG A   1       4.140   4.191  12.007  0.00  0.00    +0.000 HD
ATOM     34 HH12 ARG A   1       4.215   3.139  10.684  0.00  0.00    +0.000 HD
ATOM     35 HH21 ARG A   1       7.022   1.519  11.592  0.00  0.00    +0.000 HD
ATOM     36 HH22 ARG A   1       5.840   1.744  10.395  0.00  0.00    +0.000 HD
ENDBRANCH  28  29
ENDBRANCH  27  28
ENDBRANCH  26  27
ENDBRANCH  23  26
ENDBRANCH  21  23
ENDBRANCH   6  19
TORSDOF 11
ENDMDL
MODEL 8
REMARK VINA RESULT:      -7.0      4.220     10.380
REMARK  Name = 
REMARK  12 active torsions:
REMARK  status: ('A' for Active; 'I' for Inactive)
REMARK    1  A    between atoms: C_1  and  N_2
REMARK    2  A    between atoms: N_2  and  C_3
REMARK    3  A    between atoms: C_3  and  C_4
REMARK    4  A    between atoms: C_4  and  C_5
REMARK    5  A    between atoms: C_11  and  C_13
REMARK    6  A    between atoms: C_18  and  C_19
REMARK    7  A    between atoms: N_21  and  CA_22
REMARK    8  A    between atoms: CA_22  and  C_23
REMARK    9  A    between atoms: CA_22  and  CB_25
REMARK   10  A    between atoms: CB_25  and  CG_26
REMARK   11  A    between atoms: CG_26  and  CD_27
REMARK   12  A    between atoms: CD_27  and  NE_28
REMARK                            x       y       z     vdW  Elec       q    Type
REMARK                         _______ _______ _______ _____ _____    ______ ____
ROOT
ATOM      1  C   UNK A   0       0.559   9.431  18.929  0.00  0.00    +0.000 C 
ATOM      2  C   UNK A   0       1.322  10.516  18.149  0.00  0.00    +0.000 C 
ATOM      3  C   UNK A   0       2.061  11.459  19.096  0.00  0.00    +0.000 C 
ATOM      4  C   UNK A   0       1.079  12.172  20.018  0.00  0.00    +0.000 C 
ATOM      5  C   UNK A   0       0.136  11.194  20.730  0.00  0.00    +0.000 C 
ATOM      6  C   UNK A   0      -0.535  10.176  19.770  0.00  0.00    +0.000 C 
ENDROOT
BRANCH   1   9
ATOM      7  C   UNK A   0       2.709   6.517  20.412  0.00  0.00    +0.000 C 
ATOM      8  N   UNK A   0       2.040   7.333  19.394  0.00  0.00    +0.000 N 
ATOM      9  C   UNK A   0       1.388   8.481  19.867  0.00  0.00    +0.000 C 
ATOM     10  O   UNK A   0       1.385   8.693  21.101  0.00  0.00    +0.000 OA
BRANCH   8  11
ATOM     11  C   UNK A   0       2.402   7.148  17.986  0.00  0.00    +0.000 C 
BRANCH  11  12
ATOM     12  C   UNK A   0       3.844   7.411  17.526  0.00  0.00    +0.000 C 
BRANCH  12  13
ATOM     13  C   UNK A   0       4.470   6.191  16.869  0.00  0.00    +0.000 A 
ATOM     14  C   UNK A   0       5.246   6.363  15.714  0.00  0.00    +0.000 A 
ATOM     15  C   UNK A   0       5.813   5.263  15.062  0.00  0.00    +0.000 A 
ATOM     16  C   UNK A   0       5.620   3.979  15.561  0.00  0.00    +0.000 A 
ATOM     17  C   UNK A   0       4.855   3.787  16.707  0.00  0.00    +0.000 A 
ATOM     18  C   UNK A   0       4.276   4.888  17.355  0.00  0.00    +0.000 A 
ENDBRANCH  12  13
ENDBRANCH  11  12
ENDBRANCH   8  11
ENDBRANCH   1   9
BRANCH   6  19
ATOM     19  C   UNK A   0      -1.589  10.914  18.928  0.00  0.00    +0.000 C 
ATOM     20  O   UNK A   0      -1.975  12.057  19.205  0.00  0.00    +0.000 OA
ATOM     21  N   ARG A   1      -2.131  10.247  17.864  0.00  0.00    +0.000 N 
ATOM     22  H   ARG A   1      -1.999   9.247  17.788  0.00  0.00    +0.000 HD
BRANCH  21  23
ATOM     23  CA  ARG A   1      -3.148  10.889  17.026  0.00  0.00    +0.000 C 
BRANCH  23  24
ATOM     24  C   ARG A   1      -3.022  10.390  15.583  0.00  0.00    +0.000 C 
ATOM     25  O   ARG A   1      -3.390  11.023  14.585  0.00  0.00    +0.000 OA
ENDBRANCH  23  24
BRANCH  23  26
ATOM     26  CB  ARG A   1      -4.569  10.638  17.556  0.00  0.00    +0.000 C 
BRANCH  26  27
ATOM     27  CG  ARG A   1      -5.377  11.932  17.755  0.00  0.00    +0.000 C 
BRANCH  27  28
ATOM     28  CD  ARG A   1      -6.846  11.634  18.056  0.00  0.00    +0.000 C 
BRANCH  28  29
ATOM     29  NE  ARG A   1      -7.015  11.508  19.504  0.00  0.00    +0.000 NA
ATOM     30  CZ  ARG A   1      -7.297  10.351  19.978  0.00  0.00    +0.000 C 
ATOM     31  NH1 ARG A   1      -7.444   9.183  19.315  0.00  0.00    +0.000 N 
ATOM     32  NH2 ARG A   1      -7.552  10.208  21.296  0.00  0.00    +0.000 N 
ATOM     33 HH11 ARG A   1      -7.091   9.144  18.370  0.00  0.00    +0.000 HD
ATOM     34 HH12 ARG A   1      -7.323   8.325  19.831  0.00  0.00    +0.000 HD
ATOM     35 HH21 ARG A   1      -7.297  11.026  21.839  0.00  0.00    +0.000 HD
ATOM     36 HH22 ARG A   1      -7.337   9.333  21.743  0.00  0.00    +0.000 HD
ENDBRANCH  28  29
ENDBRANCH  27  28
ENDBRANCH  26  27
ENDBRANCH  23  26
ENDBRANCH  21  23
ENDBRANCH   6  19
TORSDOF 11
ENDMDL
MODEL 9
REMARK VINA RESULT:      -6.9      2.735      4.866
REMARK  Name = 
REMARK  12 active torsions:
REMARK  status: ('A' for Active; 'I' for Inactive)
REMARK    1  A    between atoms: C_1  and  N_2
REMARK    2  A    between atoms: N_2  and  C_3
REMARK    3  A    between atoms: C_3  and  C_4
REMARK    4  A    between atoms: C_4  and  C_5
REMARK    5  A    between atoms: C_11  and  C_13
REMARK    6  A    between atoms: C_18  and  C_19
REMARK    7  A    between atoms: N_21  and  CA_22
REMARK    8  A    between atoms: CA_22  and  C_23
REMARK    9  A    between atoms: CA_22  and  CB_25
REMARK   10  A    between atoms: CB_25  and  CG_26
REMARK   11  A    between atoms: CG_26  and  CD_27
REMARK   12  A    between atoms: CD_27  and  NE_28
REMARK                            x       y       z     vdW  Elec       q    Type
REMARK                         _______ _______ _______ _____ _____    ______ ____
ROOT
ATOM      1  C   UNK A   0       2.933   6.596  19.172  0.00  0.00    +0.000 C 
ATOM      2  C   UNK A   0       2.544   6.070  17.780  0.00  0.00    +0.000 C 
ATOM      3  C   UNK A   0       1.724   4.785  17.886  0.00  0.00    +0.000 C 
ATOM      4  C   UNK A   0       2.532   3.691  18.573  0.00  0.00    +0.000 C 
ATOM      5  C   UNK A   0       3.125   4.157  19.909  0.00  0.00    +0.000 C 
ATOM      6  C   UNK A   0       3.872   5.514  19.809  0.00  0.00    +0.000 C 
ENDROOT
BRANCH   1   9
ATOM      7  C   UNK A   0       0.238   8.414  21.352  0.00  0.00    +0.000 C 
ATOM      8  N   UNK A   0       1.267   8.245  20.321  0.00  0.00    +0.000 N 
ATOM      9  C   UNK A   0       1.775   6.947  20.176  0.00  0.00    +0.000 C 
ATOM     10  O   UNK A   0       1.357   6.058  20.953  0.00  0.00    +0.000 OA
BRANCH   8  11
ATOM     11  C   UNK A   0       1.412   9.274  19.288  0.00  0.00    +0.000 C 
BRANCH  11  12
ATOM     12  C   UNK A   0       0.181  10.060  18.810  0.00  0.00    +0.000 C 
BRANCH  12  13
ATOM     13  C   UNK A   0       0.295  11.546  19.110  0.00  0.00    +0.000 A 
ATOM     14  C   UNK A   0       1.249  11.980  20.042  0.00  0.00    +0.000 A 
ATOM     15  C   UNK A   0       1.364  13.336  20.369  0.00  0.00    +0.000 A 
ATOM     16  C   UNK A   0       0.535  14.274  19.763  0.00  0.00    +0.000 A 
ATOM     17  C   UNK A   0      -0.416  13.863  18.835  0.00  0.00    +0.000 A 
ATOM     18  C   UNK A   0      -0.540  12.503  18.514  0.00  0.00    +0.000 A 
ENDBRANCH  12  13
ENDBRANCH  11  12
ENDBRANCH   8  11
ENDBRANCH   1   9
BRANCH   6  19
ATOM     19  C   UNK A   0       5.192   5.295  19.053  0.00  0.00    +0.000 C 
ATOM     20  O   UNK A   0       6.012   4.430  19.388  0.00  0.00    +0.000 OA
ATOM     21  N   ARG A   1       5.464   6.124  17.999  0.00  0.00    +0.000 N 
ATOM     22  H   ARG A   1       4.922   6.971  17.883  0.00  0.00    +0.000 HD
BRANCH  21  23
ATOM     23  CA  ARG A   1       6.711   5.977  17.242  0.00  0.00    +0.000 C 
BRANCH  23  24
ATOM     24  C   ARG A   1       7.901   6.383  18.119  0.00  0.00    +0.000 C 
ATOM     25  O   ARG A   1       8.182   7.549  18.426  0.00  0.00    +0.000 OA
ENDBRANCH  23  24
BRANCH  23  26
ATOM     26  CB  ARG A   1       6.898   4.544  16.717  0.00  0.00    +0.000 C 
BRANCH  26  27
ATOM     27  CG  ARG A   1       5.797   4.115  15.732  0.00  0.00    +0.000 C 
BRANCH  27  28
ATOM     28  CD  ARG A   1       6.348   3.950  14.315  0.00  0.00    +0.000 C 
BRANCH  28  29
ATOM     29  NE  ARG A   1       5.233   3.987  13.367  0.00  0.00    +0.000 NA
ATOM     30  CZ  ARG A   1       5.300   3.236  12.332  0.00  0.00    +0.000 C 
ATOM     31  NH1 ARG A   1       6.273   2.366  11.983  0.00  0.00    +0.000 N 
ATOM     32  NH2 ARG A   1       4.338   3.308  11.386  0.00  0.00    +0.000 N 
ATOM     33 HH11 ARG A   1       6.930   2.101  12.703  0.00  0.00    +0.000 HD
ATOM     34 HH12 ARG A   1       6.038   1.618  11.349  0.00  0.00    +0.000 HD
ATOM     35 HH21 ARG A   1       3.523   3.829  11.691  0.00  0.00    +0.000 HD
ATOM     36 HH22 ARG A   1       4.125   2.488  10.843  0.00  0.00    +0.000 HD
ENDBRANCH  28  29
ENDBRANCH  27  28
ENDBRANCH  26  27
ENDBRANCH  23  26
ENDBRANCH  21  23
ENDBRANCH   6  19
TORSDOF 11
ENDMDL
