MODEL 1
REMARK VINA RESULT:      -8.0      0.000      0.000
REMARK  Name = 
REMARK  2 active torsions:
REMARK  status: ('A' for Active; 'I' for Inactive)
REMARK    1  A    between atoms: C_4  and  C_5
REMARK    2  A    between atoms: C_13  and  C_14
REMARK                            x       y       z     vdW  Elec       q    Type
REMARK                         _______ _______ _______ _____ _____    ______ ____
ROOT
ATOM      1  C   UNL     1       3.263   6.734  17.943  0.00  0.00    +0.000 A 
ATOM      2  N   UNL     1       4.090   7.203  16.951  0.00  0.00    +0.000 NA
ATOM      3  C   UNL     1       4.742   6.153  16.507  0.00  0.00    +0.000 A 
ATOM      4  C   UNL     1       5.752   6.057  15.507  0.00  0.00    +0.000 A 
ATOM      5  C   UNL     1       6.296   4.862  15.214  0.00  0.00    +0.000 A 
ATOM      6  C   UNL     1       5.850   3.648  15.882  0.00  0.00    +0.000 A 
ATOM      7  C   UNL     1       4.883   3.736  16.808  0.00  0.00    +0.000 A 
ATOM      8  N   UNL     1       4.338   4.984  17.150  0.00  0.00    +0.000 N 
ATOM      9  C   UNL     1       3.371   5.346  18.092  0.00  0.00    +0.000 A 
ENDROOT
BRANCH   1  13
ATOM     10  C   UNL     1       0.720   9.473  20.010  0.00  0.00    +0.000 A 
ATOM     11  C   UNL     1       1.042   9.679  18.671  0.00  0.00    +0.000 A 
ATOM     12  C   UNL     1       1.878   8.778  18.007  0.00  0.00    +0.000 A 
ATOM     13  C   UNL     1       2.407   7.663  18.676  0.00  0.00    +0.000 A 
ATOM     14  C   UNL     1       2.115   7.498  20.035  0.00  0.00    +0.000 A 
ATOM     15  C   UNL     1       1.259   8.386  20.693  0.00  0.00    +0.000 A 
ENDBRANCH   1  13
BRANCH   9  16
ATOM     16  C   UNL     1       2.657   4.407  18.975  0.00  0.00    +0.000 A 
ATOM     17  C   UNL     1       3.140   3.990  20.203  0.00  0.00    +0.000 A 
ATOM     18  N   UNL     1       2.498   3.143  21.039  0.00  0.00    +0.000 NA
ATOM     19  C   UNL     1       1.293   2.725  20.629  0.00  0.00    +0.000 A 
ATOM     20  N   UNL     1       0.700   3.065  19.478  0.00  0.00    +0.000 NA
ATOM     21  C   UNL     1       1.405   3.895  18.674  0.00  0.00    +0.000 A 
ENDBRANCH   9  16
TORSDOF 2
ENDMDL
MODEL 2
REMARK VINA RESULT:      -8.0      0.167      1.034
REMARK  Name = 
REMARK  2 active torsions:
REMARK  status: ('A' for Active; 'I' for Inactive)
REMARK    1  A    between atoms: C_4  and  C_5
REMARK    2  A    between atoms: C_13  and  C_14
REMARK                            x       y       z     vdW  Elec       q    Type
REMARK                         _______ _______ _______ _____ _____    ______ ____
ROOT
ATOM      1  C   UNL     1       3.172   6.819  18.018  0.00  0.00    +0.000 A 
ATOM      2  N   UNL     1       4.013   7.270  17.028  0.00  0.00    +0.000 NA
ATOM      3  C   UNL     1       4.668   6.211  16.611  0.00  0.00    +0.000 A 
ATOM      4  C   UNL     1       5.690   6.096  15.625  0.00  0.00    +0.000 A 
ATOM      5  C   UNL     1       6.235   4.894  15.360  0.00  0.00    +0.000 A 
ATOM      6  C   UNL     1       5.779   3.694  16.043  0.00  0.00    +0.000 A 
ATOM      7  C   UNL     1       4.801   3.799  16.956  0.00  0.00    +0.000 A 
ATOM      8  N   UNL     1       4.254   5.054  17.269  0.00  0.00    +0.000 N 
ATOM      9  C   UNL     1       3.277   5.435  18.193  0.00  0.00    +0.000 A 
ENDROOT
BRANCH   1  13
ATOM     10  C   UNL     1       0.608   9.597  20.006  0.00  0.00    +0.000 A 
ATOM     11  C   UNL     1       0.914   9.757  18.657  0.00  0.00    +0.000 A 
ATOM     12  C   UNL     1       1.757   8.843  18.019  0.00  0.00    +0.000 A 
ATOM     13  C   UNL     1       2.310   7.763  18.724  0.00  0.00    +0.000 A 
ATOM     14  C   UNL     1       2.034   7.646  20.092  0.00  0.00    +0.000 A 
ATOM     15  C   UNL     1       1.170   8.545  20.724  0.00  0.00    +0.000 A 
ENDBRANCH   1  13
BRANCH   9  16
ATOM     16  C   UNL     1       2.550   4.513  19.083  0.00  0.00    +0.000 A 
ATOM     17  C   UNL     1       1.391   3.849  18.719  0.00  0.00    +0.000 A 
ATOM     18  N   UNL     1       0.714   2.985  19.510  0.00  0.00    +0.000 NA
ATOM     19  C   UNL     1       1.254   2.756  20.714  0.00  0.00    +0.000 A 
ATOM     20  N   UNL     1       2.376   3.314  21.185  0.00  0.00    +0.000 NA
ATOM     21  C   UNL     1       2.993   4.188  20.355  0.00  0.00    +0.000 A 
ENDBRANCH   9  16
TORSDOF 2
ENDMDL
MODEL 3
REMARK VINA RESULT:      -8.0      0.086      1.470
REMARK  Name = 
REMARK  2 active torsions:
REMARK  status: ('A' for Active; 'I' for Inactive)
REMARK    1  A    between atoms: C_4  and  C_5
REMARK    2  A    between atoms: C_13  and  C_14
REMARK                            x       y       z     vdW  Elec       q    Type
REMARK                         _______ _______ _______ _____ _____    ______ ____
ROOT
ATOM      1  C   UNL     1       3.233   6.769  17.945  0.00  0.00    +0.000 A 
ATOM      2  N   UNL     1       4.080   7.244  16.971  0.00  0.00    +0.000 NA
ATOM      3  C   UNL     1       4.735   6.195  16.530  0.00  0.00    +0.000 A 
ATOM      4  C   UNL     1       5.762   6.103  15.548  0.00  0.00    +0.000 A 
ATOM      5  C   UNL     1       6.306   4.907  15.254  0.00  0.00    +0.000 A 
ATOM      6  C   UNL     1       5.844   3.690  15.903  0.00  0.00    +0.000 A 
ATOM      7  C   UNL     1       4.860   3.774  16.813  0.00  0.00    +0.000 A 
ATOM      8  N   UNL     1       4.315   5.021  17.156  0.00  0.00    +0.000 N 
ATOM      9  C   UNL     1       3.333   5.380  18.083  0.00  0.00    +0.000 A 
ENDROOT
BRANCH   1  13
ATOM     10  C   UNL     1       0.747   9.461  20.140  0.00  0.00    +0.000 A 
ATOM     11  C   UNL     1       1.305   8.346  20.762  0.00  0.00    +0.000 A 
ATOM     12  C   UNL     1       2.114   7.471  20.032  0.00  0.00    +0.000 A 
ATOM     13  C   UNL     1       2.368   7.696  18.670  0.00  0.00    +0.000 A 
ATOM     14  C   UNL     1       1.758   8.792  18.048  0.00  0.00    +0.000 A 
ATOM     15  C   UNL     1       0.970   9.681  18.784  0.00  0.00    +0.000 A 
ENDBRANCH   1  13
BRANCH   9  16
ATOM     16  C   UNL     1       2.598   4.437  18.945  0.00  0.00    +0.000 A 
ATOM     17  C   UNL     1       1.394   3.853  18.591  0.00  0.00    +0.000 A 
ATOM     18  N   UNL     1       0.708   2.973  19.355  0.00  0.00    +0.000 NA
ATOM     19  C   UNL     1       1.285   2.640  20.518  0.00  0.00    +0.000 A 
ATOM     20  N   UNL     1       2.453   3.112  20.972  0.00  0.00    +0.000 NA
ATOM     21  C   UNL     1       3.077   4.009  20.173  0.00  0.00    +0.000 A 
ENDBRANCH   9  16
TORSDOF 2
ENDMDL
MODEL 4
REMARK VINA RESULT:      -8.0      0.106      1.056
REMARK  Name = 
REMARK  2 active torsions:
REMARK  status: ('A' for Active; 'I' for Inactive)
REMARK    1  A    between atoms: C_4  and  C_5
REMARK    2  A    between atoms: C_13  and  C_14
REMARK                            x       y       z     vdW  Elec       q    Type
REMARK                         _______ _______ _______ _____ _____    ______ ____
ROOT
ATOM      1  C   UNL     1       3.276   6.723  17.929  0.00  0.00    +0.000 A 
ATOM      2  N   UNL     1       4.101   7.213  16.943  0.00  0.00    +0.000 NA
ATOM      3  C   UNL     1       4.759   6.174  16.483  0.00  0.00    +0.000 A 
ATOM      4  C   UNL     1       5.769   6.100  15.482  0.00  0.00    +0.000 A 
ATOM      5  C   UNL     1       6.320   4.912  15.170  0.00  0.00    +0.000 A 
ATOM      6  C   UNL     1       5.882   3.686  15.819  0.00  0.00    +0.000 A 
ATOM      7  C   UNL     1       4.914   3.753  16.746  0.00  0.00    +0.000 A 
ATOM      8  N   UNL     1       4.362   4.992  17.108  0.00  0.00    +0.000 N 
ATOM      9  C   UNL     1       3.394   5.334  18.056  0.00  0.00    +0.000 A 
ENDROOT
BRANCH   1  13
ATOM     10  C   UNL     1       0.801   9.371  20.188  0.00  0.00    +0.000 A 
ATOM     11  C   UNL     1       1.351   8.237  20.782  0.00  0.00    +0.000 A 
ATOM     12  C   UNL     1       2.157   7.377  20.031  0.00  0.00    +0.000 A 
ATOM     13  C   UNL     1       2.416   7.636  18.676  0.00  0.00    +0.000 A 
ATOM     14  C   UNL     1       1.813   8.751  18.081  0.00  0.00    +0.000 A 
ATOM     15  C   UNL     1       1.029   9.625  18.839  0.00  0.00    +0.000 A 
ENDBRANCH   1  13
BRANCH   9  16
ATOM     16  C   UNL     1       2.685   4.377  18.924  0.00  0.00    +0.000 A 
ATOM     17  C   UNL     1       3.196   3.902  20.119  0.00  0.00    +0.000 A 
ATOM     18  N   UNL     1       2.561   3.037  20.942  0.00  0.00    +0.000 NA
ATOM     19  C   UNL     1       1.334   2.662  20.554  0.00  0.00    +0.000 A 
ATOM     20  N   UNL     1       0.714   3.059  19.437  0.00  0.00    +0.000 NA
ATOM     21  C   UNL     1       1.413   3.905  18.643  0.00  0.00    +0.000 A 
ENDBRANCH   9  16
TORSDOF 2
ENDMDL
MODEL 5
REMARK VINA RESULT:      -7.8      2.325      5.209
REMARK  Name = 
REMARK  2 active torsions:
REMARK  status: ('A' for Active; 'I' for Inactive)
REMARK    1  A    between atoms: C_4  and  C_5
REMARK    2  A    between atoms: C_13  and  C_14
REMARK                            x       y       z     vdW  Elec       q    Type
REMARK                         _______ _______ _______ _____ _____    ______ ____
ROOT
ATOM      1  C   UNL     1       4.578   4.966  18.440  0.00  0.00    +0.000 A 
ATOM      2  N   UNL     1       4.685   3.601  18.310  0.00  0.00    +0.000 NA
ATOM      3  C   UNL     1       3.475   3.131  18.507  0.00  0.00    +0.000 A 
ATOM      4  C   UNL     1       3.008   1.785  18.525  0.00  0.00    +0.000 A 
ATOM      5  C   UNL     1       1.707   1.530  18.758  0.00  0.00    +0.000 A 
ATOM      6  C   UNL     1       0.752   2.608  18.964  0.00  0.00    +0.000 A 
ATOM      7  C   UNL     1       1.190   3.877  18.925  0.00  0.00    +0.000 A 
ATOM      8  N   UNL     1       2.552   4.153  18.723  0.00  0.00    +0.000 N 
ATOM      9  C   UNL     1       3.257   5.359  18.683  0.00  0.00    +0.000 A 
ENDROOT
BRANCH   1  13
ATOM     10  C   UNL     1       8.103   7.351  18.084  0.00  0.00    +0.000 A 
ATOM     11  C   UNL     1       8.004   6.378  19.076  0.00  0.00    +0.000 A 
ATOM     12  C   UNL     1       6.844   5.607  19.184  0.00  0.00    +0.000 A 
ATOM     13  C   UNL     1       5.766   5.803  18.307  0.00  0.00    +0.000 A 
ATOM     14  C   UNL     1       5.862   6.820  17.349  0.00  0.00    +0.000 A 
ATOM     15  C   UNL     1       7.032   7.574  17.225  0.00  0.00    +0.000 A 
ENDBRANCH   1  13
BRANCH   9  16
ATOM     16  C   UNL     1       2.656   6.695  18.837  0.00  0.00    +0.000 A 
ATOM     17  C   UNL     1       2.476   7.581  17.789  0.00  0.00    +0.000 A 
ATOM     18  N   UNL     1       1.913   8.806  17.900  0.00  0.00    +0.000 NA
ATOM     19  C   UNL     1       1.480   9.136  19.124  0.00  0.00    +0.000 A 
ATOM     20  N   UNL     1       1.572   8.370  20.217  0.00  0.00    +0.000 NA
ATOM     21  C   UNL     1       2.169   7.167  20.045  0.00  0.00    +0.000 A 
ENDBRANCH   9  16
TORSDOF 2
ENDMDL
MODEL 6
REMARK VINA RESULT:      -7.8      2.322      5.147
REMARK  Name = 
REMARK  2 active torsions:
REMARK  status: ('A' for Active; 'I' for Inactive)
REMARK    1  A    between atoms: C_4  and  C_5
REMARK    2  A    between atoms: C_13  and  C_14
REMARK                            x       y       z     vdW  Elec       q    Type
REMARK                         _______ _______ _______ _____ _____    ______ ____
ROOT
ATOM      1  C   UNL     1       4.669   4.986  18.467  0.00  0.00    +0.000 A 
ATOM      2  N   UNL     1       4.765   3.616  18.412  0.00  0.00    +0.000 NA
ATOM      3  C   UNL     1       3.541   3.168  18.568  0.00  0.00    +0.000 A 
ATOM      4  C   UNL     1       3.056   1.830  18.628  0.00  0.00    +0.000 A 
ATOM      5  C   UNL     1       1.741   1.599  18.804  0.00  0.00    +0.000 A 
ATOM      6  C   UNL     1       0.791   2.696  18.905  0.00  0.00    +0.000 A 
ATOM      7  C   UNL     1       1.246   3.957  18.825  0.00  0.00    +0.000 A 
ATOM      8  N   UNL     1       2.620   4.208  18.682  0.00  0.00    +0.000 N 
ATOM      9  C   UNL     1       3.341   5.404  18.620  0.00  0.00    +0.000 A 
ENDROOT
BRANCH   1  13
ATOM     10  C   UNL     1       8.143   7.444  18.105  0.00  0.00    +0.000 A 
ATOM     11  C   UNL     1       7.078   7.589  17.220  0.00  0.00    +0.000 A 
ATOM     12  C   UNL     1       5.948   6.777  17.347  0.00  0.00    +0.000 A 
ATOM     13  C   UNL     1       5.873   5.804  18.356  0.00  0.00    +0.000 A 
ATOM     14  C   UNL     1       6.973   5.635  19.205  0.00  0.00    +0.000 A 
ATOM     15  C   UNL     1       8.093   6.466  19.094  0.00  0.00    +0.000 A 
ENDBRANCH   1  13
BRANCH   9  16
ATOM     16  C   UNL     1       2.750   6.752  18.674  0.00  0.00    +0.000 A 
ATOM     17  C   UNL     1       2.647   7.590  17.577  0.00  0.00    +0.000 A 
ATOM     18  N   UNL     1       2.094   8.824  17.596  0.00  0.00    +0.000 NA
ATOM     19  C   UNL     1       1.591   9.217  18.774  0.00  0.00    +0.000 A 
ATOM     20  N   UNL     1       1.606   8.502  19.905  0.00  0.00    +0.000 NA
ATOM     21  C   UNL     1       2.196   7.286  19.826  0.00  0.00    +0.000 A 
ENDBRANCH   9  16
TORSDOF 2
ENDMDL
MODEL 7
REMARK VINA RESULT:      -7.8      2.316      5.188
REMARK  Name = 
REMARK  2 active torsions:
REMARK  status: ('A' for Active; 'I' for Inactive)
REMARK    1  A    between atoms: C_4  and  C_5
REMARK    2  A    between atoms: C_13  and  C_14
REMARK                            x       y       z     vdW  Elec       q    Type
REMARK                         _______ _______ _______ _____ _____    ______ ____
ROOT
ATOM      1  C   UNL     1       4.621   4.993  18.416  0.00  0.00    +0.000 A 
ATOM      2  N   UNL     1       4.736   3.624  18.346  0.00  0.00    +0.000 NA
ATOM      3  C   UNL     1       3.519   3.158  18.505  0.00  0.00    +0.000 A 
ATOM      4  C   UNL     1       3.052   1.813  18.555  0.00  0.00    +0.000 A 
ATOM      5  C   UNL     1       1.742   1.563  18.737  0.00  0.00    +0.000 A 
ATOM      6  C   UNL     1       0.778   2.646  18.855  0.00  0.00    +0.000 A 
ATOM      7  C   UNL     1       1.215   3.913  18.784  0.00  0.00    +0.000 A 
ATOM      8  N   UNL     1       2.585   4.185  18.636  0.00  0.00    +0.000 N 
ATOM      9  C   UNL     1       3.290   5.391  18.581  0.00  0.00    +0.000 A 
ENDROOT
BRANCH   1  13
ATOM     10  C   UNL     1       8.157   7.371  18.125  0.00  0.00    +0.000 A 
ATOM     11  C   UNL     1       8.041   6.392  19.110  0.00  0.00    +0.000 A 
ATOM     12  C   UNL     1       6.878   5.623  19.196  0.00  0.00    +0.000 A 
ATOM     13  C   UNL     1       5.814   5.828  18.305  0.00  0.00    +0.000 A 
ATOM     14  C   UNL     1       5.925   6.850  17.354  0.00  0.00    +0.000 A 
ATOM     15  C   UNL     1       7.099   7.602  17.251  0.00  0.00    +0.000 A 
ENDBRANCH   1  13
BRANCH   9  16
ATOM     16  C   UNL     1       2.681   6.731  18.653  0.00  0.00    +0.000 A 
ATOM     17  C   UNL     1       2.167   7.278  19.815  0.00  0.00    +0.000 A 
ATOM     18  N   UNL     1       1.618   8.511  19.912  0.00  0.00    +0.000 NA
ATOM     19  C   UNL     1       1.620   9.237  18.787  0.00  0.00    +0.000 A 
ATOM     20  N   UNL     1       2.101   8.839  17.603  0.00  0.00    +0.000 NA
ATOM     21  C   UNL     1       2.613   7.587  17.565  0.00  0.00    +0.000 A 
ENDBRANCH   9  16
TORSDOF 2
ENDMDL
MODEL 8
REMARK VINA RESULT:      -7.8      2.312      5.077
REMARK  Name = 
REMARK  2 active torsions:
REMARK  status: ('A' for Active; 'I' for Inactive)
REMARK    1  A    between atoms: C_4  and  C_5
REMARK    2  A    between atoms: C_13  and  C_14
REMARK                            x       y       z     vdW  Elec       q    Type
REMARK                         _______ _______ _______ _____ _____    ______ ____
ROOT
ATOM      1  C   UNL     1       4.658   4.962  18.408  0.00  0.00    +0.000 A 
ATOM      2  N   UNL     1       4.769   3.594  18.334  0.00  0.00    +0.000 NA
ATOM      3  C   UNL     1       3.549   3.131  18.482  0.00  0.00    +0.000 A 
ATOM      4  C   UNL     1       3.078   1.787  18.524  0.00  0.00    +0.000 A 
ATOM      5  C   UNL     1       1.766   1.541  18.694  0.00  0.00    +0.000 A 
ATOM      6  C   UNL     1       0.804   2.627  18.807  0.00  0.00    +0.000 A 
ATOM      7  C   UNL     1       1.246   3.893  18.744  0.00  0.00    +0.000 A 
ATOM      8  N   UNL     1       2.618   4.161  18.608  0.00  0.00    +0.000 N 
ATOM      9  C   UNL     1       3.327   5.364  18.563  0.00  0.00    +0.000 A 
ENDROOT
BRANCH   1  13
ATOM     10  C   UNL     1       8.107   7.461  18.086  0.00  0.00    +0.000 A 
ATOM     11  C   UNL     1       7.041   7.610  17.202  0.00  0.00    +0.000 A 
ATOM     12  C   UNL     1       5.920   6.784  17.316  0.00  0.00    +0.000 A 
ATOM     13  C   UNL     1       5.854   5.794  18.310  0.00  0.00    +0.000 A 
ATOM     14  C   UNL     1       6.956   5.623  19.156  0.00  0.00    +0.000 A 
ATOM     15  C   UNL     1       8.067   6.467  19.059  0.00  0.00    +0.000 A 
ENDBRANCH   1  13
BRANCH   9  16
ATOM     16  C   UNL     1       2.721   6.706  18.633  0.00  0.00    +0.000 A 
ATOM     17  C   UNL     1       2.205   7.254  19.795  0.00  0.00    +0.000 A 
ATOM     18  N   UNL     1       1.659   8.488  19.891  0.00  0.00    +0.000 NA
ATOM     19  C   UNL     1       1.668   9.215  18.766  0.00  0.00    +0.000 A 
ATOM     20  N   UNL     1       2.151   8.817  17.583  0.00  0.00    +0.000 NA
ATOM     21  C   UNL     1       2.660   7.563  17.547  0.00  0.00    +0.000 A 
ENDBRANCH   9  16
TORSDOF 2
ENDMDL
MODEL 9
REMARK VINA RESULT:      -7.4      1.564      4.411
REMARK  Name = 
REMARK  2 active torsions:
REMARK  status: ('A' for Active; 'I' for Inactive)
REMARK    1  A    between atoms: C_4  and  C_5
REMARK    2  A    between atoms: C_13  and  C_14
REMARK                            x       y       z     vdW  Elec       q    Type
REMARK                         _______ _______ _______ _____ _____    ______ ____
ROOT
ATOM      1  C   UNL     1       3.568   4.181  18.240  0.00  0.00    +0.000 A 
ATOM      2  N   UNL     1       4.420   3.330  17.576  0.00  0.00    +0.000 NA
ATOM      3  C   UNL     1       5.009   4.061  16.659  0.00  0.00    +0.000 A 
ATOM      4  C   UNL     1       5.959   3.692  15.664  0.00  0.00    +0.000 A 
ATOM      5  C   UNL     1       6.431   4.619  14.809  0.00  0.00    +0.000 A 
ATOM      6  C   UNL     1       6.012   6.009  14.900  0.00  0.00    +0.000 A 
ATOM      7  C   UNL     1       5.134   6.361  15.852  0.00  0.00    +0.000 A 
ATOM      8  N   UNL     1       4.604   5.394  16.722  0.00  0.00    +0.000 N 
ATOM      9  C   UNL     1       3.662   5.489  17.750  0.00  0.00    +0.000 A 
ENDROOT
BRANCH   1  13
ATOM     10  C   UNL     1       1.166   2.718  21.454  0.00  0.00    +0.000 A 
ATOM     11  C   UNL     1       2.553   2.770  21.574  0.00  0.00    +0.000 A 
ATOM     12  C   UNL     1       3.328   3.248  20.514  0.00  0.00    +0.000 A 
ATOM     13  C   UNL     1       2.727   3.672  19.318  0.00  0.00    +0.000 A 
ATOM     14  C   UNL     1       1.336   3.564  19.195  0.00  0.00    +0.000 A 
ATOM     15  C   UNL     1       0.559   3.110  20.265  0.00  0.00    +0.000 A 
ENDBRANCH   1  13
BRANCH   9  16
ATOM     16  C   UNL     1       2.996   6.733  18.175  0.00  0.00    +0.000 A 
ATOM     17  C   UNL     1       2.733   7.791  17.322  0.00  0.00    +0.000 A 
ATOM     18  N   UNL     1       2.109   8.936  17.682  0.00  0.00    +0.000 NA
ATOM     19  C   UNL     1       1.701   8.999  18.957  0.00  0.00    +0.000 A 
ATOM     20  N   UNL     1       1.872   8.044  19.878  0.00  0.00    +0.000 NA
ATOM     21  C   UNL     1       2.526   6.934  19.462  0.00  0.00    +0.000 A 
ENDBRANCH   9  16
TORSDOF 2
ENDMDL
