MODEL 1
REMARK VINA RESULT:      -6.9      0.000      0.000
REMARK  Name = 
REMARK  9 active torsions:
REMARK  status: ('A' for Active; 'I' for Inactive)
REMARK    1  A    between atoms: C_1  and  O_2
REMARK    2  A    between atoms: O_2  and  N_3
REMARK    3  A    between atoms: C_4  and  C_5
REMARK    4  A    between atoms: C_4  and  C_27
REMARK    5  A    between atoms: N_7  and  CA_8
REMARK    6  A    between atoms: CA_12  and  C_13
REMARK    7  A    between atoms: C_16  and  C_17
REMARK    8  A    between atoms: C_17  and  N_18
REMARK    9  A    between atoms: N_18  and  C_19
REMARK                            x       y       z     vdW  Elec       q    Type
REMARK                         _______ _______ _______ _____ _____    ______ ____
ROOT
ATOM      1  CA  UNL     1       1.433   8.301  18.844  0.00  0.00    +0.000 C 
ATOM      2  C   UNL     1       1.607   9.803  18.431  0.00  0.00    +0.000 C 
ATOM      3  O   UNL     1       2.357  10.413  17.713  0.00  0.00    +0.000 OA
ATOM      4  N   UNL     1       0.570  10.129  19.253  0.00  0.00    +0.000 N 
ATOM      5  CA  UNL     1      -0.233  11.189  19.616  0.00  0.00    +0.000 C 
ATOM      6  C   UNL     1      -0.668  11.239  20.911  0.00  0.00    +0.000 C 
ATOM      7  C   UNL     1      -0.047  10.379  22.022  0.00  0.00    +0.000 C 
ATOM      8  S   UNL     1       1.356   9.322  21.569  0.00  0.00    +0.000 S 
ATOM      9  C   UNL     1       0.571   8.886  19.986  0.00  0.00    +0.000 C 
ENDROOT
BRANCH   1  12
ATOM     10  C   UNL     1       2.654   6.148  18.631  0.00  0.00    +0.000 C 
ATOM     11  O   UNL     1       1.856   5.792  17.768  0.00  0.00    +0.000 OA
ATOM     12  N   UNL     1       2.543   7.388  19.268  0.00  0.00    +0.000 N 
ATOM     13  H   UNL     1       3.037   7.529  20.148  0.00  0.00    +0.000 HD
BRANCH  10  15
ATOM     14  N   UNL     1       3.604   4.088  19.737  0.00  0.00    +0.000 NA
ATOM     15  C   UNL     1       3.786   5.208  19.082  0.00  0.00    +0.000 C 
BRANCH  15  16
ATOM     16  C   UNL     1       5.184   5.553  18.847  0.00  0.00    +0.000 A 
ATOM     17  C   UNL     1       5.657   6.171  17.698  0.00  0.00    +0.000 A 
ATOM     18  S   UNL     1       7.355   6.334  17.768  0.00  0.00    +0.000 S 
ATOM     19  C   UNL     1       7.347   5.592  19.308  0.00  0.00    +0.000 A 
ATOM     20  N   UNL     1       8.488   5.350  19.978  0.00  0.00    +0.000 N 
ATOM     21  N   UNL     1       6.171   5.252  19.776  0.00  0.00    +0.000 NA
ATOM     22  H   UNL     1       9.345   5.293  19.442  0.00  0.00    +0.000 HD
ATOM     23  H   UNL     1       8.420   4.668  20.727  0.00  0.00    +0.000 HD
ENDBRANCH  15  16
BRANCH  14  25
ATOM     24  C   UNL     1       2.145   3.732  21.464  0.00  0.00    +0.000 C 
ATOM     25  O   UNL     1       2.270   3.806  20.044  0.00  0.00    +0.000 OA
ENDBRANCH  14  25
ENDBRANCH  10  15
ENDBRANCH   1  12
BRANCH   5  26
ATOM     26  C   UNL     1      -0.708  12.232  18.507  0.00  0.00    +0.000 C 
ATOM     27  O   UNL     1      -1.747  11.887  17.868  0.00  0.00    +0.000 OA
ATOM     28  OXT UNL     1       0.063  13.199  18.291  0.00  0.00    +0.000 OA
ENDBRANCH   5  26
BRANCH   6  29
ATOM     29  C   UNL     1      -1.678  12.248  21.462  0.00  0.00    +0.000 C 
BRANCH  29  30
ATOM     30  N   UNL     1      -1.135  13.622  21.999  0.00  0.00    +0.000 N 
ATOM     31  C   UNL     1       0.344  13.762  21.735  0.00  0.00    +0.000 C 
ATOM     32  C   UNL     1      -1.393  13.814  23.499  0.00  0.00    +0.000 C 
ATOM     33  C   UNL     1      -2.620  14.685  23.644  0.00  0.00    +0.000 C 
ATOM     34  C   UNL     1      -2.828  15.387  22.326  0.00  0.00    +0.000 C 
ATOM     35  C   UNL     1      -1.906  14.750  21.308  0.00  0.00    +0.000 C 
ENDBRANCH  29  30
ENDBRANCH   6  29
TORSDOF 7
ENDMDL
MODEL 2
REMARK VINA RESULT:      -6.9      2.512      3.206
REMARK  Name = 
REMARK  9 active torsions:
REMARK  status: ('A' for Active; 'I' for Inactive)
REMARK    1  A    between atoms: C_1  and  O_2
REMARK    2  A    between atoms: O_2  and  N_3
REMARK    3  A    between atoms: C_4  and  C_5
REMARK    4  A    between atoms: C_4  and  C_27
REMARK    5  A    between atoms: N_7  and  CA_8
REMARK    6  A    between atoms: CA_12  and  C_13
REMARK    7  A    between atoms: C_16  and  C_17
REMARK    8  A    between atoms: C_17  and  N_18
REMARK    9  A    between atoms: N_18  and  C_19
REMARK                            x       y       z     vdW  Elec       q    Type
REMARK                         _______ _______ _______ _____ _____    ______ ____
ROOT
ATOM      1  CA  UNL     1       2.084   8.099  19.906  0.00  0.00    +0.000 C 
ATOM      2  C   UNL     1       0.845   7.994  20.860  0.00  0.00    +0.000 C 
ATOM      3  O   UNL     1       0.286   7.102  21.444  0.00  0.00    +0.000 OA
ATOM      4  N   UNL     1       0.650   9.336  20.722  0.00  0.00    +0.000 N 
ATOM      5  CA  UNL     1      -0.117  10.374  21.205  0.00  0.00    +0.000 C 
ATOM      6  C   UNL     1      -0.438  11.381  20.338  0.00  0.00    +0.000 C 
ATOM      7  C   UNL     1      -0.271  11.241  18.817  0.00  0.00    +0.000 C 
ATOM      8  S   UNL     1       0.313   9.643  18.188  0.00  0.00    +0.000 S 
ATOM      9  C   UNL     1       1.495   9.487  19.563  0.00  0.00    +0.000 C 
ENDROOT
BRANCH   1  12
ATOM     10  C   UNL     1       2.939   5.954  18.990  0.00  0.00    +0.000 C 
ATOM     11  O   UNL     1       3.254   5.606  20.125  0.00  0.00    +0.000 OA
ATOM     12  N   UNL     1       2.354   7.199  18.739  0.00  0.00    +0.000 N 
ATOM     13  H   UNL     1       2.363   7.558  17.785  0.00  0.00    +0.000 HD
BRANCH  10  15
ATOM     14  N   UNL     1       2.403   4.134  17.325  0.00  0.00    +0.000 NA
ATOM     15  C   UNL     1       3.229   5.041  17.785  0.00  0.00    +0.000 C 
BRANCH  15  16
ATOM     16  C   UNL     1       4.513   5.097  17.096  0.00  0.00    +0.000 A 
ATOM     17  C   UNL     1       5.001   4.100  16.263  0.00  0.00    +0.000 A 
ATOM     18  S   UNL     1       6.567   4.501  15.711  0.00  0.00    +0.000 S 
ATOM     19  C   UNL     1       6.487   5.962  16.597  0.00  0.00    +0.000 A 
ATOM     20  N   UNL     1       7.523   6.819  16.633  0.00  0.00    +0.000 N 
ATOM     21  N   UNL     1       5.373   6.176  17.254  0.00  0.00    +0.000 NA
ATOM     22  H   UNL     1       8.444   6.452  16.428  0.00  0.00    +0.000 HD
ATOM     23  H   UNL     1       7.504   7.497  17.389  0.00  0.00    +0.000 HD
ENDBRANCH  15  16
BRANCH  14  25
ATOM     24  C   UNL     1       1.154   2.705  18.603  0.00  0.00    +0.000 C 
ATOM     25  O   UNL     1       1.210   4.018  18.045  0.00  0.00    +0.000 OA
ENDBRANCH  14  25
ENDBRANCH  10  15
ENDBRANCH   1  12
BRANCH   5  26
ATOM     26  C   UNL     1      -0.497  10.419  22.754  0.00  0.00    +0.000 C 
ATOM     27  O   UNL     1      -1.586  11.013  23.014  0.00  0.00    +0.000 OA
ATOM     28  OXT UNL     1       0.377   9.995  23.549  0.00  0.00    +0.000 OA
ENDBRANCH   5  26
BRANCH   6  29
ATOM     29  C   UNL     1      -1.151  12.680  20.721  0.00  0.00    +0.000 C 
BRANCH  29  30
ATOM     30  N   UNL     1      -0.268  13.920  21.118  0.00  0.00    +0.000 N 
ATOM     31  C   UNL     1      -0.523  14.333  22.547  0.00  0.00    +0.000 C 
ATOM     32  C   UNL     1      -0.500  15.128  20.202  0.00  0.00    +0.000 C 
ATOM     33  C   UNL     1       0.616  15.151  19.183  0.00  0.00    +0.000 C 
ATOM     34  C   UNL     1       1.734  14.296  19.726  0.00  0.00    +0.000 C 
ATOM     35  C   UNL     1       1.205  13.544  20.928  0.00  0.00    +0.000 C 
ENDBRANCH  29  30
ENDBRANCH   6  29
TORSDOF 7
ENDMDL
MODEL 3
REMARK VINA RESULT:      -6.8      0.430      1.190
REMARK  Name = 
REMARK  9 active torsions:
REMARK  status: ('A' for Active; 'I' for Inactive)
REMARK    1  A    between atoms: C_1  and  O_2
REMARK    2  A    between atoms: O_2  and  N_3
REMARK    3  A    between atoms: C_4  and  C_5
REMARK    4  A    between atoms: C_4  and  C_27
REMARK    5  A    between atoms: N_7  and  CA_8
REMARK    6  A    between atoms: CA_12  and  C_13
REMARK    7  A    between atoms: C_16  and  C_17
REMARK    8  A    between atoms: C_17  and  N_18
REMARK    9  A    between atoms: N_18  and  C_19
REMARK                            x       y       z     vdW  Elec       q    Type
REMARK                         _______ _______ _______ _____ _____    ______ ____
ROOT
ATOM      1  CA  UNL     1       1.392   8.413  18.855  0.00  0.00    +0.000 C 
ATOM      2  C   UNL     1       1.578   9.904  18.410  0.00  0.00    +0.000 C 
ATOM      3  O   UNL     1       2.345  10.496  17.695  0.00  0.00    +0.000 OA
ATOM      4  N   UNL     1       0.524  10.252  19.201  0.00  0.00    +0.000 N 
ATOM      5  CA  UNL     1      -0.284  11.322  19.520  0.00  0.00    +0.000 C 
ATOM      6  C   UNL     1      -0.749  11.403  20.803  0.00  0.00    +0.000 C 
ATOM      7  C   UNL     1      -0.155  10.569  21.948  0.00  0.00    +0.000 C 
ATOM      8  S   UNL     1       1.255   9.498  21.552  0.00  0.00    +0.000 S 
ATOM      9  C   UNL     1       0.505   9.027  19.962  0.00  0.00    +0.000 C 
ENDROOT
BRANCH   1  12
ATOM     10  C   UNL     1       2.615   6.256  18.715  0.00  0.00    +0.000 C 
ATOM     11  O   UNL     1       1.839   5.883  17.839  0.00  0.00    +0.000 OA
ATOM     12  N   UNL     1       2.489   7.508  19.325  0.00  0.00    +0.000 N 
ATOM     13  H   UNL     1       2.960   7.666  20.214  0.00  0.00    +0.000 HD
BRANCH  10  15
ATOM     14  N   UNL     1       3.543   4.276  19.976  0.00  0.00    +0.000 NA
ATOM     15  C   UNL     1       3.734   5.324  19.215  0.00  0.00    +0.000 C 
BRANCH  15  16
ATOM     16  C   UNL     1       5.132   5.600  18.902  0.00  0.00    +0.000 A 
ATOM     17  C   UNL     1       5.574   6.159  17.712  0.00  0.00    +0.000 A 
ATOM     18  S   UNL     1       7.280   6.251  17.695  0.00  0.00    +0.000 S 
ATOM     19  C   UNL     1       7.315   5.559  19.259  0.00  0.00    +0.000 A 
ATOM     20  N   UNL     1       8.476   5.289  19.882  0.00  0.00    +0.000 N 
ATOM     21  N   UNL     1       6.150   5.286  19.793  0.00  0.00    +0.000 NA
ATOM     22  H   UNL     1       9.303   5.178  19.309  0.00  0.00    +0.000 HD
ATOM     23  H   UNL     1       8.416   4.635  20.657  0.00  0.00    +0.000 HD
ENDBRANCH  15  16
BRANCH  14  25
ATOM     24  C   UNL     1       2.205   3.307  21.560  0.00  0.00    +0.000 C 
ATOM     25  O   UNL     1       2.213   4.068  20.351  0.00  0.00    +0.000 OA
ENDBRANCH  14  25
ENDBRANCH  10  15
ENDBRANCH   1  12
BRANCH   5  26
ATOM     26  C   UNL     1      -0.732  12.340  18.376  0.00  0.00    +0.000 C 
ATOM     27  O   UNL     1      -1.788  12.009  17.758  0.00  0.00    +0.000 OA
ATOM     28  OXT UNL     1       0.071  13.269  18.119  0.00  0.00    +0.000 OA
ENDBRANCH   5  26
BRANCH   6  29
ATOM     29  C   UNL     1      -1.769  12.427  21.307  0.00  0.00    +0.000 C 
BRANCH  29  30
ATOM     30  N   UNL     1      -1.232  13.696  22.065  0.00  0.00    +0.000 N 
ATOM     31  C   UNL     1      -1.480  13.587  23.550  0.00  0.00    +0.000 C 
ATOM     32  C   UNL     1      -1.856  15.000  21.551  0.00  0.00    +0.000 C 
ATOM     33  C   UNL     1      -0.870  15.633  20.596  0.00  0.00    +0.000 C 
ATOM     34  C   UNL     1       0.477  15.012  20.869  0.00  0.00    +0.000 C 
ATOM     35  C   UNL     1       0.268  13.826  21.786  0.00  0.00    +0.000 C 
ENDBRANCH  29  30
ENDBRANCH   6  29
TORSDOF 7
ENDMDL
MODEL 4
REMARK VINA RESULT:      -6.7      2.488      3.237
REMARK  Name = 
REMARK  9 active torsions:
REMARK  status: ('A' for Active; 'I' for Inactive)
REMARK    1  A    between atoms: C_1  and  O_2
REMARK    2  A    between atoms: O_2  and  N_3
REMARK    3  A    between atoms: C_4  and  C_5
REMARK    4  A    between atoms: C_4  and  C_27
REMARK    5  A    between atoms: N_7  and  CA_8
REMARK    6  A    between atoms: CA_12  and  C_13
REMARK    7  A    between atoms: C_16  and  C_17
REMARK    8  A    between atoms: C_17  and  N_18
REMARK    9  A    between atoms: N_18  and  C_19
REMARK                            x       y       z     vdW  Elec       q    Type
REMARK                         _______ _______ _______ _____ _____    ______ ____
ROOT
ATOM      1  CA  UNL     1       1.564   8.395  20.384  0.00  0.00    +0.000 C 
ATOM      2  C   UNL     1       0.182   8.536  21.111  0.00  0.00    +0.000 C 
ATOM      3  O   UNL     1      -0.594   7.777  21.632  0.00  0.00    +0.000 OA
ATOM      4  N   UNL     1       0.217   9.878  20.875  0.00  0.00    +0.000 N 
ATOM      5  CA  UNL     1      -0.454  11.046  21.163  0.00  0.00    +0.000 C 
ATOM      6  C   UNL     1      -0.471  12.020  20.204  0.00  0.00    +0.000 C 
ATOM      7  C   UNL     1      -0.077  11.745  18.745  0.00  0.00    +0.000 C 
ATOM      8  S   UNL     1       0.356  10.039  18.309  0.00  0.00    +0.000 S 
ATOM      9  C   UNL     1       1.256   9.821  19.876  0.00  0.00    +0.000 C 
ENDROOT
BRANCH   1  12
ATOM     10  C   UNL     1       2.268   6.101  19.742  0.00  0.00    +0.000 C 
ATOM     11  O   UNL     1       2.370   5.809  20.931  0.00  0.00    +0.000 OA
ATOM     12  N   UNL     1       1.886   7.381  19.329  0.00  0.00    +0.000 N 
ATOM     13  H   UNL     1       2.078   7.660  18.368  0.00  0.00    +0.000 HD
BRANCH  10  15
ATOM     14  N   UNL     1       1.941   3.966  18.435  0.00  0.00    +0.000 NA
ATOM     15  C   UNL     1       2.613   5.069  18.653  0.00  0.00    +0.000 C 
BRANCH  15  16
ATOM     16  C   UNL     1       3.788   5.241  17.805  0.00  0.00    +0.000 A 
ATOM     17  C   UNL     1       4.288   4.268  16.951  0.00  0.00    +0.000 A 
ATOM     18  S   UNL     1       5.715   4.820  16.192  0.00  0.00    +0.000 S 
ATOM     19  C   UNL     1       5.568   6.303  17.033  0.00  0.00    +0.000 A 
ATOM     20  N   UNL     1       6.489   7.274  16.910  0.00  0.00    +0.000 N 
ATOM     21  N   UNL     1       4.525   6.417  17.818  0.00  0.00    +0.000 NA
ATOM     22  H   UNL     1       7.416   7.007  16.602  0.00  0.00    +0.000 HD
ATOM     23  H   UNL     1       6.482   7.981  17.639  0.00  0.00    +0.000 HD
ENDBRANCH  15  16
BRANCH  14  25
ATOM     24  C   UNL     1       1.168   2.615  20.114  0.00  0.00    +0.000 C 
ATOM     25  O   UNL     1       0.871   3.758  19.310  0.00  0.00    +0.000 OA
ENDBRANCH  14  25
ENDBRANCH  10  15
ENDBRANCH   1  12
BRANCH   5  26
ATOM     26  C   UNL     1      -1.075  11.259  22.618  0.00  0.00    +0.000 C 
ATOM     27  O   UNL     1      -0.381  10.779  23.563  0.00  0.00    +0.000 OA
ATOM     28  OXT UNL     1      -2.230  11.747  22.659  0.00  0.00    +0.000 OA
ENDBRANCH   5  26
BRANCH   6  29
ATOM     29  C   UNL     1      -1.034  13.431  20.392  0.00  0.00    +0.000 C 
BRANCH  29  30
ATOM     30  N   UNL     1      -0.072  14.544  20.948  0.00  0.00    +0.000 N 
ATOM     31  C   UNL     1      -0.440  14.922  22.362  0.00  0.00    +0.000 C 
ATOM     32  C   UNL     1      -0.067  15.809  20.081  0.00  0.00    +0.000 C 
ATOM     33  C   UNL     1       1.153  15.748  19.190  0.00  0.00    +0.000 C 
ATOM     34  C   UNL     1       2.103  14.749  19.802  0.00  0.00    +0.000 C 
ATOM     35  C   UNL     1       1.363  14.012  20.898  0.00  0.00    +0.000 C 
ENDBRANCH  29  30
ENDBRANCH   6  29
TORSDOF 7
ENDMDL
MODEL 5
REMARK VINA RESULT:      -6.7      2.517      3.054
REMARK  Name = 
REMARK  9 active torsions:
REMARK  status: ('A' for Active; 'I' for Inactive)
REMARK    1  A    between atoms: C_1  and  O_2
REMARK    2  A    between atoms: O_2  and  N_3
REMARK    3  A    between atoms: C_4  and  C_5
REMARK    4  A    between atoms: C_4  and  C_27
REMARK    5  A    between atoms: N_7  and  CA_8
REMARK    6  A    between atoms: CA_12  and  C_13
REMARK    7  A    between atoms: C_16  and  C_17
REMARK    8  A    between atoms: C_17  and  N_18
REMARK    9  A    between atoms: N_18  and  C_19
REMARK                            x       y       z     vdW  Elec       q    Type
REMARK                         _______ _______ _______ _____ _____    ______ ____
ROOT
ATOM      1  CA  UNL     1       1.471   8.540  20.360  0.00  0.00    +0.000 C 
ATOM      2  C   UNL     1       0.107   8.697  21.116  0.00  0.00    +0.000 C 
ATOM      3  O   UNL     1      -0.631   7.959  21.716  0.00  0.00    +0.000 OA
ATOM      4  N   UNL     1       0.093  10.018  20.778  0.00  0.00    +0.000 N 
ATOM      5  CA  UNL     1      -0.605  11.185  20.997  0.00  0.00    +0.000 C 
ATOM      6  C   UNL     1      -0.679  12.082  19.968  0.00  0.00    +0.000 C 
ATOM      7  C   UNL     1      -0.318  11.707  18.523  0.00  0.00    +0.000 C 
ATOM      8  S   UNL     1       0.154   9.985  18.204  0.00  0.00    +0.000 S 
ATOM      9  C   UNL     1       1.105   9.915  19.754  0.00  0.00    +0.000 C 
ENDROOT
BRANCH   1  12
ATOM     10  C   UNL     1       2.159   6.204  19.873  0.00  0.00    +0.000 C 
ATOM     11  O   UNL     1       2.248   5.988  21.079  0.00  0.00    +0.000 OA
ATOM     12  N   UNL     1       1.793   7.459  19.375  0.00  0.00    +0.000 N 
ATOM     13  H   UNL     1       1.996   7.673  18.400  0.00  0.00    +0.000 HD
BRANCH  10  15
ATOM     14  N   UNL     1       1.867   3.962  18.750  0.00  0.00    +0.000 NA
ATOM     15  C   UNL     1       2.505   5.101  18.856  0.00  0.00    +0.000 C 
BRANCH  15  16
ATOM     16  C   UNL     1       3.643   5.245  17.955  0.00  0.00    +0.000 A 
ATOM     17  C   UNL     1       4.084   4.258  17.085  0.00  0.00    +0.000 A 
ATOM     18  S   UNL     1       5.487   4.778  16.259  0.00  0.00    +0.000 S 
ATOM     19  C   UNL     1       5.407   6.267  17.097  0.00  0.00    +0.000 A 
ATOM     20  N   UNL     1       6.341   7.220  16.926  0.00  0.00    +0.000 N 
ATOM     21  N   UNL     1       4.403   6.407  17.927  0.00  0.00    +0.000 NA
ATOM     22  H   UNL     1       7.247   6.933  16.578  0.00  0.00    +0.000 HD
ATOM     23  H   UNL     1       6.380   7.930  17.651  0.00  0.00    +0.000 HD
ENDBRANCH  15  16
BRANCH  14  25
ATOM     24  C   UNL     1       1.200   2.721  20.554  0.00  0.00    +0.000 C 
ATOM     25  O   UNL     1       0.836   3.788  19.678  0.00  0.00    +0.000 OA
ENDBRANCH  14  25
ENDBRANCH  10  15
ENDBRANCH   1  12
BRANCH   5  26
ATOM     26  C   UNL     1      -1.190  11.492  22.450  0.00  0.00    +0.000 C 
ATOM     27  O   UNL     1      -0.445  11.125  23.407  0.00  0.00    +0.000 OA
ATOM     28  OXT UNL     1      -2.366  11.928  22.491  0.00  0.00    +0.000 OA
ENDBRANCH   5  26
BRANCH   6  29
ATOM     29  C   UNL     1      -1.279  13.487  20.065  0.00  0.00    +0.000 C 
BRANCH  29  30
ATOM     30  N   UNL     1      -0.297  14.699  20.263  0.00  0.00    +0.000 N 
ATOM     31  C   UNL     1       0.962  14.268  20.973  0.00  0.00    +0.000 C 
ATOM     32  C   UNL     1      -0.937  15.857  21.041  0.00  0.00    +0.000 C 
ATOM     33  C   UNL     1      -1.389  16.889  20.034  0.00  0.00    +0.000 C 
ATOM     34  C   UNL     1      -0.648  16.616  18.750  0.00  0.00    +0.000 C 
ATOM     35  C   UNL     1       0.042  15.276  18.885  0.00  0.00    +0.000 C 
ENDBRANCH  29  30
ENDBRANCH   6  29
TORSDOF 7
ENDMDL
MODEL 6
REMARK VINA RESULT:      -6.7      1.047      1.084
REMARK  Name = 
REMARK  9 active torsions:
REMARK  status: ('A' for Active; 'I' for Inactive)
REMARK    1  A    between atoms: C_1  and  O_2
REMARK    2  A    between atoms: O_2  and  N_3
REMARK    3  A    between atoms: C_4  and  C_5
REMARK    4  A    between atoms: C_4  and  C_27
REMARK    5  A    between atoms: N_7  and  CA_8
REMARK    6  A    between atoms: CA_12  and  C_13
REMARK    7  A    between atoms: C_16  and  C_17
REMARK    8  A    between atoms: C_17  and  N_18
REMARK    9  A    between atoms: N_18  and  C_19
REMARK                            x       y       z     vdW  Elec       q    Type
REMARK                         _______ _______ _______ _____ _____    ______ ____
ROOT
ATOM      1  CA  UNL     1       1.491   8.667  18.673  0.00  0.00    +0.000 C 
ATOM      2  C   UNL     1       1.673  10.201  18.410  0.00  0.00    +0.000 C 
ATOM      3  O   UNL     1       2.478  10.882  17.829  0.00  0.00    +0.000 OA
ATOM      4  N   UNL     1       0.551  10.441  19.147  0.00  0.00    +0.000 N 
ATOM      5  CA  UNL     1      -0.307  11.454  19.515  0.00  0.00    +0.000 C 
ATOM      6  C   UNL     1      -0.873  11.384  20.758  0.00  0.00    +0.000 C 
ATOM      7  C   UNL     1      -0.349  10.437  21.848  0.00  0.00    +0.000 C 
ATOM      8  S   UNL     1       1.115   9.443  21.453  0.00  0.00    +0.000 S 
ATOM      9  C   UNL     1       0.504   9.138  19.765  0.00  0.00    +0.000 C 
ENDROOT
BRANCH   1  12
ATOM     10  C   UNL     1       2.603   6.447  18.581  0.00  0.00    +0.000 C 
ATOM     11  O   UNL     1       1.760   6.069  17.771  0.00  0.00    +0.000 OA
ATOM     12  N   UNL     1       2.571   7.734  19.128  0.00  0.00    +0.000 N 
ATOM     13  H   UNL     1       3.102   7.914  19.979  0.00  0.00    +0.000 HD
BRANCH  10  15
ATOM     14  N   UNL     1       3.589   4.680  20.089  0.00  0.00    +0.000 NA
ATOM     15  C   UNL     1       3.706   5.489  19.065  0.00  0.00    +0.000 C 
BRANCH  15  16
ATOM     16  C   UNL     1       5.014   5.467  18.422  0.00  0.00    +0.000 A 
ATOM     17  C   UNL     1       5.851   4.361  18.381  0.00  0.00    +0.000 A 
ATOM     18  S   UNL     1       7.322   4.756  17.609  0.00  0.00    +0.000 S 
ATOM     19  C   UNL     1       6.750   6.350  17.373  0.00  0.00    +0.000 A 
ATOM     20  N   UNL     1       7.516   7.294  16.796  0.00  0.00    +0.000 N 
ATOM     21  N   UNL     1       5.540   6.598  17.810  0.00  0.00    +0.000 NA
ATOM     22  H   UNL     1       8.520   7.160  16.815  0.00  0.00    +0.000 HD
ATOM     23  H   UNL     1       7.222   8.253  16.952  0.00  0.00    +0.000 HD
ENDBRANCH  15  16
BRANCH  14  25
ATOM     24  C   UNL     1       2.209   3.594  21.557  0.00  0.00    +0.000 C 
ATOM     25  O   UNL     1       2.366   4.770  20.762  0.00  0.00    +0.000 OA
ENDBRANCH  14  25
ENDBRANCH  10  15
ENDBRANCH   1  12
BRANCH   5  26
ATOM     26  C   UNL     1      -0.690  12.585  18.457  0.00  0.00    +0.000 C 
ATOM     27  O   UNL     1      -1.598  12.256  17.637  0.00  0.00    +0.000 OA
ATOM     28  OXT UNL     1       0.033  13.611  18.459  0.00  0.00    +0.000 OA
ENDBRANCH   5  26
BRANCH   6  29
ATOM     29  C   UNL     1      -1.956  12.328  21.287  0.00  0.00    +0.000 C 
BRANCH  29  30
ATOM     30  N   UNL     1      -1.500  13.625  22.049  0.00  0.00    +0.000 N 
ATOM     31  C   UNL     1      -0.007  13.817  21.950  0.00  0.00    +0.000 C 
ATOM     32  C   UNL     1      -1.903  13.612  23.530  0.00  0.00    +0.000 C 
ATOM     33  C   UNL     1      -3.159  14.442  23.669  0.00  0.00    +0.000 C 
ATOM     34  C   UNL     1      -3.259  15.309  22.440  0.00  0.00    +0.000 C 
ATOM     35  C   UNL     1      -2.231  14.825  21.440  0.00  0.00    +0.000 C 
ENDBRANCH  29  30
ENDBRANCH   6  29
TORSDOF 7
ENDMDL
MODEL 7
REMARK VINA RESULT:      -6.7      2.529      2.954
REMARK  Name = 
REMARK  9 active torsions:
REMARK  status: ('A' for Active; 'I' for Inactive)
REMARK    1  A    between atoms: C_1  and  O_2
REMARK    2  A    between atoms: O_2  and  N_3
REMARK    3  A    between atoms: C_4  and  C_5
REMARK    4  A    between atoms: C_4  and  C_27
REMARK    5  A    between atoms: N_7  and  CA_8
REMARK    6  A    between atoms: CA_12  and  C_13
REMARK    7  A    between atoms: C_16  and  C_17
REMARK    8  A    between atoms: C_17  and  N_18
REMARK    9  A    between atoms: N_18  and  C_19
REMARK                            x       y       z     vdW  Elec       q    Type
REMARK                         _______ _______ _______ _____ _____    ______ ____
ROOT
ATOM      1  CA  UNL     1       2.117   8.055  19.874  0.00  0.00    +0.000 C 
ATOM      2  C   UNL     1       0.890   7.954  20.844  0.00  0.00    +0.000 C 
ATOM      3  O   UNL     1       0.332   7.062  21.430  0.00  0.00    +0.000 OA
ATOM      4  N   UNL     1       0.703   9.298  20.717  0.00  0.00    +0.000 N 
ATOM      5  CA  UNL     1      -0.051  10.339  21.215  0.00  0.00    +0.000 C 
ATOM      6  C   UNL     1      -0.375  11.353  20.358  0.00  0.00    +0.000 C 
ATOM      7  C   UNL     1      -0.229  11.221  18.835  0.00  0.00    +0.000 C 
ATOM      8  S   UNL     1       0.335   9.623  18.189  0.00  0.00    +0.000 S 
ATOM      9  C   UNL     1       1.534   9.449  19.547  0.00  0.00    +0.000 C 
ENDROOT
BRANCH   1  12
ATOM     10  C   UNL     1       2.917   5.898  18.938  0.00  0.00    +0.000 C 
ATOM     11  O   UNL     1       3.222   5.531  20.070  0.00  0.00    +0.000 OA
ATOM     12  N   UNL     1       2.365   7.161  18.699  0.00  0.00    +0.000 N 
ATOM     13  H   UNL     1       2.386   7.528  17.749  0.00  0.00    +0.000 HD
BRANCH  10  15
ATOM     14  N   UNL     1       2.344   4.098  17.264  0.00  0.00    +0.000 NA
ATOM     15  C   UNL     1       3.185   4.990  17.724  0.00  0.00    +0.000 C 
BRANCH  15  16
ATOM     16  C   UNL     1       4.465   5.034  17.025  0.00  0.00    +0.000 A 
ATOM     17  C   UNL     1       4.930   4.039  16.178  0.00  0.00    +0.000 A 
ATOM     18  S   UNL     1       6.498   4.421  15.617  0.00  0.00    +0.000 S 
ATOM     19  C   UNL     1       6.448   5.873  16.520  0.00  0.00    +0.000 A 
ATOM     20  N   UNL     1       7.497   6.714  16.558  0.00  0.00    +0.000 N 
ATOM     21  N   UNL     1       5.343   6.097  17.188  0.00  0.00    +0.000 NA
ATOM     22  H   UNL     1       8.411   6.335  16.341  0.00  0.00    +0.000 HD
ATOM     23  H   UNL     1       7.496   7.383  17.321  0.00  0.00    +0.000 HD
ENDBRANCH  15  16
BRANCH  14  25
ATOM     24  C   UNL     1       1.114   2.696  18.592  0.00  0.00    +0.000 C 
ATOM     25  O   UNL     1       1.156   3.992  17.993  0.00  0.00    +0.000 OA
ENDBRANCH  14  25
ENDBRANCH  10  15
ENDBRANCH   1  12
BRANCH   5  26
ATOM     26  C   UNL     1      -0.410  10.377  22.769  0.00  0.00    +0.000 C 
ATOM     27  O   UNL     1       0.480   9.891  23.529  0.00  0.00    +0.000 OA
ATOM     28  OXT UNL     1      -1.573  10.750  23.058  0.00  0.00    +0.000 OA
ENDBRANCH   5  26
BRANCH   6  29
ATOM     29  C   UNL     1      -1.073  12.655  20.758  0.00  0.00    +0.000 C 
BRANCH  29  30
ATOM     30  N   UNL     1      -0.196  13.952  20.901  0.00  0.00    +0.000 N 
ATOM     31  C   UNL     1       1.270  13.608  21.009  0.00  0.00    +0.000 C 
ATOM     32  C   UNL     1      -0.596  14.806  22.111  0.00  0.00    +0.000 C 
ATOM     33  C   UNL     1      -1.477  15.927  21.608  0.00  0.00    +0.000 C 
ATOM     34  C   UNL     1      -1.245  16.044  20.123  0.00  0.00    +0.000 C 
ATOM     35  C   UNL     1      -0.443  14.841  19.678  0.00  0.00    +0.000 C 
ENDBRANCH  29  30
ENDBRANCH   6  29
TORSDOF 7
ENDMDL
MODEL 8
REMARK VINA RESULT:      -6.6      2.336      2.855
REMARK  Name = 
REMARK  9 active torsions:
REMARK  status: ('A' for Active; 'I' for Inactive)
REMARK    1  A    between atoms: C_1  and  O_2
REMARK    2  A    between atoms: O_2  and  N_3
REMARK    3  A    between atoms: C_4  and  C_5
REMARK    4  A    between atoms: C_4  and  C_27
REMARK    5  A    between atoms: N_7  and  CA_8
REMARK    6  A    between atoms: CA_12  and  C_13
REMARK    7  A    between atoms: C_16  and  C_17
REMARK    8  A    between atoms: C_17  and  N_18
REMARK    9  A    between atoms: N_18  and  C_19
REMARK                            x       y       z     vdW  Elec       q    Type
REMARK                         _______ _______ _______ _____ _____    ______ ____
ROOT
ATOM      1  CA  UNL     1       1.487   8.651  20.517  0.00  0.00    +0.000 C 
ATOM      2  C   UNL     1       0.064   8.773  21.162  0.00  0.00    +0.000 C 
ATOM      3  O   UNL     1      -0.700   8.015  21.702  0.00  0.00    +0.000 OA
ATOM      4  N   UNL     1       0.045  10.093  20.824  0.00  0.00    +0.000 N 
ATOM      5  CA  UNL     1      -0.698  11.243  20.987  0.00  0.00    +0.000 C 
ATOM      6  C   UNL     1      -0.713  12.139  19.955  0.00  0.00    +0.000 C 
ATOM      7  C   UNL     1      -0.229  11.775  18.543  0.00  0.00    +0.000 C 
ATOM      8  S   UNL     1       0.310  10.066  18.262  0.00  0.00    +0.000 S 
ATOM      9  C   UNL     1       1.136  10.017  19.883  0.00  0.00    +0.000 C 
ENDROOT
BRANCH   1  12
ATOM     10  C   UNL     1       2.266   6.332  20.086  0.00  0.00    +0.000 C 
ATOM     11  O   UNL     1       2.261   6.116  21.295  0.00  0.00    +0.000 OA
ATOM     12  N   UNL     1       1.913   7.579  19.561  0.00  0.00    +0.000 N 
ATOM     13  H   UNL     1       2.190   7.801  18.606  0.00  0.00    +0.000 HD
BRANCH  10  15
ATOM     14  N   UNL     1       2.062   4.131  18.867  0.00  0.00    +0.000 NA
ATOM     15  C   UNL     1       2.719   5.240  19.100  0.00  0.00    +0.000 C 
BRANCH  15  16
ATOM     16  C   UNL     1       3.984   5.357  18.383  0.00  0.00    +0.000 A 
ATOM     17  C   UNL     1       4.162   6.094  17.221  0.00  0.00    +0.000 A 
ATOM     18  S   UNL     1       5.760   5.919  16.645  0.00  0.00    +0.000 S 
ATOM     19  C   UNL     1       6.108   4.896  17.971  0.00  0.00    +0.000 A 
ATOM     20  N   UNL     1       7.312   4.314  18.113  0.00  0.00    +0.000 N 
ATOM     21  N   UNL     1       5.126   4.695  18.815  0.00  0.00    +0.000 NA
ATOM     22  H   UNL     1       7.883   4.207  17.283  0.00  0.00    +0.000 HD
ATOM     23  H   UNL     1       7.343   3.520  18.744  0.00  0.00    +0.000 HD
ENDBRANCH  15  16
BRANCH  14  25
ATOM     24  C   UNL     1       1.097   2.897  20.536  0.00  0.00    +0.000 C 
ATOM     25  O   UNL     1       0.897   3.978  19.625  0.00  0.00    +0.000 OA
ENDBRANCH  14  25
ENDBRANCH  10  15
ENDBRANCH   1  12
BRANCH   5  26
ATOM     26  C   UNL     1      -1.403  11.532  22.388  0.00  0.00    +0.000 C 
ATOM     27  O   UNL     1      -2.607  11.917  22.304  0.00  0.00    +0.000 OA
ATOM     28  OXT UNL     1      -0.661  11.486  23.399  0.00  0.00    +0.000 OA
ENDBRANCH   5  26
BRANCH   6  29
ATOM     29  C   UNL     1      -1.353  13.528  20.003  0.00  0.00    +0.000 C 
BRANCH  29  30
ATOM     30  N   UNL     1      -0.422  14.763  20.287  0.00  0.00    +0.000 N 
ATOM     31  C   UNL     1       0.750  14.373  21.154  0.00  0.00    +0.000 C 
ATOM     32  C   UNL     1      -1.169  15.926  20.954  0.00  0.00    +0.000 C 
ATOM     33  C   UNL     1      -1.514  16.926  19.875  0.00  0.00    +0.000 C 
ATOM     34  C   UNL     1      -0.619  16.638  18.696  0.00  0.00    +0.000 C 
ATOM     35  C   UNL     1       0.071  15.315  18.946  0.00  0.00    +0.000 C 
ENDBRANCH  29  30
ENDBRANCH   6  29
TORSDOF 7
ENDMDL
MODEL 9
REMARK VINA RESULT:      -6.6      2.552      3.118
REMARK  Name = 
REMARK  9 active torsions:
REMARK  status: ('A' for Active; 'I' for Inactive)
REMARK    1  A    between atoms: C_1  and  O_2
REMARK    2  A    between atoms: O_2  and  N_3
REMARK    3  A    between atoms: C_4  and  C_5
REMARK    4  A    between atoms: C_4  and  C_27
REMARK    5  A    between atoms: N_7  and  CA_8
REMARK    6  A    between atoms: CA_12  and  C_13
REMARK    7  A    between atoms: C_16  and  C_17
REMARK    8  A    between atoms: C_17  and  N_18
REMARK    9  A    between atoms: N_18  and  C_19
REMARK                            x       y       z     vdW  Elec       q    Type
REMARK                         _______ _______ _______ _____ _____    ______ ____
ROOT
ATOM      1  CA  UNL     1       1.454   8.636  20.471  0.00  0.00    +0.000 C 
ATOM      2  C   UNL     1       0.061   8.821  21.166  0.00  0.00    +0.000 C 
ATOM      3  O   UNL     1      -0.692   8.109  21.779  0.00  0.00    +0.000 OA
ATOM      4  N   UNL     1       0.051  10.121  20.756  0.00  0.00    +0.000 N 
ATOM      5  CA  UNL     1      -0.665  11.291  20.886  0.00  0.00    +0.000 C 
ATOM      6  C   UNL     1      -0.707  12.130  19.807  0.00  0.00    +0.000 C 
ATOM      7  C   UNL     1      -0.290  11.681  18.399  0.00  0.00    +0.000 C 
ATOM      8  S   UNL     1       0.207   9.949  18.192  0.00  0.00    +0.000 S 
ATOM      9  C   UNL     1       1.100   9.971  19.778  0.00  0.00    +0.000 C 
ENDROOT
BRANCH   1  12
ATOM     10  C   UNL     1       2.142   6.272  20.137  0.00  0.00    +0.000 C 
ATOM     11  O   UNL     1       2.156   6.114  21.355  0.00  0.00    +0.000 OA
ATOM     12  N   UNL     1       1.820   7.505  19.559  0.00  0.00    +0.000 N 
ATOM     13  H   UNL     1       2.084   7.672  18.589  0.00  0.00    +0.000 HD
BRANCH  10  15
ATOM     14  N   UNL     1       1.880   3.989  19.093  0.00  0.00    +0.000 NA
ATOM     15  C   UNL     1       2.534   5.119  19.195  0.00  0.00    +0.000 C 
BRANCH  15  16
ATOM     16  C   UNL     1       3.735   5.201  18.372  0.00  0.00    +0.000 A 
ATOM     17  C   UNL     1       4.897   4.478  18.605  0.00  0.00    +0.000 A 
ATOM     18  S   UNL     1       6.102   4.908  17.474  0.00  0.00    +0.000 S 
ATOM     19  C   UNL     1       5.008   6.006  16.751  0.00  0.00    +0.000 A 
ATOM     20  N   UNL     1       5.374   6.787  15.719  0.00  0.00    +0.000 N 
ATOM     21  N   UNL     1       3.810   6.057  17.282  0.00  0.00    +0.000 NA
ATOM     22  H   UNL     1       6.362   6.970  15.596  0.00  0.00    +0.000 HD
ATOM     23  H   UNL     1       4.778   7.590  15.543  0.00  0.00    +0.000 HD
ENDBRANCH  15  16
BRANCH  14  25
ATOM     24  C   UNL     1       1.078   2.872  20.923  0.00  0.00    +0.000 C 
ATOM     25  O   UNL     1       0.782   3.876  19.951  0.00  0.00    +0.000 OA
ENDBRANCH  14  25
ENDBRANCH  10  15
ENDBRANCH   1  12
BRANCH   5  26
ATOM     26  C   UNL     1      -1.305  11.671  22.297  0.00  0.00    +0.000 C 
ATOM     27  O   UNL     1      -0.526  11.529  23.286  0.00  0.00    +0.000 OA
ATOM     28  OXT UNL     1      -2.533  11.930  22.294  0.00  0.00    +0.000 OA
ENDBRANCH   5  26
BRANCH   6  29
ATOM     29  C   UNL     1      -1.321  13.532  19.805  0.00  0.00    +0.000 C 
BRANCH  29  30
ATOM     30  N   UNL     1      -0.362  14.761  20.016  0.00  0.00    +0.000 N 
ATOM     31  C   UNL     1      -0.383  15.679  18.819  0.00  0.00    +0.000 C 
ATOM     32  C   UNL     1       1.086  14.339  20.295  0.00  0.00    +0.000 C 
ATOM     33  C   UNL     1       1.303  14.409  21.789  0.00  0.00    +0.000 C 
ATOM     34  C   UNL     1       0.211  15.279  22.359  0.00  0.00    +0.000 C 
ATOM     35  C   UNL     1      -0.813  15.515  21.271  0.00  0.00    +0.000 C 
ENDBRANCH  29  30
ENDBRANCH   6  29
TORSDOF 7
ENDMDL
