MODEL 1
REMARK VINA RESULT:      -7.2      0.000      0.000
REMARK  Name = 
REMARK  7 active torsions:
REMARK  status: ('A' for Active; 'I' for Inactive)
REMARK    1  A    between atoms: C_1  and  O_2
REMARK    2  A    between atoms: O_2  and  C_3
REMARK    3  A    between atoms: C_5  and  C_6
REMARK    4  A    between atoms: C_11  and  O_12
REMARK    5  A    between atoms: C_25  and  O_26
REMARK    6  A    between atoms: O_26  and  C_27
REMARK    7  A    between atoms: C_28  and  O_29
REMARK                            x       y       z     vdW  Elec       q    Type
REMARK                         _______ _______ _______ _____ _____    ______ ____
ROOT
ATOM      1  C   UNL     1      -0.980  12.290  21.069  0.00  0.00    +0.000 C 
ATOM      2  C   UNL     1      -1.647  11.995  19.567  0.00  0.00    +0.000 A 
ATOM      3  C   UNL     1      -2.925  12.129  18.977  0.00  0.00    +0.000 A 
ATOM      4  C   UNL     1      -3.216  11.314  17.840  0.00  0.00    +0.000 A 
ATOM      5  C   UNL     1      -2.351  10.354  17.381  0.00  0.00    +0.000 A 
ATOM      6  C   UNL     1      -1.059  10.430  17.689  0.00  0.00    +0.000 A 
ATOM      7  C   UNL     1      -0.673  11.354  18.671  0.00  0.00    +0.000 A 
ATOM      8  C   UNL     1       0.709  11.118  19.154  0.00  0.00    +0.000 C 
ATOM      9  C   UNL     1       0.215  10.259  20.260  0.00  0.00    +0.000 C 
ATOM     10  C   UNL     1       0.816   8.953  20.612  0.00  0.00    +0.000 C 
ATOM     11  O   UNL     1       0.496   8.854  21.998  0.00  0.00    +0.000 OA
ATOM     12  C   UNL     1       0.033  10.031  22.496  0.00  0.00    +0.000 C 
ATOM     13  O   UNL     1      -0.258  10.194  23.667  0.00  0.00    +0.000 OA
ATOM     14  C   UNL     1       0.125  11.159  21.440  0.00  0.00    +0.000 C 
ATOM     15  O   UNL     1      -2.842   9.485  16.468  0.00  0.00    +0.000 OA
ATOM     16  C   UNL     1      -3.764  10.406  15.914  0.00  0.00    +0.000 C 
ATOM     17  O   UNL     1      -4.274  11.328  16.951  0.00  0.00    +0.000 OA
ENDROOT
BRANCH   1  20
ATOM     18  C   UNL     1      -1.597  14.434  24.306  0.00  0.00    +0.000 A 
ATOM     19  C   UNL     1      -0.851  13.743  23.287  0.00  0.00    +0.000 A 
ATOM     20  C   UNL     1      -1.435  12.749  22.490  0.00  0.00    +0.000 A 
ATOM     21  C   UNL     1      -2.826  12.449  22.775  0.00  0.00    +0.000 A 
ATOM     22  C   UNL     1      -3.589  13.158  23.734  0.00  0.00    +0.000 A 
ATOM     23  C   UNL     1      -2.953  14.145  24.495  0.00  0.00    +0.000 A 
BRANCH  18  25
ATOM     24  C   UNL     1      -0.679  16.650  24.331  0.00  0.00    +0.000 C 
ATOM     25  O   UNL     1      -0.883  15.391  24.970  0.00  0.00    +0.000 OA
ENDBRANCH  18  25
BRANCH  22  26
ATOM     26  O   UNL     1      -4.939  12.962  23.963  0.00  0.00    +0.000 OA
ATOM     27  C   UNL     1      -5.805  13.211  22.851  0.00  0.00    +0.000 C 
ENDBRANCH  22  26
BRANCH  23  28
ATOM     28  O   UNL     1      -3.722  14.834  25.405  0.00  0.00    +0.000 OA
ATOM     29  H   UNL     1      -3.800  14.283  26.206  0.00  0.00    +0.000 HD
ENDBRANCH  23  28
ENDBRANCH   1  20
BRANCH   6  30
ATOM     30  O   UNL     1      -0.175   9.525  17.160  0.00  0.00    +0.000 OA
ATOM     31  H   UNL     1       0.562  10.052  16.790  0.00  0.00    +0.000 HD
ENDBRANCH   6  30
TORSDOF 5
ENDMDL
MODEL 2
REMARK VINA RESULT:      -6.9      8.586     11.970
REMARK  Name = 
REMARK  7 active torsions:
REMARK  status: ('A' for Active; 'I' for Inactive)
REMARK    1  A    between atoms: C_1  and  O_2
REMARK    2  A    between atoms: O_2  and  C_3
REMARK    3  A    between atoms: C_5  and  C_6
REMARK    4  A    between atoms: C_11  and  O_12
REMARK    5  A    between atoms: C_25  and  O_26
REMARK    6  A    between atoms: O_26  and  C_27
REMARK    7  A    between atoms: C_28  and  O_29
REMARK                            x       y       z     vdW  Elec       q    Type
REMARK                         _______ _______ _______ _____ _____    ______ ____
ROOT
ATOM      1  C   UNL     1       7.962  14.674  20.340  0.00  0.00    +0.000 C 
ATOM      2  C   UNL     1       7.702  13.920  21.806  0.00  0.00    +0.000 A 
ATOM      3  C   UNL     1       8.156  12.740  22.439  0.00  0.00    +0.000 A 
ATOM      4  C   UNL     1       7.336  12.184  23.468  0.00  0.00    +0.000 A 
ATOM      5  C   UNL     1       6.100  12.691  23.778  0.00  0.00    +0.000 A 
ATOM      6  C   UNL     1       5.801  13.945  23.453  0.00  0.00    +0.000 A 
ATOM      7  C   UNL     1       6.675  14.623  22.589  0.00  0.00    +0.000 A 
ATOM      8  C   UNL     1       6.077  15.867  22.047  0.00  0.00    +0.000 C 
ATOM      9  C   UNL     1       5.570  15.147  20.851  0.00  0.00    +0.000 C 
ATOM     10  C   UNL     1       4.197  15.308  20.320  0.00  0.00    +0.000 C 
ATOM     11  O   UNL     1       4.386  14.999  18.941  0.00  0.00    +0.000 OA
ATOM     12  C   UNL     1       5.703  14.943  18.609  0.00  0.00    +0.000 C 
ATOM     13  O   UNL     1       6.100  14.740  17.477  0.00  0.00    +0.000 OA
ATOM     14  C   UNL     1       6.597  15.369  19.800  0.00  0.00    +0.000 C 
ATOM     15  O   UNL     1       5.322  11.932  24.583  0.00  0.00    +0.000 OA
ATOM     16  C   UNL     1       6.408  11.340  25.273  0.00  0.00    +0.000 C 
ATOM     17  O   UNL     1       7.570  11.169  24.376  0.00  0.00    +0.000 OA
ENDROOT
BRANCH   1  20
ATOM     18  C   UNL     1      10.597  14.822  17.426  0.00  0.00    +0.000 A 
ATOM     19  C   UNL     1       9.582  15.295  18.330  0.00  0.00    +0.000 A 
ATOM     20  C   UNL     1       8.721  14.414  19.001  0.00  0.00    +0.000 A 
ATOM     21  C   UNL     1       8.906  13.006  18.706  0.00  0.00    +0.000 A 
ATOM     22  C   UNL     1       9.937  12.521  17.864  0.00  0.00    +0.000 A 
ATOM     23  C   UNL     1      10.770  13.448  17.227  0.00  0.00    +0.000 A 
BRANCH  18  25
ATOM     24  C   UNL     1      11.258  17.128  17.419  0.00  0.00    +0.000 C 
ATOM     25  O   UNL     1      11.365  15.811  16.880  0.00  0.00    +0.000 OA
ENDBRANCH  18  25
BRANCH  22  26
ATOM     26  O   UNL     1      10.199  11.182  17.637  0.00  0.00    +0.000 OA
ATOM     27  C   UNL     1       9.331  10.254  18.296  0.00  0.00    +0.000 C 
ENDBRANCH  22  26
BRANCH  23  28
ATOM     28  O   UNL     1      11.776  12.950  16.432  0.00  0.00    +0.000 OA
ATOM     29  H   UNL     1      11.645  13.302  15.531  0.00  0.00    +0.000 HD
ENDBRANCH  23  28
ENDBRANCH   1  20
BRANCH   6  30
ATOM     30  O   UNL     1       4.602  14.485  23.840  0.00  0.00    +0.000 OA
ATOM     31  H   UNL     1       4.044  14.510  23.036  0.00  0.00    +0.000 HD
ENDBRANCH   6  30
TORSDOF 5
ENDMDL
MODEL 3
REMARK VINA RESULT:      -6.7      5.136      7.980
REMARK  Name = 
REMARK  7 active torsions:
REMARK  status: ('A' for Active; 'I' for Inactive)
REMARK    1  A    between atoms: C_1  and  O_2
REMARK    2  A    between atoms: O_2  and  C_3
REMARK    3  A    between atoms: C_5  and  C_6
REMARK    4  A    between atoms: C_11  and  O_12
REMARK    5  A    between atoms: C_25  and  O_26
REMARK    6  A    between atoms: O_26  and  C_27
REMARK    7  A    between atoms: C_28  and  O_29
REMARK                            x       y       z     vdW  Elec       q    Type
REMARK                         _______ _______ _______ _____ _____    ______ ____
ROOT
ATOM      1  C   UNL     1       3.141   6.429  19.644  0.00  0.00    +0.000 C 
ATOM      2  C   UNL     1       4.149   6.167  18.339  0.00  0.00    +0.000 A 
ATOM      3  C   UNL     1       4.442   6.836  17.129  0.00  0.00    +0.000 A 
ATOM      4  C   UNL     1       4.975   6.058  16.056  0.00  0.00    +0.000 A 
ATOM      5  C   UNL     1       5.108   4.696  16.130  0.00  0.00    +0.000 A 
ATOM      6  C   UNL     1       5.157   4.102  17.318  0.00  0.00    +0.000 A 
ATOM      7  C   UNL     1       4.829   4.868  18.447  0.00  0.00    +0.000 A 
ATOM      8  C   UNL     1       4.601   4.029  19.650  0.00  0.00    +0.000 C 
ATOM      9  C   UNL     1       3.146   3.953  19.367  0.00  0.00    +0.000 C 
ATOM     10  C   UNL     1       2.364   2.697  19.433  0.00  0.00    +0.000 C 
ATOM     11  O   UNL     1       1.060   3.187  19.737  0.00  0.00    +0.000 OA
ATOM     12  C   UNL     1       1.081   4.499  20.091  0.00  0.00    +0.000 C 
ATOM     13  O   UNL     1       0.090   5.115  20.437  0.00  0.00    +0.000 OA
ATOM     14  C   UNL     1       2.533   5.026  20.192  0.00  0.00    +0.000 C 
ATOM     15  O   UNL     1       5.381   4.052  14.972  0.00  0.00    +0.000 OA
ATOM     16  C   UNL     1       6.087   5.138  14.398  0.00  0.00    +0.000 C 
ATOM     17  O   UNL     1       5.517   6.428  14.840  0.00  0.00    +0.000 OA
ENDROOT
BRANCH   1  20
ATOM     18  C   UNL     1       1.156   9.195  21.611  0.00  0.00    +0.000 A 
ATOM     19  C   UNL     1       1.827   7.941  21.387  0.00  0.00    +0.000 A 
ATOM     20  C   UNL     1       2.037   7.436  20.095  0.00  0.00    +0.000 A 
ATOM     21  C   UNL     1       1.516   8.246  19.010  0.00  0.00    +0.000 A 
ATOM     22  C   UNL     1       0.906   9.508  19.211  0.00  0.00    +0.000 A 
ATOM     23  C   UNL     1       0.729   9.963  20.522  0.00  0.00    +0.000 A 
BRANCH  18  25
ATOM     24  C   UNL     1      -0.228   9.536  23.541  0.00  0.00    +0.000 C 
ATOM     25  O   UNL     1       1.060   9.550  22.927  0.00  0.00    +0.000 OA
ENDBRANCH  18  25
BRANCH  22  26
ATOM     26  O   UNL     1       0.485  10.346  18.194  0.00  0.00    +0.000 OA
ATOM     27  C   UNL     1      -0.834  10.109  17.692  0.00  0.00    +0.000 C 
ENDBRANCH  22  26
BRANCH  23  28
ATOM     28  O   UNL     1       0.153  11.201  20.689  0.00  0.00    +0.000 OA
ATOM     29  H   UNL     1      -0.807  11.070  20.801  0.00  0.00    +0.000 HD
ENDBRANCH  23  28
ENDBRANCH   1  20
BRANCH   6  30
ATOM     30  O   UNL     1       5.380   2.752  17.400  0.00  0.00    +0.000 OA
ATOM     31  H   UNL     1       4.771   2.337  16.757  0.00  0.00    +0.000 HD
ENDBRANCH   6  30
TORSDOF 5
ENDMDL
MODEL 4
REMARK VINA RESULT:      -6.5      1.187      1.529
REMARK  Name = 
REMARK  7 active torsions:
REMARK  status: ('A' for Active; 'I' for Inactive)
REMARK    1  A    between atoms: C_1  and  O_2
REMARK    2  A    between atoms: O_2  and  C_3
REMARK    3  A    between atoms: C_5  and  C_6
REMARK    4  A    between atoms: C_11  and  O_12
REMARK    5  A    between atoms: C_25  and  O_26
REMARK    6  A    between atoms: O_26  and  C_27
REMARK    7  A    between atoms: C_28  and  O_29
REMARK                            x       y       z     vdW  Elec       q    Type
REMARK                         _______ _______ _______ _____ _____    ______ ____
ROOT
ATOM      1  C   UNL     1      -2.246  12.592  20.873  0.00  0.00    +0.000 C 
ATOM      2  C   UNL     1      -2.484  12.138  19.283  0.00  0.00    +0.000 A 
ATOM      3  C   UNL     1      -3.597  11.971  18.429  0.00  0.00    +0.000 A 
ATOM      4  C   UNL     1      -3.443  11.100  17.306  0.00  0.00    +0.000 A 
ATOM      5  C   UNL     1      -2.308  10.360  17.099  0.00  0.00    +0.000 A 
ATOM      6  C   UNL     1      -1.165  10.732  17.669  0.00  0.00    +0.000 A 
ATOM      7  C   UNL     1      -1.219  11.730  18.654  0.00  0.00    +0.000 A 
ATOM      8  C   UNL     1       0.040  11.821  19.433  0.00  0.00    +0.000 C 
ATOM      9  C   UNL     1      -0.483  10.881  20.457  0.00  0.00    +0.000 C 
ATOM     10  C   UNL     1       0.300   9.750  21.005  0.00  0.00    +0.000 C 
ATOM     11  O   UNL     1      -0.287   9.594  22.295  0.00  0.00    +0.000 OA
ATOM     12  C   UNL     1      -1.098  10.638  22.614  0.00  0.00    +0.000 C 
ATOM     13  O   UNL     1      -1.668  10.740  23.684  0.00  0.00    +0.000 OA
ATOM     14  C   UNL     1      -1.028  11.747  21.536  0.00  0.00    +0.000 C 
ATOM     15  O   UNL     1      -2.381   9.394  16.156  0.00  0.00    +0.000 OA
ATOM     16  C   UNL     1      -3.339  10.074  15.365  0.00  0.00    +0.000 C 
ATOM     17  O   UNL     1      -4.255  10.865  16.214  0.00  0.00    +0.000 OA
ENDROOT
BRANCH   1  20
ATOM     18  C   UNL     1      -3.762  14.480  23.970  0.00  0.00    +0.000 A 
ATOM     19  C   UNL     1      -2.757  13.850  23.154  0.00  0.00    +0.000 A 
ATOM     20  C   UNL     1      -3.093  12.947  22.135  0.00  0.00    +0.000 A 
ATOM     21  C   UNL     1      -4.509  12.675  21.975  0.00  0.00    +0.000 A 
ATOM     22  C   UNL     1      -5.512  13.330  22.731  0.00  0.00    +0.000 A 
ATOM     23  C   UNL     1      -5.116  14.226  23.730  0.00  0.00    +0.000 A 
BRANCH  18  25
ATOM     24  C   UNL     1      -1.858  15.354  25.138  0.00  0.00    +0.000 C 
ATOM     25  O   UNL     1      -3.264  15.352  24.897  0.00  0.00    +0.000 OA
ENDBRANCH  18  25
BRANCH  22  26
ATOM     26  O   UNL     1      -6.871  13.164  22.538  0.00  0.00    +0.000 OA
ATOM     27  C   UNL     1      -7.252  12.216  21.536  0.00  0.00    +0.000 C 
ENDBRANCH  22  26
BRANCH  23  28
ATOM     28  O   UNL     1      -6.111  14.864  24.434  0.00  0.00    +0.000 OA
ATOM     29  H   UNL     1      -6.888  14.274  24.454  0.00  0.00    +0.000 HD
ENDBRANCH  23  28
ENDBRANCH   1  20
BRANCH   6  30
ATOM     30  O   UNL     1      -0.009  10.049  17.394  0.00  0.00    +0.000 OA
ATOM     31  H   UNL     1       0.265   9.630  18.234  0.00  0.00    +0.000 HD
ENDBRANCH   6  30
TORSDOF 5
ENDMDL
MODEL 5
REMARK VINA RESULT:      -6.2      0.854      2.435
REMARK  Name = 
REMARK  7 active torsions:
REMARK  status: ('A' for Active; 'I' for Inactive)
REMARK    1  A    between atoms: C_1  and  O_2
REMARK    2  A    between atoms: O_2  and  C_3
REMARK    3  A    between atoms: C_5  and  C_6
REMARK    4  A    between atoms: C_11  and  O_12
REMARK    5  A    between atoms: C_25  and  O_26
REMARK    6  A    between atoms: O_26  and  C_27
REMARK    7  A    between atoms: C_28  and  O_29
REMARK                            x       y       z     vdW  Elec       q    Type
REMARK                         _______ _______ _______ _____ _____    ______ ____
ROOT
ATOM      1  C   UNL     1      -1.778  12.685  20.704  0.00  0.00    +0.000 C 
ATOM      2  C   UNL     1      -2.068  12.124  19.158  0.00  0.00    +0.000 A 
ATOM      3  C   UNL     1      -3.197  11.996  18.318  0.00  0.00    +0.000 A 
ATOM      4  C   UNL     1      -3.137  11.023  17.274  0.00  0.00    +0.000 A 
ATOM      5  C   UNL     1      -2.082  10.159  17.133  0.00  0.00    +0.000 A 
ATOM      6  C   UNL     1      -0.905  10.462  17.673  0.00  0.00    +0.000 A 
ATOM      7  C   UNL     1      -0.854  11.540  18.570  0.00  0.00    +0.000 A 
ATOM      8  C   UNL     1       0.412  11.570  19.342  0.00  0.00    +0.000 C 
ATOM      9  C   UNL     1      -0.196  10.778  20.441  0.00  0.00    +0.000 C 
ATOM     10  C   UNL     1       0.474   9.625  21.085  0.00  0.00    +0.000 C 
ATOM     11  O   UNL     1      -0.119   9.638  22.382  0.00  0.00    +0.000 OA
ATOM     12  C   UNL     1      -0.820  10.780  22.608  0.00  0.00    +0.000 C 
ATOM     13  O   UNL     1      -1.372  11.029  23.664  0.00  0.00    +0.000 OA
ATOM     14  C   UNL     1      -0.646  11.782  21.440  0.00  0.00    +0.000 C 
ATOM     15  O   UNL     1      -2.256   9.129  16.275  0.00  0.00    +0.000 OA
ATOM     16  C   UNL     1      -3.146   9.832  15.426  0.00  0.00    +0.000 C 
ATOM     17  O   UNL     1      -3.974  10.778  16.202  0.00  0.00    +0.000 OA
ENDROOT
BRANCH   1  20
ATOM     18  C   UNL     1      -4.030  12.911  23.919  0.00  0.00    +0.000 A 
ATOM     19  C   UNL     1      -3.686  12.632  22.549  0.00  0.00    +0.000 A 
ATOM     20  C   UNL     1      -2.578  13.228  21.929  0.00  0.00    +0.000 A 
ATOM     21  C   UNL     1      -1.820  14.154  22.749  0.00  0.00    +0.000 A 
ATOM     22  C   UNL     1      -2.111  14.395  24.114  0.00  0.00    +0.000 A 
ATOM     23  C   UNL     1      -3.226  13.767  24.680  0.00  0.00    +0.000 A 
BRANCH  18  25
ATOM     24  C   UNL     1      -6.418  12.731  24.057  0.00  0.00    +0.000 C 
ATOM     25  O   UNL     1      -5.121  12.226  24.373  0.00  0.00    +0.000 OA
ENDBRANCH  18  25
BRANCH  22  26
ATOM     26  O   UNL     1      -1.353  15.198  24.947  0.00  0.00    +0.000 OA
ATOM     27  C   UNL     1      -1.236  16.570  24.558  0.00  0.00    +0.000 C 
ENDBRANCH  22  26
BRANCH  23  28
ATOM     28  O   UNL     1      -3.473  14.001  26.013  0.00  0.00    +0.000 OA
ATOM     29  H   UNL     1      -3.810  13.174  26.403  0.00  0.00    +0.000 HD
ENDBRANCH  23  28
ENDBRANCH   1  20
BRANCH   6  30
ATOM     30  O   UNL     1       0.176   9.647  17.460  0.00  0.00    +0.000 OA
ATOM     31  H   UNL     1       0.289   9.594  16.490  0.00  0.00    +0.000 HD
ENDBRANCH   6  30
TORSDOF 5
ENDMDL
MODEL 6
REMARK VINA RESULT:      -6.2      1.866      6.632
REMARK  Name = 
REMARK  7 active torsions:
REMARK  status: ('A' for Active; 'I' for Inactive)
REMARK    1  A    between atoms: C_1  and  O_2
REMARK    2  A    between atoms: O_2  and  C_3
REMARK    3  A    between atoms: C_5  and  C_6
REMARK    4  A    between atoms: C_11  and  O_12
REMARK    5  A    between atoms: C_25  and  O_26
REMARK    6  A    between atoms: O_26  and  C_27
REMARK    7  A    between atoms: C_28  and  O_29
REMARK                            x       y       z     vdW  Elec       q    Type
REMARK                         _______ _______ _______ _____ _____    ______ ____
ROOT
ATOM      1  C   UNL     1      -2.657  12.371  22.066  0.00  0.00    +0.000 C 
ATOM      2  C   UNL     1      -4.198  13.009  21.992  0.00  0.00    +0.000 A 
ATOM      3  C   UNL     1      -5.136  13.287  20.972  0.00  0.00    +0.000 A 
ATOM      4  C   UNL     1      -6.128  14.280  21.239  0.00  0.00    +0.000 A 
ATOM      5  C   UNL     1      -6.131  15.027  22.389  0.00  0.00    +0.000 A 
ATOM      6  C   UNL     1      -5.495  14.578  23.467  0.00  0.00    +0.000 A 
ATOM      7  C   UNL     1      -4.644  13.474  23.314  0.00  0.00    +0.000 A 
ATOM      8  C   UNL     1      -3.757  13.279  24.487  0.00  0.00    +0.000 C 
ATOM      9  C   UNL     1      -2.688  14.099  23.861  0.00  0.00    +0.000 C 
ATOM     10  C   UNL     1      -1.935  15.150  24.583  0.00  0.00    +0.000 C 
ATOM     11  O   UNL     1      -0.703  15.162  23.866  0.00  0.00    +0.000 OA
ATOM     12  C   UNL     1      -0.592  14.098  23.028  0.00  0.00    +0.000 C 
ATOM     13  O   UNL     1       0.395  13.878  22.351  0.00  0.00    +0.000 OA
ATOM     14  C   UNL     1      -1.779  13.120  23.209  0.00  0.00    +0.000 C 
ATOM     15  O   UNL     1      -6.958  16.096  22.412  0.00  0.00    +0.000 OA
ATOM     16  C   UNL     1      -7.917  15.523  21.540  0.00  0.00    +0.000 C 
ATOM     17  O   UNL     1      -7.263  14.650  20.543  0.00  0.00    +0.000 OA
ENDROOT
BRANCH   1  20
ATOM     18  C   UNL     1      -0.013  10.136  20.203  0.00  0.00    +0.000 A 
ATOM     19  C   UNL     1      -0.639  10.825  21.302  0.00  0.00    +0.000 A 
ATOM     20  C   UNL     1      -1.538  11.881  21.095  0.00  0.00    +0.000 A 
ATOM     21  C   UNL     1      -1.775  12.245  19.711  0.00  0.00    +0.000 A 
ATOM     22  C   UNL     1      -1.212  11.540  18.619  0.00  0.00    +0.000 A 
ATOM     23  C   UNL     1      -0.327  10.490  18.887  0.00  0.00    +0.000 A 
BRANCH  18  25
ATOM     24  C   UNL     1       1.212   9.037  21.949  0.00  0.00    +0.000 C 
ATOM     25  O   UNL     1       0.812   9.115  20.581  0.00  0.00    +0.000 OA
ENDBRANCH  18  25
BRANCH  22  26
ATOM     26  O   UNL     1      -1.492  11.801  17.290  0.00  0.00    +0.000 OA
ATOM     27  C   UNL     1      -2.712  11.248  16.786  0.00  0.00    +0.000 C 
ENDBRANCH  22  26
BRANCH  23  28
ATOM     28  O   UNL     1       0.188   9.809  17.808  0.00  0.00    +0.000 OA
ATOM     29  H   UNL     1       0.664  10.451  17.250  0.00  0.00    +0.000 HD
ENDBRANCH  23  28
ENDBRANCH   1  20
BRANCH   6  30
ATOM     30  O   UNL     1      -5.570  15.276  24.645  0.00  0.00    +0.000 OA
ATOM     31  H   UNL     1      -5.980  14.669  25.294  0.00  0.00    +0.000 HD
ENDBRANCH   6  30
TORSDOF 5
ENDMDL
MODEL 7
REMARK VINA RESULT:      -6.2      2.023      6.989
REMARK  Name = 
REMARK  7 active torsions:
REMARK  status: ('A' for Active; 'I' for Inactive)
REMARK    1  A    between atoms: C_1  and  O_2
REMARK    2  A    between atoms: O_2  and  C_3
REMARK    3  A    between atoms: C_5  and  C_6
REMARK    4  A    between atoms: C_11  and  O_12
REMARK    5  A    between atoms: C_25  and  O_26
REMARK    6  A    between atoms: O_26  and  C_27
REMARK    7  A    between atoms: C_28  and  O_29
REMARK                            x       y       z     vdW  Elec       q    Type
REMARK                         _______ _______ _______ _____ _____    ______ ____
ROOT
ATOM      1  C   UNL     1      -2.543  12.550  21.183  0.00  0.00    +0.000 C 
ATOM      2  C   UNL     1      -3.918  12.787  22.101  0.00  0.00    +0.000 A 
ATOM      3  C   UNL     1      -5.305  12.582  21.927  0.00  0.00    +0.000 A 
ATOM      4  C   UNL     1      -6.194  13.363  22.729  0.00  0.00    +0.000 A 
ATOM      5  C   UNL     1      -5.751  14.355  23.565  0.00  0.00    +0.000 A 
ATOM      6  C   UNL     1      -4.491  14.347  23.988  0.00  0.00    +0.000 A 
ATOM      7  C   UNL     1      -3.598  13.459  23.370  0.00  0.00    +0.000 A 
ATOM      8  C   UNL     1      -2.183  13.769  23.688  0.00  0.00    +0.000 C 
ATOM      9  C   UNL     1      -2.060  14.622  22.479  0.00  0.00    +0.000 C 
ATOM     10  C   UNL     1      -1.429  15.962  22.484  0.00  0.00    +0.000 C 
ATOM     11  O   UNL     1      -0.972  16.068  21.138  0.00  0.00    +0.000 OA
ATOM     12  C   UNL     1      -1.043  14.880  20.482  0.00  0.00    +0.000 C 
ATOM     13  O   UNL     1      -0.662  14.723  19.337  0.00  0.00    +0.000 OA
ATOM     14  C   UNL     1      -1.468  13.739  21.440  0.00  0.00    +0.000 C 
ATOM     15  O   UNL     1      -6.693  15.183  24.071  0.00  0.00    +0.000 OA
ATOM     16  C   UNL     1      -7.722  14.210  24.063  0.00  0.00    +0.000 C 
ATOM     17  O   UNL     1      -7.559  13.282  22.924  0.00  0.00    +0.000 OA
ENDROOT
BRANCH   1  20
ATOM     18  C   UNL     1      -1.094  10.511  18.150  0.00  0.00    +0.000 A 
ATOM     19  C   UNL     1      -1.082  11.269  19.373  0.00  0.00    +0.000 A 
ATOM     20  C   UNL     1      -2.155  12.095  19.741  0.00  0.00    +0.000 A 
ATOM     21  C   UNL     1      -3.259  12.150  18.801  0.00  0.00    +0.000 A 
ATOM     22  C   UNL     1      -3.311  11.366  17.623  0.00  0.00    +0.000 A 
ATOM     23  C   UNL     1      -2.213  10.556  17.311  0.00  0.00    +0.000 A 
BRANCH  18  25
ATOM     24  C   UNL     1       1.197  10.057  18.695  0.00  0.00    +0.000 C 
ATOM     25  O   UNL     1       0.017   9.739  17.960  0.00  0.00    +0.000 OA
ENDBRANCH  18  25
BRANCH  22  26
ATOM     26  O   UNL     1      -4.388  11.324  16.756  0.00  0.00    +0.000 OA
ATOM     27  C   UNL     1      -5.535  12.087  17.145  0.00  0.00    +0.000 C 
ENDBRANCH  22  26
BRANCH  23  28
ATOM     28  O   UNL     1      -2.299   9.789  16.172  0.00  0.00    +0.000 OA
ATOM     29  H   UNL     1      -3.079   9.210  16.261  0.00  0.00    +0.000 HD
ENDBRANCH  23  28
ENDBRANCH   1  20
BRANCH   6  30
ATOM     30  O   UNL     1      -4.067  15.283  24.895  0.00  0.00    +0.000 OA
ATOM     31  H   UNL     1      -4.729  16.003  24.871  0.00  0.00    +0.000 HD
ENDBRANCH   6  30
TORSDOF 5
ENDMDL
MODEL 8
REMARK VINA RESULT:      -6.2      4.144      8.759
REMARK  Name = 
REMARK  7 active torsions:
REMARK  status: ('A' for Active; 'I' for Inactive)
REMARK    1  A    between atoms: C_1  and  O_2
REMARK    2  A    between atoms: O_2  and  C_3
REMARK    3  A    between atoms: C_5  and  C_6
REMARK    4  A    between atoms: C_11  and  O_12
REMARK    5  A    between atoms: C_25  and  O_26
REMARK    6  A    between atoms: O_26  and  C_27
REMARK    7  A    between atoms: C_28  and  O_29
REMARK                            x       y       z     vdW  Elec       q    Type
REMARK                         _______ _______ _______ _____ _____    ______ ____
ROOT
ATOM      1  C   UNL     1       1.638   8.774  18.416  0.00  0.00    +0.000 C 
ATOM      2  C   UNL     1       1.726  10.428  18.204  0.00  0.00    +0.000 A 
ATOM      3  C   UNL     1       2.705  11.346  17.760  0.00  0.00    +0.000 A 
ATOM      4  C   UNL     1       2.580  12.703  18.189  0.00  0.00    +0.000 A 
ATOM      5  C   UNL     1       1.622  13.108  19.083  0.00  0.00    +0.000 A 
ATOM      6  C   UNL     1       0.526  12.373  19.251  0.00  0.00    +0.000 A 
ATOM      7  C   UNL     1       0.505  11.090  18.686  0.00  0.00    +0.000 A 
ATOM      8  C   UNL     1      -0.608  10.261  19.211  0.00  0.00    +0.000 C 
ATOM      9  C   UNL     1       0.262   9.700  20.275  0.00  0.00    +0.000 C 
ATOM     10  C   UNL     1      -0.153   9.575  21.691  0.00  0.00    +0.000 C 
ATOM     11  O   UNL     1       0.644   8.477  22.127  0.00  0.00    +0.000 OA
ATOM     12  C   UNL     1       1.239   7.836  21.086  0.00  0.00    +0.000 C 
ATOM     13  O   UNL     1       1.928   6.842  21.217  0.00  0.00    +0.000 OA
ATOM     14  C   UNL     1       0.757   8.409  19.731  0.00  0.00    +0.000 C 
ATOM     15  O   UNL     1       1.765  14.349  19.601  0.00  0.00    +0.000 OA
ATOM     16  C   UNL     1       2.413  14.879  18.458  0.00  0.00    +0.000 C 
ATOM     17  O   UNL     1       3.248  13.850  17.803  0.00  0.00    +0.000 OA
ENDROOT
BRANCH   1  20
ATOM     18  C   UNL     1       3.017   5.169  17.663  0.00  0.00    +0.000 A 
ATOM     19  C   UNL     1       2.173   6.179  18.249  0.00  0.00    +0.000 A 
ATOM     20  C   UNL     1       2.567   7.523  18.315  0.00  0.00    +0.000 A 
ATOM     21  C   UNL     1       3.881   7.822  17.778  0.00  0.00    +0.000 A 
ATOM     22  C   UNL     1       4.698   6.852  17.147  0.00  0.00    +0.000 A 
ATOM     23  C   UNL     1       4.249   5.527  17.106  0.00  0.00    +0.000 A 
BRANCH  18  25
ATOM     24  C   UNL     1       1.375   3.652  18.533  0.00  0.00    +0.000 C 
ATOM     25  O   UNL     1       2.468   3.918  17.656  0.00  0.00    +0.000 OA
ENDBRANCH  18  25
BRANCH  22  26
ATOM     26  O   UNL     1       5.911   7.122  16.542  0.00  0.00    +0.000 OA
ATOM     27  C   UNL     1       7.024   7.307  17.424  0.00  0.00    +0.000 C 
ENDBRANCH  22  26
BRANCH  23  28
ATOM     28  O   UNL     1       5.051   4.609  16.469  0.00  0.00    +0.000 OA
ATOM     29  H   UNL     1       4.498   3.839  16.239  0.00  0.00    +0.000 HD
ENDBRANCH  23  28
ENDBRANCH   1  20
BRANCH   6  30
ATOM     30  O   UNL     1      -0.475  12.818  20.075  0.00  0.00    +0.000 OA
ATOM     31  H   UNL     1      -0.942  13.520  19.579  0.00  0.00    +0.000 HD
ENDBRANCH   6  30
TORSDOF 5
ENDMDL
MODEL 9
REMARK VINA RESULT:      -6.2      9.125     12.598
REMARK  Name = 
REMARK  7 active torsions:
REMARK  status: ('A' for Active; 'I' for Inactive)
REMARK    1  A    between atoms: C_1  and  O_2
REMARK    2  A    between atoms: O_2  and  C_3
REMARK    3  A    between atoms: C_5  and  C_6
REMARK    4  A    between atoms: C_11  and  O_12
REMARK    5  A    between atoms: C_25  and  O_26
REMARK    6  A    between atoms: O_26  and  C_27
REMARK    7  A    between atoms: C_28  and  O_29
REMARK                            x       y       z     vdW  Elec       q    Type
REMARK                         _______ _______ _______ _____ _____    ______ ____
ROOT
ATOM      1  C   UNL     1       9.242  13.237  22.326  0.00  0.00    +0.000 C 
ATOM      2  C   UNL     1       8.384  12.960  23.731  0.00  0.00    +0.000 A 
ATOM      3  C   UNL     1       8.036  11.829  24.504  0.00  0.00    +0.000 A 
ATOM      4  C   UNL     1       6.888  11.935  25.349  0.00  0.00    +0.000 A 
ATOM      5  C   UNL     1       6.075  13.039  25.351  0.00  0.00    +0.000 A 
ATOM      6  C   UNL     1       6.542  14.202  24.908  0.00  0.00    +0.000 A 
ATOM      7  C   UNL     1       7.770  14.199  24.230  0.00  0.00    +0.000 A 
ATOM      8  C   UNL     1       8.019  15.472  23.509  0.00  0.00    +0.000 C 
ATOM      9  C   UNL     1       7.414  14.928  22.267  0.00  0.00    +0.000 C 
ATOM     10  C   UNL     1       6.444  15.676  21.435  0.00  0.00    +0.000 C 
ATOM     11  O   UNL     1       6.666  15.101  20.149  0.00  0.00    +0.000 OA
ATOM     12  C   UNL     1       7.789  14.335  20.123  0.00  0.00    +0.000 C 
ATOM     13  O   UNL     1       8.200  13.784  19.119  0.00  0.00    +0.000 OA
ATOM     14  C   UNL     1       8.561  14.432  21.462  0.00  0.00    +0.000 C 
ATOM     15  O   UNL     1       4.893  12.916  25.997  0.00  0.00    +0.000 OA
ATOM     16  C   UNL     1       5.371  11.973  26.940  0.00  0.00    +0.000 C 
ATOM     17  O   UNL     1       6.398  11.099  26.334  0.00  0.00    +0.000 OA
ENDROOT
BRANCH   1  20
ATOM     18  C   UNL     1       9.945  10.865  19.269  0.00  0.00    +0.000 A 
ATOM     19  C   UNL     1       9.503  11.249  20.584  0.00  0.00    +0.000 A 
ATOM     20  C   UNL     1       9.959  12.421  21.204  0.00  0.00    +0.000 A 
ATOM     21  C   UNL     1      10.917  13.203  20.446  0.00  0.00    +0.000 A 
ATOM     22  C   UNL     1      11.318  12.870  19.129  0.00  0.00    +0.000 A 
ATOM     23  C   UNL     1      10.823  11.691  18.559  0.00  0.00    +0.000 A 
BRANCH  18  25
ATOM     24  C   UNL     1       8.213   9.807  17.989  0.00  0.00    +0.000 C 
ATOM     25  O   UNL     1       9.380   9.711  18.804  0.00  0.00    +0.000 OA
ENDBRANCH  18  25
BRANCH  22  26
ATOM     26  O   UNL     1      12.154  13.643  18.344  0.00  0.00    +0.000 OA
ATOM     27  C   UNL     1      11.603  14.873  17.864  0.00  0.00    +0.000 C 
ENDBRANCH  22  26
BRANCH  23  28
ATOM     28  O   UNL     1      11.211  11.402  17.271  0.00  0.00    +0.000 OA
ATOM     29  H   UNL     1      12.181  11.303  17.268  0.00  0.00    +0.000 HD
ENDBRANCH  23  28
ENDBRANCH   1  20
BRANCH   6  30
ATOM     30  O   UNL     1       5.764  15.328  24.991  0.00  0.00    +0.000 OA
ATOM     31  H   UNL     1       5.142  15.284  24.237  0.00  0.00    +0.000 HD
ENDBRANCH   6  30
TORSDOF 5
ENDMDL
