MODEL 1
REMARK VINA RESULT:      -7.9      0.000      0.000
REMARK  Name = 
REMARK  8 active torsions:
REMARK  status: ('A' for Active; 'I' for Inactive)
REMARK    1  A    between atoms: C_1  and  C_2
REMARK    2  A    between atoms: N_4  and  C_5
REMARK    3  A    between atoms: C_6  and  C_7
REMARK    4  A    between atoms: C_8  and  C_9
REMARK    5  A    between atoms: C_17  and  C_18
REMARK    6  A    between atoms: C_22  and  C_23
REMARK    7  A    between atoms: C_27  and  C_28
REMARK    8  A    between atoms: C_28  and  O_29
REMARK                            x       y       z     vdW  Elec       q    Type
REMARK                         _______ _______ _______ _____ _____    ______ ____
ROOT
ATOM      1  C   UNL     1       4.522   6.386  17.317  0.00  0.00    +0.000 A 
ATOM      2  N   UNL     1       4.027   5.408  18.085  0.00  0.00    +0.000 NA
ATOM      3  C   UNL     1       2.942   5.656  18.831  0.00  0.00    +0.000 A 
ATOM      4  N   UNL     1       2.514   4.581  19.602  0.00  0.00    +0.000 N 
ATOM      5  C   UNL     1       1.819   4.780  20.883  0.00  0.00    +0.000 C 
ATOM      6  C   UNL     1       2.038   3.587  21.814  0.00  0.00    +0.000 C 
ATOM      7  O   UNL     1       1.585   2.379  21.195  0.00  0.00    +0.000 OA
ATOM      8  C   UNL     1       2.327   2.146  19.987  0.00  0.00    +0.000 C 
ATOM      9  C   UNL     1       2.143   3.289  18.951  0.00  0.00    +0.000 C 
ATOM     10  C   UNL     1       2.921   2.900  17.697  0.00  0.00    +0.000 C 
ATOM     11  C   UNL     1       2.375   6.953  18.835  0.00  0.00    +0.000 A 
ATOM     12  C   UNL     1       1.240   7.397  19.557  0.00  0.00    +0.000 A 
ATOM     13  C   UNL     1       0.821   8.711  19.511  0.00  0.00    +0.000 A 
ATOM     14  C   UNL     1       1.500   9.582  18.690  0.00  0.00    +0.000 A 
ATOM     15  N   UNL     1       2.564   9.172  17.960  0.00  0.00    +0.000 NA
ATOM     16  C   UNL     1       2.996   7.909  18.021  0.00  0.00    +0.000 A 
ATOM     17  N   UNL     1       4.042   7.625  17.267  0.00  0.00    +0.000 NA
ENDROOT
BRANCH   1  25
ATOM     18  C   UNL     1       7.689   7.330  17.486  0.00  0.00    +0.000 C 
ATOM     19  C   UNL     1       7.015   6.433  16.517  0.00  0.00    +0.000 A 
ATOM     20  N   UNL     1       7.741   5.874  15.541  0.00  0.00    +0.000 NA
ATOM     21  N   UNL     1       6.860   5.125  14.860  0.00  0.00    +0.000 N 
ATOM     22  C   UNL     1       7.334   4.370  13.723  0.00  0.00    +0.000 C 
ATOM     23  C   UNL     1       5.591   5.165  15.372  0.00  0.00    +0.000 A 
ATOM     24  C   UNL     1       4.459   4.367  14.825  0.00  0.00    +0.000 C 
ATOM     25  C   UNL     1       5.643   6.042  16.452  0.00  0.00    +0.000 A 
ENDBRANCH   1  25
BRANCH  14  26
ATOM     26  C   UNL     1       1.143  11.010  18.628  0.00  0.00    +0.000 A 
ATOM     27  C   UNL     1      -0.190  11.455  18.737  0.00  0.00    +0.000 A 
ATOM     28  C   UNL     1      -0.500  12.812  18.793  0.00  0.00    +0.000 A 
ATOM     29  C   UNL     1       0.521  13.756  18.720  0.00  0.00    +0.000 A 
ATOM     30  C   UNL     1       1.853  13.352  18.582  0.00  0.00    +0.000 A 
ATOM     31  C   UNL     1       2.149  11.984  18.525  0.00  0.00    +0.000 A 
BRANCH  30  32
ATOM     32  C   UNL     1       2.964  14.364  18.534  0.00  0.00    +0.000 C 
BRANCH  32  33
ATOM     33  O   UNL     1       4.008  13.908  17.688  0.00  0.00    +0.000 OA
ATOM     34  H   UNL     1       3.847  12.960  17.544  0.00  0.00    +0.000 HD
ENDBRANCH  32  33
ENDBRANCH  30  32
ENDBRANCH  14  26
TORSDOF 4
ENDMDL
MODEL 2
REMARK VINA RESULT:      -7.8      4.139      9.586
REMARK  Name = 
REMARK  8 active torsions:
REMARK  status: ('A' for Active; 'I' for Inactive)
REMARK    1  A    between atoms: C_1  and  C_2
REMARK    2  A    between atoms: N_4  and  C_5
REMARK    3  A    between atoms: C_6  and  C_7
REMARK    4  A    between atoms: C_8  and  C_9
REMARK    5  A    between atoms: C_17  and  C_18
REMARK    6  A    between atoms: C_22  and  C_23
REMARK    7  A    between atoms: C_27  and  C_28
REMARK    8  A    between atoms: C_28  and  O_29
REMARK                            x       y       z     vdW  Elec       q    Type
REMARK                         _______ _______ _______ _____ _____    ______ ____
ROOT
ATOM      1  C   UNL     1       0.488  13.553  20.004  0.00  0.00    +0.000 A 
ATOM      2  N   UNL     1      -0.394  13.729  20.996  0.00  0.00    +0.000 NA
ATOM      3  C   UNL     1      -0.733  12.679  21.757  0.00  0.00    +0.000 A 
ATOM      4  N   UNL     1      -1.664  12.963  22.750  0.00  0.00    +0.000 N 
ATOM      5  C   UNL     1      -2.607  11.944  23.236  0.00  0.00    +0.000 C 
ATOM      6  C   UNL     1      -3.882  12.592  23.774  0.00  0.00    +0.000 C 
ATOM      7  O   UNL     1      -3.571  13.512  24.825  0.00  0.00    +0.000 OA
ATOM      8  C   UNL     1      -2.718  14.552  24.322  0.00  0.00    +0.000 C 
ATOM      9  C   UNL     1      -1.370  14.002  23.782  0.00  0.00    +0.000 C 
ATOM     10  C   UNL     1      -0.532  15.197  23.338  0.00  0.00    +0.000 C 
ATOM     11  C   UNL     1      -0.197  11.401  21.468  0.00  0.00    +0.000 A 
ATOM     12  C   UNL     1      -0.441  10.187  22.155  0.00  0.00    +0.000 A 
ATOM     13  C   UNL     1       0.108   8.994  21.735  0.00  0.00    +0.000 A 
ATOM     14  C   UNL     1       0.961   9.015  20.654  0.00  0.00    +0.000 A 
ATOM     15  N   UNL     1       1.241  10.169  20.004  0.00  0.00    +0.000 NA
ATOM     16  C   UNL     1       0.689  11.325  20.385  0.00  0.00    +0.000 A 
ATOM     17  N   UNL     1       1.033  12.385  19.677  0.00  0.00    +0.000 NA
ENDROOT
BRANCH   1  25
ATOM     18  C   UNL     1      -1.142  16.385  19.488  0.00  0.00    +0.000 C 
ATOM     19  C   UNL     1       0.210  15.971  19.043  0.00  0.00    +0.000 A 
ATOM     20  N   UNL     1       0.946  16.832  18.328  0.00  0.00    +0.000 NA
ATOM     21  N   UNL     1       2.094  16.176  18.099  0.00  0.00    +0.000 N 
ATOM     22  C   UNL     1       3.127  16.843  17.342  0.00  0.00    +0.000 C 
ATOM     23  C   UNL     1       2.134  14.926  18.657  0.00  0.00    +0.000 A 
ATOM     24  C   UNL     1       3.327  14.037  18.592  0.00  0.00    +0.000 C 
ATOM     25  C   UNL     1       0.897  14.740  19.267  0.00  0.00    +0.000 A 
ENDBRANCH   1  25
BRANCH  14  26
ATOM     26  C   UNL     1       1.545   7.774  20.116  0.00  0.00    +0.000 A 
ATOM     27  C   UNL     1       2.310   7.758  18.931  0.00  0.00    +0.000 A 
ATOM     28  C   UNL     1       2.953   6.600  18.500  0.00  0.00    +0.000 A 
ATOM     29  C   UNL     1       2.826   5.424  19.235  0.00  0.00    +0.000 A 
ATOM     30  C   UNL     1       2.052   5.396  20.400  0.00  0.00    +0.000 A 
ATOM     31  C   UNL     1       1.411   6.567  20.821  0.00  0.00    +0.000 A 
BRANCH  30  32
ATOM     32  C   UNL     1       1.936   4.139  21.217  0.00  0.00    +0.000 C 
BRANCH  32  33
ATOM     33  O   UNL     1       0.809   3.385  20.801  0.00  0.00    +0.000 OA
ATOM     34  H   UNL     1       1.138   2.494  20.593  0.00  0.00    +0.000 HD
ENDBRANCH  32  33
ENDBRANCH  30  32
ENDBRANCH  14  26
TORSDOF 4
ENDMDL
MODEL 3
REMARK VINA RESULT:      -7.8      1.281      1.730
REMARK  Name = 
REMARK  8 active torsions:
REMARK  status: ('A' for Active; 'I' for Inactive)
REMARK    1  A    between atoms: C_1  and  C_2
REMARK    2  A    between atoms: N_4  and  C_5
REMARK    3  A    between atoms: C_6  and  C_7
REMARK    4  A    between atoms: C_8  and  C_9
REMARK    5  A    between atoms: C_17  and  C_18
REMARK    6  A    between atoms: C_22  and  C_23
REMARK    7  A    between atoms: C_27  and  C_28
REMARK    8  A    between atoms: C_28  and  O_29
REMARK                            x       y       z     vdW  Elec       q    Type
REMARK                         _______ _______ _______ _____ _____    ______ ____
ROOT
ATOM      1  C   UNL     1       4.503   6.326  17.405  0.00  0.00    +0.000 A 
ATOM      2  N   UNL     1       4.009   5.331  18.152  0.00  0.00    +0.000 NA
ATOM      3  C   UNL     1       2.944   5.570  18.929  0.00  0.00    +0.000 A 
ATOM      4  N   UNL     1       2.516   4.476  19.674  0.00  0.00    +0.000 N 
ATOM      5  C   UNL     1       1.852   4.643  20.976  0.00  0.00    +0.000 C 
ATOM      6  C   UNL     1       2.074   3.418  21.863  0.00  0.00    +0.000 C 
ATOM      7  O   UNL     1       1.589   2.238  21.215  0.00  0.00    +0.000 OA
ATOM      8  C   UNL     1       2.302   2.034  19.985  0.00  0.00    +0.000 C 
ATOM      9  C   UNL     1       2.113   3.212  18.991  0.00  0.00    +0.000 C 
ATOM     10  C   UNL     1       2.858   2.853  17.708  0.00  0.00    +0.000 C 
ATOM     11  C   UNL     1       2.397   6.874  18.988  0.00  0.00    +0.000 A 
ATOM     12  C   UNL     1       1.284   7.310  19.748  0.00  0.00    +0.000 A 
ATOM     13  C   UNL     1       0.884   8.631  19.754  0.00  0.00    +0.000 A 
ATOM     14  C   UNL     1       1.558   9.518  18.947  0.00  0.00    +0.000 A 
ATOM     15  N   UNL     1       2.600   9.118  18.181  0.00  0.00    +0.000 NA
ATOM     16  C   UNL     1       3.015   7.848  18.192  0.00  0.00    +0.000 A 
ATOM     17  N   UNL     1       4.040   7.573  17.406  0.00  0.00    +0.000 NA
ENDROOT
BRANCH   1  25
ATOM     18  C   UNL     1       7.658   7.321  17.464  0.00  0.00    +0.000 C 
ATOM     19  C   UNL     1       6.966   6.408  16.523  0.00  0.00    +0.000 A 
ATOM     20  N   UNL     1       7.668   5.854  15.526  0.00  0.00    +0.000 NA
ATOM     21  N   UNL     1       6.777   5.087  14.879  0.00  0.00    +0.000 N 
ATOM     22  C   UNL     1       7.224   4.333  13.731  0.00  0.00    +0.000 C 
ATOM     23  C   UNL     1       5.525   5.111  15.433  0.00  0.00    +0.000 A 
ATOM     24  C   UNL     1       4.389   4.292  14.928  0.00  0.00    +0.000 C 
ATOM     25  C   UNL     1       5.599   5.994  16.506  0.00  0.00    +0.000 A 
ENDBRANCH   1  25
BRANCH  14  26
ATOM     26  C   UNL     1       1.222  10.953  18.938  0.00  0.00    +0.000 A 
ATOM     27  C   UNL     1       2.085  11.922  18.388  0.00  0.00    +0.000 A 
ATOM     28  C   UNL     1       1.702  13.257  18.281  0.00  0.00    +0.000 A 
ATOM     29  C   UNL     1       0.451  13.656  18.745  0.00  0.00    +0.000 A 
ATOM     30  C   UNL     1      -0.420  12.727  19.324  0.00  0.00    +0.000 A 
ATOM     31  C   UNL     1      -0.021  11.388  19.425  0.00  0.00    +0.000 A 
BRANCH  30  32
ATOM     32  C   UNL     1      -1.785  13.143  19.799  0.00  0.00    +0.000 C 
BRANCH  32  33
ATOM     33  O   UNL     1      -2.787  12.569  18.976  0.00  0.00    +0.000 OA
ATOM     34  H   UNL     1      -2.408  12.512  18.082  0.00  0.00    +0.000 HD
ENDBRANCH  32  33
ENDBRANCH  30  32
ENDBRANCH  14  26
TORSDOF 4
ENDMDL
MODEL 4
REMARK VINA RESULT:      -7.7      4.150      9.661
REMARK  Name = 
REMARK  8 active torsions:
REMARK  status: ('A' for Active; 'I' for Inactive)
REMARK    1  A    between atoms: C_1  and  C_2
REMARK    2  A    between atoms: N_4  and  C_5
REMARK    3  A    between atoms: C_6  and  C_7
REMARK    4  A    between atoms: C_8  and  C_9
REMARK    5  A    between atoms: C_17  and  C_18
REMARK    6  A    between atoms: C_22  and  C_23
REMARK    7  A    between atoms: C_27  and  C_28
REMARK    8  A    between atoms: C_28  and  O_29
REMARK                            x       y       z     vdW  Elec       q    Type
REMARK                         _______ _______ _______ _____ _____    ______ ____
ROOT
ATOM      1  C   UNL     1       0.582  13.608  20.036  0.00  0.00    +0.000 A 
ATOM      2  N   UNL     1      -0.321  13.782  21.008  0.00  0.00    +0.000 NA
ATOM      3  C   UNL     1      -0.695  12.725  21.743  0.00  0.00    +0.000 A 
ATOM      4  N   UNL     1      -1.646  13.008  22.718  0.00  0.00    +0.000 N 
ATOM      5  C   UNL     1      -2.616  11.996  23.163  0.00  0.00    +0.000 C 
ATOM      6  C   UNL     1      -3.894  12.656  23.680  0.00  0.00    +0.000 C 
ATOM      7  O   UNL     1      -3.595  13.552  24.755  0.00  0.00    +0.000 OA
ATOM      8  C   UNL     1      -2.713  14.587  24.290  0.00  0.00    +0.000 C 
ATOM      9  C   UNL     1      -1.361  14.024  23.774  0.00  0.00    +0.000 C 
ATOM     10  C   UNL     1      -0.494  15.213  23.371  0.00  0.00    +0.000 C 
ATOM     11  C   UNL     1      -0.173  11.444  21.445  0.00  0.00    +0.000 A 
ATOM     12  C   UNL     1      -0.453  10.223  22.106  0.00  0.00    +0.000 A 
ATOM     13  C   UNL     1       0.088   9.027  21.678  0.00  0.00    +0.000 A 
ATOM     14  C   UNL     1       0.967   9.053  20.619  0.00  0.00    +0.000 A 
ATOM     15  N   UNL     1       1.281  10.213  19.996  0.00  0.00    +0.000 NA
ATOM     16  C   UNL     1       0.739  11.371  20.383  0.00  0.00    +0.000 A 
ATOM     17  N   UNL     1       1.117  12.437  19.702  0.00  0.00    +0.000 NA
ENDROOT
BRANCH   1  25
ATOM     18  C   UNL     1       3.466  14.219  18.531  0.00  0.00    +0.000 C 
ATOM     19  C   UNL     1       2.263  15.076  18.668  0.00  0.00    +0.000 A 
ATOM     20  N   UNL     1       2.272  16.293  18.109  0.00  0.00    +0.000 NA
ATOM     21  N   UNL     1       1.060  16.796  18.394  0.00  0.00    +0.000 N 
ATOM     22  C   UNL     1       0.738  18.122  17.919  0.00  0.00    +0.000 C 
ATOM     23  C   UNL     1       0.261  15.939  19.102  0.00  0.00    +0.000 A 
ATOM     24  C   UNL     1      -1.146  16.251  19.477  0.00  0.00    +0.000 C 
ATOM     25  C   UNL     1       1.028  14.800  19.329  0.00  0.00    +0.000 A 
ENDBRANCH   1  25
BRANCH  14  26
ATOM     26  C   UNL     1       1.545   7.812  20.075  0.00  0.00    +0.000 A 
ATOM     27  C   UNL     1       2.299   7.796  18.884  0.00  0.00    +0.000 A 
ATOM     28  C   UNL     1       2.937   6.637  18.445  0.00  0.00    +0.000 A 
ATOM     29  C   UNL     1       2.814   5.461  19.180  0.00  0.00    +0.000 A 
ATOM     30  C   UNL     1       2.049   5.432  20.351  0.00  0.00    +0.000 A 
ATOM     31  C   UNL     1       1.414   6.604  20.779  0.00  0.00    +0.000 A 
BRANCH  30  32
ATOM     32  C   UNL     1       1.938   4.175  21.166  0.00  0.00    +0.000 C 
BRANCH  32  33
ATOM     33  O   UNL     1       0.806   3.423  20.759  0.00  0.00    +0.000 OA
ATOM     34  H   UNL     1       0.580   2.843  21.506  0.00  0.00    +0.000 HD
ENDBRANCH  32  33
ENDBRANCH  30  32
ENDBRANCH  14  26
TORSDOF 4
ENDMDL
MODEL 5
REMARK VINA RESULT:      -7.3      4.435      9.862
REMARK  Name = 
REMARK  8 active torsions:
REMARK  status: ('A' for Active; 'I' for Inactive)
REMARK    1  A    between atoms: C_1  and  C_2
REMARK    2  A    between atoms: N_4  and  C_5
REMARK    3  A    between atoms: C_6  and  C_7
REMARK    4  A    between atoms: C_8  and  C_9
REMARK    5  A    between atoms: C_17  and  C_18
REMARK    6  A    between atoms: C_22  and  C_23
REMARK    7  A    between atoms: C_27  and  C_28
REMARK    8  A    between atoms: C_28  and  O_29
REMARK                            x       y       z     vdW  Elec       q    Type
REMARK                         _______ _______ _______ _____ _____    ______ ____
ROOT
ATOM      1  C   UNL     1       0.910  13.897  20.782  0.00  0.00    +0.000 A 
ATOM      2  N   UNL     1      -0.154  14.028  21.584  0.00  0.00    +0.000 NA
ATOM      3  C   UNL     1      -0.738  12.925  22.071  0.00  0.00    +0.000 A 
ATOM      4  N   UNL     1      -1.841  13.168  22.884  0.00  0.00    +0.000 N 
ATOM      5  C   UNL     1      -2.949  12.206  22.986  0.00  0.00    +0.000 C 
ATOM      6  C   UNL     1      -4.255  12.913  23.349  0.00  0.00    +0.000 C 
ATOM      7  O   UNL     1      -4.111  13.626  24.581  0.00  0.00    +0.000 OA
ATOM      8  C   UNL     1      -3.085  14.622  24.448  0.00  0.00    +0.000 C 
ATOM      9  C   UNL     1      -1.700  14.003  24.114  0.00  0.00    +0.000 C 
ATOM     10  C   UNL     1      -0.689  15.144  24.060  0.00  0.00    +0.000 C 
ATOM     11  C   UNL     1      -0.259  11.649  21.689  0.00  0.00    +0.000 A 
ATOM     12  C   UNL     1      -0.749  10.385  22.097  0.00  0.00    +0.000 A 
ATOM     13  C   UNL     1      -0.220   9.210  21.605  0.00  0.00    +0.000 A 
ATOM     14  C   UNL     1       0.850   9.289  20.743  0.00  0.00    +0.000 A 
ATOM     15  N   UNL     1       1.362  10.485  20.369  0.00  0.00    +0.000 NA
ATOM     16  C   UNL     1       0.837  11.629  20.816  0.00  0.00    +0.000 A 
ATOM     17  N   UNL     1       1.416  12.733  20.383  0.00  0.00    +0.000 NA
ENDROOT
BRANCH   1  25
ATOM     18  C   UNL     1      -0.055  16.152  18.561  0.00  0.00    +0.000 C 
ATOM     19  C   UNL     1       1.162  16.109  19.406  0.00  0.00    +0.000 A 
ATOM     20  N   UNL     1       2.045  17.113  19.318  0.00  0.00    +0.000 NA
ATOM     21  N   UNL     1       3.004  16.790  20.200  0.00  0.00    +0.000 N 
ATOM     22  C   UNL     1       4.124  17.687  20.356  0.00  0.00    +0.000 C 
ATOM     23  C   UNL     1       2.763  15.620  20.870  0.00  0.00    +0.000 A 
ATOM     24  C   UNL     1       3.652  15.091  21.941  0.00  0.00    +0.000 C 
ATOM     25  C   UNL     1       1.569  15.123  20.355  0.00  0.00    +0.000 A 
ENDBRANCH   1  25
BRANCH  14  26
ATOM     26  C   UNL     1       1.436   8.080  20.137  0.00  0.00    +0.000 A 
ATOM     27  C   UNL     1       2.141   8.120  18.917  0.00  0.00    +0.000 A 
ATOM     28  C   UNL     1       2.788   6.992  18.417  0.00  0.00    +0.000 A 
ATOM     29  C   UNL     1       2.725   5.791  19.119  0.00  0.00    +0.000 A 
ATOM     30  C   UNL     1       2.009   5.708  20.318  0.00  0.00    +0.000 A 
ATOM     31  C   UNL     1       1.363   6.849  20.808  0.00  0.00    +0.000 A 
BRANCH  30  32
ATOM     32  C   UNL     1       1.962   4.423  21.097  0.00  0.00    +0.000 C 
BRANCH  32  33
ATOM     33  O   UNL     1       0.844   3.647  20.698  0.00  0.00    +0.000 OA
ATOM     34  H   UNL     1       0.252   3.605  21.469  0.00  0.00    +0.000 HD
ENDBRANCH  32  33
ENDBRANCH  30  32
ENDBRANCH  14  26
TORSDOF 4
ENDMDL
MODEL 6
REMARK VINA RESULT:      -7.3      4.311      9.460
REMARK  Name = 
REMARK  8 active torsions:
REMARK  status: ('A' for Active; 'I' for Inactive)
REMARK    1  A    between atoms: C_1  and  C_2
REMARK    2  A    between atoms: N_4  and  C_5
REMARK    3  A    between atoms: C_6  and  C_7
REMARK    4  A    between atoms: C_8  and  C_9
REMARK    5  A    between atoms: C_17  and  C_18
REMARK    6  A    between atoms: C_22  and  C_23
REMARK    7  A    between atoms: C_27  and  C_28
REMARK    8  A    between atoms: C_28  and  O_29
REMARK                            x       y       z     vdW  Elec       q    Type
REMARK                         _______ _______ _______ _____ _____    ______ ____
ROOT
ATOM      1  C   UNL     1       0.439  13.559  20.150  0.00  0.00    +0.000 A 
ATOM      2  N   UNL     1      -0.461  13.757  21.121  0.00  0.00    +0.000 NA
ATOM      3  C   UNL     1      -0.804  12.727  21.907  0.00  0.00    +0.000 A 
ATOM      4  N   UNL     1      -1.754  13.033  22.876  0.00  0.00    +0.000 N 
ATOM      5  C   UNL     1      -2.698  12.021  23.376  0.00  0.00    +0.000 C 
ATOM      6  C   UNL     1      -3.986  12.675  23.874  0.00  0.00    +0.000 C 
ATOM      7  O   UNL     1      -3.699  13.626  24.903  0.00  0.00    +0.000 OA
ATOM      8  C   UNL     1      -2.846  14.659  24.384  0.00  0.00    +0.000 C 
ATOM      9  C   UNL     1      -1.485  14.103  23.882  0.00  0.00    +0.000 C 
ATOM     10  C   UNL     1      -0.648  15.291  23.417  0.00  0.00    +0.000 C 
ATOM     11  C   UNL     1      -0.255  11.445  21.664  0.00  0.00    +0.000 A 
ATOM     12  C   UNL     1      -0.502  10.250  22.382  0.00  0.00    +0.000 A 
ATOM     13  C   UNL     1       0.063   9.049  22.006  0.00  0.00    +0.000 A 
ATOM     14  C   UNL     1       0.933   9.045  20.939  0.00  0.00    +0.000 A 
ATOM     15  N   UNL     1       1.215  10.182  20.261  0.00  0.00    +0.000 NA
ATOM     16  C   UNL     1       0.649  11.345  20.599  0.00  0.00    +0.000 A 
ATOM     17  N   UNL     1       0.998  12.386  19.866  0.00  0.00    +0.000 NA
ENDROOT
BRANCH   1  25
ATOM     18  C   UNL     1      -1.173  16.393  19.587  0.00  0.00    +0.000 C 
ATOM     19  C   UNL     1       0.172  15.959  19.140  0.00  0.00    +0.000 A 
ATOM     20  N   UNL     1       0.910  16.799  18.402  0.00  0.00    +0.000 NA
ATOM     21  N   UNL     1       2.051  16.129  18.179  0.00  0.00    +0.000 N 
ATOM     22  C   UNL     1       3.084  16.772  17.402  0.00  0.00    +0.000 C 
ATOM     23  C   UNL     1       2.086  14.891  18.763  0.00  0.00    +0.000 A 
ATOM     24  C   UNL     1       3.271  13.991  18.708  0.00  0.00    +0.000 C 
ATOM     25  C   UNL     1       0.852  14.727  19.385  0.00  0.00    +0.000 A 
ENDBRANCH   1  25
BRANCH  14  26
ATOM     26  C   UNL     1       1.535   7.794  20.447  0.00  0.00    +0.000 A 
ATOM     27  C   UNL     1       1.266   6.546  21.046  0.00  0.00    +0.000 A 
ATOM     28  C   UNL     1       1.749   5.360  20.498  0.00  0.00    +0.000 A 
ATOM     29  C   UNL     1       2.533   5.399  19.348  0.00  0.00    +0.000 A 
ATOM     30  C   UNL     1       2.846   6.622  18.744  0.00  0.00    +0.000 A 
ATOM     31  C   UNL     1       2.354   7.806  19.306  0.00  0.00    +0.000 A 
BRANCH  30  32
ATOM     32  C   UNL     1       3.666   6.671  17.485  0.00  0.00    +0.000 C 
BRANCH  32  33
ATOM     33  O   UNL     1       4.188   5.386  17.189  0.00  0.00    +0.000 OA
ATOM     34  H   UNL     1       3.631   5.022  16.479  0.00  0.00    +0.000 HD
ENDBRANCH  32  33
ENDBRANCH  30  32
ENDBRANCH  14  26
TORSDOF 4
ENDMDL
MODEL 7
REMARK VINA RESULT:      -7.2      4.301      9.500
REMARK  Name = 
REMARK  8 active torsions:
REMARK  status: ('A' for Active; 'I' for Inactive)
REMARK    1  A    between atoms: C_1  and  C_2
REMARK    2  A    between atoms: N_4  and  C_5
REMARK    3  A    between atoms: C_6  and  C_7
REMARK    4  A    between atoms: C_8  and  C_9
REMARK    5  A    between atoms: C_17  and  C_18
REMARK    6  A    between atoms: C_22  and  C_23
REMARK    7  A    between atoms: C_27  and  C_28
REMARK    8  A    between atoms: C_28  and  O_29
REMARK                            x       y       z     vdW  Elec       q    Type
REMARK                         _______ _______ _______ _____ _____    ______ ____
ROOT
ATOM      1  C   UNL     1       0.571  13.535  20.156  0.00  0.00    +0.000 A 
ATOM      2  N   UNL     1      -0.348  13.745  21.105  0.00  0.00    +0.000 NA
ATOM      3  C   UNL     1      -0.731  12.717  21.875  0.00  0.00    +0.000 A 
ATOM      4  N   UNL     1      -1.699  13.035  22.822  0.00  0.00    +0.000 N 
ATOM      5  C   UNL     1      -2.674  12.038  23.292  0.00  0.00    +0.000 C 
ATOM      6  C   UNL     1      -3.962  12.713  23.762  0.00  0.00    +0.000 C 
ATOM      7  O   UNL     1      -3.682  13.653  24.804  0.00  0.00    +0.000 OA
ATOM      8  C   UNL     1      -2.797  14.672  24.313  0.00  0.00    +0.000 C 
ATOM      9  C   UNL     1      -1.435  14.093  23.842  0.00  0.00    +0.000 C 
ATOM     10  C   UNL     1      -0.564  15.268  23.406  0.00  0.00    +0.000 C 
ATOM     11  C   UNL     1      -0.200  11.426  21.638  0.00  0.00    +0.000 A 
ATOM     12  C   UNL     1      -0.488  10.232  22.342  0.00  0.00    +0.000 A 
ATOM     13  C   UNL     1       0.064   9.022  21.971  0.00  0.00    +0.000 A 
ATOM     14  C   UNL     1       0.960   9.009  20.927  0.00  0.00    +0.000 A 
ATOM     15  N   UNL     1       1.281  10.144  20.263  0.00  0.00    +0.000 NA
ATOM     16  C   UNL     1       0.728  11.315  20.595  0.00  0.00    +0.000 A 
ATOM     17  N   UNL     1       1.115  12.354  19.877  0.00  0.00    +0.000 NA
ENDROOT
BRANCH   1  25
ATOM     18  C   UNL     1       3.415  14.033  18.539  0.00  0.00    +0.000 C 
ATOM     19  C   UNL     1       2.243  14.927  18.699  0.00  0.00    +0.000 A 
ATOM     20  N   UNL     1       2.266  16.132  18.116  0.00  0.00    +0.000 NA
ATOM     21  N   UNL     1       1.080  16.676  18.432  0.00  0.00    +0.000 N 
ATOM     22  C   UNL     1       0.779  18.000  17.942  0.00  0.00    +0.000 C 
ATOM     23  C   UNL     1       0.282  15.856  19.185  0.00  0.00    +0.000 A 
ATOM     24  C   UNL     1      -1.101  16.216  19.603  0.00  0.00    +0.000 C 
ATOM     25  C   UNL     1       1.025  14.700  19.409  0.00  0.00    +0.000 A 
ENDBRANCH   1  25
BRANCH  14  26
ATOM     26  C   UNL     1       1.550   7.749  20.442  0.00  0.00    +0.000 A 
ATOM     27  C   UNL     1       1.261   6.506  21.041  0.00  0.00    +0.000 A 
ATOM     28  C   UNL     1       1.734   5.313  20.499  0.00  0.00    +0.000 A 
ATOM     29  C   UNL     1       2.527   5.340  19.355  0.00  0.00    +0.000 A 
ATOM     30  C   UNL     1       2.858   6.557  18.750  0.00  0.00    +0.000 A 
ATOM     31  C   UNL     1       2.377   7.749  19.307  0.00  0.00    +0.000 A 
BRANCH  30  32
ATOM     32  C   UNL     1       3.688   6.594  17.497  0.00  0.00    +0.000 C 
BRANCH  32  33
ATOM     33  O   UNL     1       4.103   5.284  17.145  0.00  0.00    +0.000 OA
ATOM     34  H   UNL     1       3.501   4.674  17.604  0.00  0.00    +0.000 HD
ENDBRANCH  32  33
ENDBRANCH  30  32
ENDBRANCH  14  26
TORSDOF 4
ENDMDL
MODEL 8
REMARK VINA RESULT:      -7.0      1.363      1.612
REMARK  Name = 
REMARK  8 active torsions:
REMARK  status: ('A' for Active; 'I' for Inactive)
REMARK    1  A    between atoms: C_1  and  C_2
REMARK    2  A    between atoms: N_4  and  C_5
REMARK    3  A    between atoms: C_6  and  C_7
REMARK    4  A    between atoms: C_8  and  C_9
REMARK    5  A    between atoms: C_17  and  C_18
REMARK    6  A    between atoms: C_22  and  C_23
REMARK    7  A    between atoms: C_27  and  C_28
REMARK    8  A    between atoms: C_28  and  O_29
REMARK                            x       y       z     vdW  Elec       q    Type
REMARK                         _______ _______ _______ _____ _____    ______ ____
ROOT
ATOM      1  C   UNL     1       4.491   6.282  17.605  0.00  0.00    +0.000 A 
ATOM      2  N   UNL     1       3.993   5.251  18.300  0.00  0.00    +0.000 NA
ATOM      3  C   UNL     1       2.941   5.458  19.103  0.00  0.00    +0.000 A 
ATOM      4  N   UNL     1       2.508   4.329  19.789  0.00  0.00    +0.000 N 
ATOM      5  C   UNL     1       1.863   4.429  21.107  0.00  0.00    +0.000 C 
ATOM      6  C   UNL     1       2.078   3.152  21.919  0.00  0.00    +0.000 C 
ATOM      7  O   UNL     1       1.571   2.017  21.211  0.00  0.00    +0.000 OA
ATOM      8  C   UNL     1       2.265   1.875  19.962  0.00  0.00    +0.000 C 
ATOM      9  C   UNL     1       2.079   3.111  19.039  0.00  0.00    +0.000 C 
ATOM     10  C   UNL     1       2.804   2.817  17.729  0.00  0.00    +0.000 C 
ATOM     11  C   UNL     1       2.412   6.764  19.243  0.00  0.00    +0.000 A 
ATOM     12  C   UNL     1       1.315   7.169  20.042  0.00  0.00    +0.000 A 
ATOM     13  C   UNL     1       0.933   8.492  20.129  0.00  0.00    +0.000 A 
ATOM     14  C   UNL     1       1.608   9.416  19.366  0.00  0.00    +0.000 A 
ATOM     15  N   UNL     1       2.635   9.048  18.564  0.00  0.00    +0.000 NA
ATOM     16  C   UNL     1       3.033   7.774  18.497  0.00  0.00    +0.000 A 
ATOM     17  N   UNL     1       4.045   7.532  17.684  0.00  0.00    +0.000 NA
ENDROOT
BRANCH   1  25
ATOM     18  C   UNL     1       7.609   7.388  17.572  0.00  0.00    +0.000 C 
ATOM     19  C   UNL     1       6.923   6.450  16.651  0.00  0.00    +0.000 A 
ATOM     20  N   UNL     1       7.615   5.921  15.634  0.00  0.00    +0.000 NA
ATOM     21  N   UNL     1       6.734   5.123  15.012  0.00  0.00    +0.000 N 
ATOM     22  C   UNL     1       7.174   4.384  13.852  0.00  0.00    +0.000 C 
ATOM     23  C   UNL     1       5.498   5.102  15.603  0.00  0.00    +0.000 A 
ATOM     24  C   UNL     1       4.377   4.243  15.131  0.00  0.00    +0.000 C 
ATOM     25  C   UNL     1       5.572   5.989  16.674  0.00  0.00    +0.000 A 
ENDBRANCH   1  25
BRANCH  14  26
ATOM     26  C   UNL     1       1.291  10.853  19.444  0.00  0.00    +0.000 A 
ATOM     27  C   UNL     1       1.500  11.727  18.358  0.00  0.00    +0.000 A 
ATOM     28  C   UNL     1       1.086  13.057  18.407  0.00  0.00    +0.000 A 
ATOM     29  C   UNL     1       0.472  13.546  19.557  0.00  0.00    +0.000 A 
ATOM     30  C   UNL     1       0.275  12.715  20.665  0.00  0.00    +0.000 A 
ATOM     31  C   UNL     1       0.696  11.382  20.601  0.00  0.00    +0.000 A 
BRANCH  30  32
ATOM     32  C   UNL     1      -0.416  13.228  21.898  0.00  0.00    +0.000 C 
BRANCH  32  33
ATOM     33  O   UNL     1       0.406  14.172  22.565  0.00  0.00    +0.000 OA
ATOM     34  H   UNL     1       0.025  14.288  23.452  0.00  0.00    +0.000 HD
ENDBRANCH  32  33
ENDBRANCH  30  32
ENDBRANCH  14  26
TORSDOF 4
ENDMDL
MODEL 9
REMARK VINA RESULT:      -6.9      4.669     10.086
REMARK  Name = 
REMARK  8 active torsions:
REMARK  status: ('A' for Active; 'I' for Inactive)
REMARK    1  A    between atoms: C_1  and  C_2
REMARK    2  A    between atoms: N_4  and  C_5
REMARK    3  A    between atoms: C_6  and  C_7
REMARK    4  A    between atoms: C_8  and  C_9
REMARK    5  A    between atoms: C_17  and  C_18
REMARK    6  A    between atoms: C_22  and  C_23
REMARK    7  A    between atoms: C_27  and  C_28
REMARK    8  A    between atoms: C_28  and  O_29
REMARK                            x       y       z     vdW  Elec       q    Type
REMARK                         _______ _______ _______ _____ _____    ______ ____
ROOT
ATOM      1  C   UNL     1      -0.399  14.397  20.039  0.00  0.00    +0.000 A 
ATOM      2  N   UNL     1      -1.157  14.362  21.142  0.00  0.00    +0.000 NA
ATOM      3  C   UNL     1      -1.235  13.221  21.840  0.00  0.00    +0.000 A 
ATOM      4  N   UNL     1      -2.057  13.285  22.960  0.00  0.00    +0.000 N 
ATOM      5  C   UNL     1      -2.769  12.100  23.462  0.00  0.00    +0.000 C 
ATOM      6  C   UNL     1      -4.042  12.501  24.206  0.00  0.00    +0.000 C 
ATOM      7  O   UNL     1      -3.730  13.381  25.292  0.00  0.00    +0.000 OA
ATOM      8  C   UNL     1      -3.113  14.575  24.785  0.00  0.00    +0.000 C 
ATOM      9  C   UNL     1      -1.783  14.280  24.039  0.00  0.00    +0.000 C 
ATOM     10  C   UNL     1      -1.194  15.620  23.607  0.00  0.00    +0.000 C 
ATOM     11  C   UNL     1      -0.563  12.066  21.374  0.00  0.00    +0.000 A 
ATOM     12  C   UNL     1      -0.535  10.783  21.972  0.00  0.00    +0.000 A 
ATOM     13  C   UNL     1       0.122   9.723  21.382  0.00  0.00    +0.000 A 
ATOM     14  C   UNL     1       0.810   9.954  20.213  0.00  0.00    +0.000 A 
ATOM     15  N   UNL     1       0.830  11.180  19.641  0.00  0.00    +0.000 NA
ATOM     16  C   UNL     1       0.172  12.206  20.189  0.00  0.00    +0.000 A 
ATOM     17  N   UNL     1       0.262  13.354  19.543  0.00  0.00    +0.000 NA
ENDROOT
BRANCH   1  25
ATOM     18  C   UNL     1      -2.509  16.943  19.924  0.00  0.00    +0.000 C 
ATOM     19  C   UNL     1      -1.165  16.793  19.316  0.00  0.00    +0.000 A 
ATOM     20  N   UNL     1      -0.659  17.812  18.609  0.00  0.00    +0.000 NA
ATOM     21  N   UNL     1       0.548  17.375  18.216  0.00  0.00    +0.000 N 
ATOM     22  C   UNL     1       1.372  18.256  17.422  0.00  0.00    +0.000 C 
ATOM     23  C   UNL     1       0.849  16.115  18.660  0.00  0.00    +0.000 A 
ATOM     24  C   UNL     1       2.154  15.446  18.405  0.00  0.00    +0.000 C 
ATOM     25  C   UNL     1      -0.269  15.683  19.368  0.00  0.00    +0.000 A 
ENDBRANCH   1  25
BRANCH  14  26
ATOM     26  C   UNL     1       1.492   8.860  19.498  0.00  0.00    +0.000 A 
ATOM     27  C   UNL     1       2.001   9.021  18.193  0.00  0.00    +0.000 A 
ATOM     28  C   UNL     1       2.745   8.017  17.576  0.00  0.00    +0.000 A 
ATOM     29  C   UNL     1       2.977   6.819  18.246  0.00  0.00    +0.000 A 
ATOM     30  C   UNL     1       2.462   6.613  19.531  0.00  0.00    +0.000 A 
ATOM     31  C   UNL     1       1.716   7.631  20.138  0.00  0.00    +0.000 A 
BRANCH  30  32
ATOM     32  C   UNL     1       2.735   5.335  20.273  0.00  0.00    +0.000 C 
BRANCH  32  33
ATOM     33  O   UNL     1       2.687   4.231  19.385  0.00  0.00    +0.000 OA
ATOM     34  H   UNL     1       3.030   4.551  18.533  0.00  0.00    +0.000 HD
ENDBRANCH  32  33
ENDBRANCH  30  32
ENDBRANCH  14  26
TORSDOF 4
ENDMDL
