MODEL 1
REMARK VINA RESULT:      -7.7      0.000      0.000
REMARK  Name = 
REMARK  7 active torsions:
REMARK  status: ('A' for Active; 'I' for Inactive)
REMARK    1  A    between atoms: C_1  and  O_2
REMARK    2  A    between atoms: O_2  and  C_3
REMARK    3  A    between atoms: C_6  and  C_7
REMARK    4  A    between atoms: C_7  and  N_8
REMARK    5  A    between atoms: C_9  and  C_11
REMARK    6  A    between atoms: C_27  and  O_28
REMARK    7  A    between atoms: O_28  and  C_29
REMARK                            x       y       z     vdW  Elec       q    Type
REMARK                         _______ _______ _______ _____ _____    ______ ____
ROOT
ATOM      1  C   UNL     1       0.755  11.034  18.379  0.00  0.00    +0.000 C 
ATOM      2  C   UNL     1       1.228  12.392  18.941  0.00  0.00    +0.000 C 
ATOM      3  C   UNL     1       1.250  12.562  20.474  0.00  0.00    +0.000 C 
ATOM      4  N   UNL     1       0.180  11.823  21.113  0.00  0.00    +0.000 N 
ATOM      5  C   UNL     1      -0.711  12.294  22.027  0.00  0.00    +0.000 A 
ATOM      6  N   UNL     1      -1.776  11.661  22.468  0.00  0.00    +0.000 NA
ATOM      7  C   UNL     1      -2.415  12.515  23.327  0.00  0.00    +0.000 A 
ATOM      8  C   UNL     1      -3.618  12.345  24.028  0.00  0.00    +0.000 A 
ATOM      9  C   UNL     1      -4.087  13.393  24.826  0.00  0.00    +0.000 A 
ATOM     10  C   UNL     1      -3.360  14.582  24.940  0.00  0.00    +0.000 A 
ATOM     11  C   UNL     1      -2.139  14.760  24.264  0.00  0.00    +0.000 A 
ATOM     12  C   UNL     1      -1.709  13.705  23.456  0.00  0.00    +0.000 A 
ATOM     13  N   UNL     1      -0.613  13.523  22.639  0.00  0.00    +0.000 N 
ATOM     14  C   UNL     1       0.119  10.408  20.757  0.00  0.00    +0.000 C 
ATOM     15  C   UNL     1      -0.246  10.305  19.285  0.00  0.00    +0.000 C 
ATOM     16  H   UNL     1       0.136  14.182  22.513  0.00  0.00    +0.000 HD
ENDROOT
BRANCH   1  18
ATOM     17  N   UNL     1       1.636   8.771  18.099  0.00  0.00    +0.000 N 
ATOM     18  C   UNL     1       1.909  10.123  17.939  0.00  0.00    +0.000 C 
ATOM     19  O   UNL     1       2.983  10.544  17.527  0.00  0.00    +0.000 OA
ATOM     20  H   UNL     1       0.720   8.489  18.417  0.00  0.00    +0.000 HD
BRANCH  17  21
ATOM     21  C   UNL     1       2.620   7.726  17.891  0.00  0.00    +0.000 C 
BRANCH  21  25
ATOM     22  C   UNL     1       1.471   4.141  20.070  0.00  0.00    +0.000 A 
ATOM     23  C   UNL     1       1.714   5.351  20.741  0.00  0.00    +0.000 A 
ATOM     24  C   UNL     1       2.081   6.506  20.041  0.00  0.00    +0.000 A 
ATOM     25  C   UNL     1       2.259   6.471  18.656  0.00  0.00    +0.000 A 
ATOM     26  C   UNL     1       2.082   5.245  17.999  0.00  0.00    +0.000 A 
ATOM     27  C   UNL     1       1.700   4.074  18.687  0.00  0.00    +0.000 A 
BRANCH  22  29
ATOM     28  C   UNL     1       1.992   2.445  21.647  0.00  0.00    +0.000 C 
ATOM     29  O   UNL     1       1.054   3.025  20.743  0.00  0.00    +0.000 OA
ENDBRANCH  22  29
BRANCH  27  30
ATOM     30  O   UNL     1       1.585   2.999  17.846  0.00  0.00    +0.000 OA
ATOM     31  C   UNL     1       2.685   2.117  17.686  0.00  0.00    +0.000 C 
ENDBRANCH  27  30
ENDBRANCH  21  25
ENDBRANCH  17  21
ENDBRANCH   1  18
TORSDOF 5
ENDMDL
MODEL 2
REMARK VINA RESULT:      -7.7      3.775      5.988
REMARK  Name = 
REMARK  7 active torsions:
REMARK  status: ('A' for Active; 'I' for Inactive)
REMARK    1  A    between atoms: C_1  and  O_2
REMARK    2  A    between atoms: O_2  and  C_3
REMARK    3  A    between atoms: C_6  and  C_7
REMARK    4  A    between atoms: C_7  and  N_8
REMARK    5  A    between atoms: C_9  and  C_11
REMARK    6  A    between atoms: C_27  and  O_28
REMARK    7  A    between atoms: O_28  and  C_29
REMARK                            x       y       z     vdW  Elec       q    Type
REMARK                         _______ _______ _______ _____ _____    ______ ____
ROOT
ATOM      1  C   UNL     1       1.704   5.208  19.020  0.00  0.00    +0.000 C 
ATOM      2  C   UNL     1       1.838   6.480  18.156  0.00  0.00    +0.000 C 
ATOM      3  C   UNL     1       2.251   7.785  18.867  0.00  0.00    +0.000 C 
ATOM      4  N   UNL     1       1.727   7.852  20.216  0.00  0.00    +0.000 N 
ATOM      5  C   UNL     1       1.040   8.882  20.780  0.00  0.00    +0.000 A 
ATOM      6  N   UNL     1       0.428   8.860  21.944  0.00  0.00    +0.000 NA
ATOM      7  C   UNL     1      -0.178  10.080  22.093  0.00  0.00    +0.000 A 
ATOM      8  C   UNL     1      -0.992  10.552  23.133  0.00  0.00    +0.000 A 
ATOM      9  C   UNL     1      -1.529  11.840  23.036  0.00  0.00    +0.000 A 
ATOM     10  C   UNL     1      -1.242  12.650  21.934  0.00  0.00    +0.000 A 
ATOM     11  C   UNL     1      -0.407  12.202  20.895  0.00  0.00    +0.000 A 
ATOM     12  C   UNL     1       0.094  10.903  21.008  0.00  0.00    +0.000 A 
ATOM     13  N   UNL     1       0.896  10.124  20.201  0.00  0.00    +0.000 N 
ATOM     14  C   UNL     1       2.041   6.695  21.050  0.00  0.00    +0.000 C 
ATOM     15  C   UNL     1       1.316   5.487  20.478  0.00  0.00    +0.000 C 
ATOM     16  H   UNL     1       1.310  10.416  19.333  0.00  0.00    +0.000 HD
ENDROOT
BRANCH   1  18
ATOM     17  N   UNL     1       3.384   4.125  17.611  0.00  0.00    +0.000 N 
ATOM     18  C   UNL     1       2.912   4.268  18.910  0.00  0.00    +0.000 C 
ATOM     19  O   UNL     1       3.389   3.667  19.864  0.00  0.00    +0.000 OA
ATOM     20  H   UNL     1       2.963   4.671  16.873  0.00  0.00    +0.000 HD
BRANCH  17  21
ATOM     21  C   UNL     1       4.418   3.181  17.235  0.00  0.00    +0.000 C 
BRANCH  21  25
ATOM     22  C   UNL     1       7.222   5.069  14.498  0.00  0.00    +0.000 A 
ATOM     23  C   UNL     1       6.484   3.938  14.114  0.00  0.00    +0.000 A 
ATOM     24  C   UNL     1       5.579   3.331  14.992  0.00  0.00    +0.000 A 
ATOM     25  C   UNL     1       5.422   3.812  16.294  0.00  0.00    +0.000 A 
ATOM     26  C   UNL     1       6.211   4.899  16.695  0.00  0.00    +0.000 A 
ATOM     27  C   UNL     1       7.119   5.530  15.819  0.00  0.00    +0.000 A 
BRANCH  22  29
ATOM     28  C   UNL     1       7.864   5.418  12.239  0.00  0.00    +0.000 C 
ATOM     29  O   UNL     1       8.063   5.702  13.623  0.00  0.00    +0.000 OA
ENDBRANCH  22  29
BRANCH  27  30
ATOM     30  O   UNL     1       7.778   6.568  16.423  0.00  0.00    +0.000 OA
ATOM     31  C   UNL     1       7.417   6.951  17.742  0.00  0.00    +0.000 C 
ENDBRANCH  27  30
ENDBRANCH  21  25
ENDBRANCH  17  21
ENDBRANCH   1  18
TORSDOF 5
ENDMDL
MODEL 3
REMARK VINA RESULT:      -7.6      4.167     10.759
REMARK  Name = 
REMARK  7 active torsions:
REMARK  status: ('A' for Active; 'I' for Inactive)
REMARK    1  A    between atoms: C_1  and  O_2
REMARK    2  A    between atoms: O_2  and  C_3
REMARK    3  A    between atoms: C_6  and  C_7
REMARK    4  A    between atoms: C_7  and  N_8
REMARK    5  A    between atoms: C_9  and  C_11
REMARK    6  A    between atoms: C_27  and  O_28
REMARK    7  A    between atoms: O_28  and  C_29
REMARK                            x       y       z     vdW  Elec       q    Type
REMARK                         _______ _______ _______ _____ _____    ______ ____
ROOT
ATOM      1  C   UNL     1       3.938   4.047  19.643  0.00  0.00    +0.000 C 
ATOM      2  C   UNL     1       5.019   5.130  19.438  0.00  0.00    +0.000 C 
ATOM      3  C   UNL     1       5.018   5.895  18.099  0.00  0.00    +0.000 C 
ATOM      4  N   UNL     1       4.587   5.056  17.000  0.00  0.00    +0.000 N 
ATOM      5  C   UNL     1       5.217   4.879  15.807  0.00  0.00    +0.000 A 
ATOM      6  N   UNL     1       4.904   3.988  14.891  0.00  0.00    +0.000 NA
ATOM      7  C   UNL     1       5.824   4.120  13.884  0.00  0.00    +0.000 A 
ATOM      8  C   UNL     1       5.965   3.380  12.701  0.00  0.00    +0.000 A 
ATOM      9  C   UNL     1       7.022   3.687  11.837  0.00  0.00    +0.000 A 
ATOM     10  C   UNL     1       7.908   4.725  12.137  0.00  0.00    +0.000 A 
ATOM     11  C   UNL     1       7.766   5.493  13.307  0.00  0.00    +0.000 A 
ATOM     12  C   UNL     1       6.716   5.147  14.161  0.00  0.00    +0.000 A 
ATOM     13  N   UNL     1       6.287   5.632  15.378  0.00  0.00    +0.000 N 
ATOM     14  C   UNL     1       3.304   4.390  17.208  0.00  0.00    +0.000 C 
ATOM     15  C   UNL     1       3.468   3.388  18.339  0.00  0.00    +0.000 C 
ATOM     16  H   UNL     1       6.690   6.410  15.871  0.00  0.00    +0.000 HD
ENDROOT
BRANCH   1  18
ATOM     17  N   UNL     1       2.438   5.853  20.324  0.00  0.00    +0.000 N 
ATOM     18  C   UNL     1       2.764   4.516  20.512  0.00  0.00    +0.000 C 
ATOM     19  O   UNL     1       2.196   3.798  21.325  0.00  0.00    +0.000 OA
ATOM     20  H   UNL     1       2.927   6.383  19.617  0.00  0.00    +0.000 HD
BRANCH  17  21
ATOM     21  C   UNL     1       1.465   6.561  21.134  0.00  0.00    +0.000 C 
BRANCH  21  25
ATOM     22  C   UNL     1       0.998  10.696  19.869  0.00  0.00    +0.000 A 
ATOM     23  C   UNL     1       1.543   9.731  19.007  0.00  0.00    +0.000 A 
ATOM     24  C   UNL     1       1.691   8.399  19.411  0.00  0.00    +0.000 A 
ATOM     25  C   UNL     1       1.340   8.007  20.705  0.00  0.00    +0.000 A 
ATOM     26  C   UNL     1       0.861   8.988  21.584  0.00  0.00    +0.000 A 
ATOM     27  C   UNL     1       0.693  10.331  21.190  0.00  0.00    +0.000 A 
BRANCH  22  29
ATOM     28  C   UNL     1       1.708  12.488  18.484  0.00  0.00    +0.000 C 
ATOM     29  O   UNL     1       0.796  11.986  19.458  0.00  0.00    +0.000 OA
ENDBRANCH  22  29
BRANCH  27  30
ATOM     30  O   UNL     1       0.211  11.110  22.209  0.00  0.00    +0.000 OA
ATOM     31  C   UNL     1      -0.927  10.677  22.938  0.00  0.00    +0.000 C 
ENDBRANCH  27  30
ENDBRANCH  21  25
ENDBRANCH  17  21
ENDBRANCH   1  18
TORSDOF 5
ENDMDL
MODEL 4
REMARK VINA RESULT:      -7.5      1.657      2.187
REMARK  Name = 
REMARK  7 active torsions:
REMARK  status: ('A' for Active; 'I' for Inactive)
REMARK    1  A    between atoms: C_1  and  O_2
REMARK    2  A    between atoms: O_2  and  C_3
REMARK    3  A    between atoms: C_6  and  C_7
REMARK    4  A    between atoms: C_7  and  N_8
REMARK    5  A    between atoms: C_9  and  C_11
REMARK    6  A    between atoms: C_27  and  O_28
REMARK    7  A    between atoms: O_28  and  C_29
REMARK                            x       y       z     vdW  Elec       q    Type
REMARK                         _______ _______ _______ _____ _____    ______ ____
ROOT
ATOM      1  C   UNL     1      -0.110   9.992  18.690  0.00  0.00    +0.000 C 
ATOM      2  C   UNL     1      -0.828  11.249  18.156  0.00  0.00    +0.000 C 
ATOM      3  C   UNL     1      -0.975  12.449  19.115  0.00  0.00    +0.000 C 
ATOM      4  N   UNL     1      -1.142  12.022  20.489  0.00  0.00    +0.000 N 
ATOM      5  C   UNL     1      -2.105  12.425  21.362  0.00  0.00    +0.000 A 
ATOM      6  N   UNL     1      -2.344  11.905  22.546  0.00  0.00    +0.000 NA
ATOM      7  C   UNL     1      -3.426  12.571  23.057  0.00  0.00    +0.000 A 
ATOM      8  C   UNL     1      -4.109  12.370  24.266  0.00  0.00    +0.000 A 
ATOM      9  C   UNL     1      -5.224  13.167  24.550  0.00  0.00    +0.000 A 
ATOM     10  C   UNL     1      -5.637  14.158  23.655  0.00  0.00    +0.000 A 
ATOM     11  C   UNL     1      -4.949  14.389  22.451  0.00  0.00    +0.000 A 
ATOM     12  C   UNL     1      -3.855  13.562  22.184  0.00  0.00    +0.000 A 
ATOM     13  N   UNL     1      -2.976  13.465  21.126  0.00  0.00    +0.000 N 
ATOM     14  C   UNL     1      -0.114  11.106  20.972  0.00  0.00    +0.000 C 
ATOM     15  C   UNL     1      -0.245   9.799  20.207  0.00  0.00    +0.000 C 
ATOM     16  H   UNL     1      -2.972  14.060  20.315  0.00  0.00    +0.000 HD
ENDROOT
BRANCH   1  18
ATOM     17  N   UNL     1       1.747   8.567  17.983  0.00  0.00    +0.000 N 
ATOM     18  C   UNL     1       1.346   9.876  18.218  0.00  0.00    +0.000 C 
ATOM     19  O   UNL     1       2.097  10.836  18.101  0.00  0.00    +0.000 OA
ATOM     20  H   UNL     1       1.070   7.823  18.071  0.00  0.00    +0.000 HD
BRANCH  17  21
ATOM     21  C   UNL     1       3.113   8.192  17.673  0.00  0.00    +0.000 C 
BRANCH  21  25
ATOM     22  C   UNL     1       3.763   3.939  18.307  0.00  0.00    +0.000 A 
ATOM     23  C   UNL     1       4.783   4.760  17.800  0.00  0.00    +0.000 A 
ATOM     24  C   UNL     1       4.576   6.130  17.598  0.00  0.00    +0.000 A 
ATOM     25  C   UNL     1       3.330   6.706  17.855  0.00  0.00    +0.000 A 
ATOM     26  C   UNL     1       2.295   5.868  18.296  0.00  0.00    +0.000 A 
ATOM     27  C   UNL     1       2.489   4.489  18.517  0.00  0.00    +0.000 A 
BRANCH  22  29
ATOM     28  C   UNL     1       4.338   2.277  19.902  0.00  0.00    +0.000 C 
ATOM     29  O   UNL     1       3.979   2.612  18.563  0.00  0.00    +0.000 OA
ENDBRANCH  22  29
BRANCH  27  30
ATOM     30  O   UNL     1       1.344   3.872  18.947  0.00  0.00    +0.000 OA
ATOM     31  C   UNL     1       0.973   3.967  20.314  0.00  0.00    +0.000 C 
ENDBRANCH  27  30
ENDBRANCH  21  25
ENDBRANCH  17  21
ENDBRANCH   1  18
TORSDOF 5
ENDMDL
MODEL 5
REMARK VINA RESULT:      -7.5      3.751      9.708
REMARK  Name = 
REMARK  7 active torsions:
REMARK  status: ('A' for Active; 'I' for Inactive)
REMARK    1  A    between atoms: C_1  and  O_2
REMARK    2  A    between atoms: O_2  and  C_3
REMARK    3  A    between atoms: C_6  and  C_7
REMARK    4  A    between atoms: C_7  and  N_8
REMARK    5  A    between atoms: C_9  and  C_11
REMARK    6  A    between atoms: C_27  and  O_28
REMARK    7  A    between atoms: O_28  and  C_29
REMARK                            x       y       z     vdW  Elec       q    Type
REMARK                         _______ _______ _______ _____ _____    ______ ____
ROOT
ATOM      1  C   UNL     1      -0.399   9.968  20.372  0.00  0.00    +0.000 C 
ATOM      2  C   UNL     1      -0.060   9.017  21.539  0.00  0.00    +0.000 C 
ATOM      3  C   UNL     1       1.330   8.348  21.534  0.00  0.00    +0.000 C 
ATOM      4  N   UNL     1       1.789   8.070  20.189  0.00  0.00    +0.000 N 
ATOM      5  C   UNL     1       2.271   6.889  19.714  0.00  0.00    +0.000 A 
ATOM      6  N   UNL     1       2.523   6.606  18.455  0.00  0.00    +0.000 NA
ATOM      7  C   UNL     1       2.937   5.301  18.420  0.00  0.00    +0.000 A 
ATOM      8  C   UNL     1       3.281   4.502  17.319  0.00  0.00    +0.000 A 
ATOM      9  C   UNL     1       3.642   3.168  17.542  0.00  0.00    +0.000 A 
ATOM     10  C   UNL     1       3.677   2.648  18.839  0.00  0.00    +0.000 A 
ATOM     11  C   UNL     1       3.359   3.442  19.955  0.00  0.00    +0.000 A 
ATOM     12  C   UNL     1       2.980   4.762  19.699  0.00  0.00    +0.000 A 
ATOM     13  N   UNL     1       2.579   5.805  20.506  0.00  0.00    +0.000 N 
ATOM     14  C   UNL     1       1.773   9.220  19.289  0.00  0.00    +0.000 C 
ATOM     15  C   UNL     1       0.325   9.625  19.063  0.00  0.00    +0.000 C 
ATOM     16  H   UNL     1       2.523   5.779  21.509  0.00  0.00    +0.000 HD
ENDROOT
BRANCH   1  18
ATOM     17  N   UNL     1      -0.700  12.310  19.736  0.00  0.00    +0.000 N 
ATOM     18  C   UNL     1      -0.263  11.453  20.738  0.00  0.00    +0.000 C 
ATOM     19  O   UNL     1       0.224  11.847  21.790  0.00  0.00    +0.000 OA
ATOM     20  H   UNL     1      -1.118  11.919  18.904  0.00  0.00    +0.000 HD
BRANCH  17  21
ATOM     21  C   UNL     1      -0.538  13.750  19.788  0.00  0.00    +0.000 C 
BRANCH  21  25
ATOM     22  C   UNL     1       3.224  14.968  17.977  0.00  0.00    +0.000 A 
ATOM     23  C   UNL     1       2.963  13.619  18.268  0.00  0.00    +0.000 A 
ATOM     24  C   UNL     1       1.752  13.225  18.849  0.00  0.00    +0.000 A 
ATOM     25  C   UNL     1       0.788  14.175  19.194  0.00  0.00    +0.000 A 
ATOM     26  C   UNL     1       1.082  15.527  18.964  0.00  0.00    +0.000 A 
ATOM     27  C   UNL     1       2.291  15.941  18.369  0.00  0.00    +0.000 A 
BRANCH  22  29
ATOM     28  C   UNL     1       5.595  15.063  18.047  0.00  0.00    +0.000 C 
ATOM     29  O   UNL     1       4.382  15.351  17.355  0.00  0.00    +0.000 OA
ENDBRANCH  22  29
BRANCH  27  30
ATOM     30  O   UNL     1       2.361  17.302  18.239  0.00  0.00    +0.000 OA
ATOM     31  C   UNL     1       1.633  17.942  17.202  0.00  0.00    +0.000 C 
ENDBRANCH  27  30
ENDBRANCH  21  25
ENDBRANCH  17  21
ENDBRANCH   1  18
TORSDOF 5
ENDMDL
MODEL 6
REMARK VINA RESULT:      -7.5      2.363      2.788
REMARK  Name = 
REMARK  7 active torsions:
REMARK  status: ('A' for Active; 'I' for Inactive)
REMARK    1  A    between atoms: C_1  and  O_2
REMARK    2  A    between atoms: O_2  and  C_3
REMARK    3  A    between atoms: C_6  and  C_7
REMARK    4  A    between atoms: C_7  and  N_8
REMARK    5  A    between atoms: C_9  and  C_11
REMARK    6  A    between atoms: C_27  and  O_28
REMARK    7  A    between atoms: O_28  and  C_29
REMARK                            x       y       z     vdW  Elec       q    Type
REMARK                         _______ _______ _______ _____ _____    ______ ____
ROOT
ATOM      1  C   UNL     1      -0.324   9.857  18.804  0.00  0.00    +0.000 C 
ATOM      2  C   UNL     1      -1.244  10.740  17.935  0.00  0.00    +0.000 C 
ATOM      3  C   UNL     1      -1.603  12.141  18.470  0.00  0.00    +0.000 C 
ATOM      4  N   UNL     1      -1.704  12.156  19.915  0.00  0.00    +0.000 N 
ATOM      5  C   UNL     1      -2.728  12.651  20.662  0.00  0.00    +0.000 A 
ATOM      6  N   UNL     1      -2.882  12.506  21.960  0.00  0.00    +0.000 NA
ATOM      7  C   UNL     1      -4.066  13.112  22.286  0.00  0.00    +0.000 A 
ATOM      8  C   UNL     1      -4.713  13.199  23.528  0.00  0.00    +0.000 A 
ATOM      9  C   UNL     1      -5.950  13.848  23.599  0.00  0.00    +0.000 A 
ATOM     10  C   UNL     1      -6.522  14.417  22.457  0.00  0.00    +0.000 A 
ATOM     11  C   UNL     1      -5.875  14.361  21.209  0.00  0.00    +0.000 A 
ATOM     12  C   UNL     1      -4.653  13.685  21.166  0.00  0.00    +0.000 A 
ATOM     13  N   UNL     1      -3.764  13.402  20.151  0.00  0.00    +0.000 N 
ATOM     14  C   UNL     1      -0.536  11.626  20.614  0.00  0.00    +0.000 C 
ATOM     15  C   UNL     1      -0.434  10.140  20.309  0.00  0.00    +0.000 C 
ATOM     16  H   UNL     1      -3.857  13.697  19.194  0.00  0.00    +0.000 HD
ENDROOT
BRANCH   1  18
ATOM     17  N   UNL     1       1.581   8.572  17.968  0.00  0.00    +0.000 N 
ATOM     18  C   UNL     1       1.134   9.839  18.323  0.00  0.00    +0.000 C 
ATOM     19  O   UNL     1       1.848  10.832  18.295  0.00  0.00    +0.000 OA
ATOM     20  H   UNL     1       0.932   7.799  17.987  0.00  0.00    +0.000 HD
BRANCH  17  21
ATOM     21  C   UNL     1       2.959   8.279  17.624  0.00  0.00    +0.000 C 
BRANCH  21  25
ATOM     22  C   UNL     1       3.953   4.159  18.603  0.00  0.00    +0.000 A 
ATOM     23  C   UNL     1       2.896   4.823  19.247  0.00  0.00    +0.000 A 
ATOM     24  C   UNL     1       2.573   6.147  18.931  0.00  0.00    +0.000 A 
ATOM     25  C   UNL     1       3.327   6.858  17.994  0.00  0.00    +0.000 A 
ATOM     26  C   UNL     1       4.424   6.214  17.404  0.00  0.00    +0.000 A 
ATOM     27  C   UNL     1       4.756   4.876  17.702  0.00  0.00    +0.000 A 
BRANCH  22  29
ATOM     28  C   UNL     1       3.432   1.881  18.187  0.00  0.00    +0.000 C 
ATOM     29  O   UNL     1       4.235   2.846  18.865  0.00  0.00    +0.000 OA
ENDBRANCH  22  29
BRANCH  27  30
ATOM     30  O   UNL     1       5.860   4.454  17.009  0.00  0.00    +0.000 OA
ATOM     31  C   UNL     1       5.723   4.061  15.652  0.00  0.00    +0.000 C 
ENDBRANCH  27  30
ENDBRANCH  21  25
ENDBRANCH  17  21
ENDBRANCH   1  18
TORSDOF 5
ENDMDL
MODEL 7
REMARK VINA RESULT:      -7.4      3.409      9.860
REMARK  Name = 
REMARK  7 active torsions:
REMARK  status: ('A' for Active; 'I' for Inactive)
REMARK    1  A    between atoms: C_1  and  O_2
REMARK    2  A    between atoms: O_2  and  C_3
REMARK    3  A    between atoms: C_6  and  C_7
REMARK    4  A    between atoms: C_7  and  N_8
REMARK    5  A    between atoms: C_9  and  C_11
REMARK    6  A    between atoms: C_27  and  O_28
REMARK    7  A    between atoms: O_28  and  C_29
REMARK                            x       y       z     vdW  Elec       q    Type
REMARK                         _______ _______ _______ _____ _____    ______ ____
ROOT
ATOM      1  C   UNL     1      -0.404   9.923  20.044  0.00  0.00    +0.000 C 
ATOM      2  C   UNL     1      -0.156   8.989  21.247  0.00  0.00    +0.000 C 
ATOM      3  C   UNL     1       1.226   8.311  21.352  0.00  0.00    +0.000 C 
ATOM      4  N   UNL     1       1.777   8.009  20.047  0.00  0.00    +0.000 N 
ATOM      5  C   UNL     1       2.283   6.818  19.625  0.00  0.00    +0.000 A 
ATOM      6  N   UNL     1       2.622   6.514  18.392  0.00  0.00    +0.000 NA
ATOM      7  C   UNL     1       3.028   5.206  18.407  0.00  0.00    +0.000 A 
ATOM      8  C   UNL     1       3.445   4.387  17.346  0.00  0.00    +0.000 A 
ATOM      9  C   UNL     1       3.779   3.055  17.615  0.00  0.00    +0.000 A 
ATOM     10  C   UNL     1       3.719   2.555  18.919  0.00  0.00    +0.000 A 
ATOM     11  C   UNL     1       3.327   3.369  19.997  0.00  0.00    +0.000 A 
ATOM     12  C   UNL     1       2.977   4.687  19.694  0.00  0.00    +0.000 A 
ATOM     13  N   UNL     1       2.527   5.745  20.454  0.00  0.00    +0.000 N 
ATOM     14  C   UNL     1       1.833   9.144  19.130  0.00  0.00    +0.000 C 
ATOM     15  C   UNL     1       0.408   9.554  18.796  0.00  0.00    +0.000 C 
ATOM     16  H   UNL     1       2.399   5.735  21.451  0.00  0.00    +0.000 HD
ENDROOT
BRANCH   1  18
ATOM     17  N   UNL     1      -0.530  11.684  21.736  0.00  0.00    +0.000 N 
ATOM     18  C   UNL     1      -0.284  11.412  20.396  0.00  0.00    +0.000 C 
ATOM     19  O   UNL     1      -0.040  12.284  19.571  0.00  0.00    +0.000 OA
ATOM     20  H   UNL     1      -0.698  10.916  22.370  0.00  0.00    +0.000 HD
BRANCH  17  21
ATOM     21  C   UNL     1      -0.620  13.026  22.277  0.00  0.00    +0.000 C 
BRANCH  21  25
ATOM     22  C   UNL     1      -4.606  13.916  23.770  0.00  0.00    +0.000 A 
ATOM     23  C   UNL     1      -3.467  14.485  24.361  0.00  0.00    +0.000 A 
ATOM     24  C   UNL     1      -2.184  14.202  23.880  0.00  0.00    +0.000 A 
ATOM     25  C   UNL     1      -2.003  13.307  22.823  0.00  0.00    +0.000 A 
ATOM     26  C   UNL     1      -3.138  12.689  22.281  0.00  0.00    +0.000 A 
ATOM     27  C   UNL     1      -4.440  12.971  22.745  0.00  0.00    +0.000 A 
BRANCH  22  29
ATOM     28  C   UNL     1      -6.398  15.472  23.725  0.00  0.00    +0.000 C 
ATOM     29  O   UNL     1      -5.867  14.236  24.198  0.00  0.00    +0.000 OA
ENDBRANCH  22  29
BRANCH  27  30
ATOM     30  O   UNL     1      -5.393  12.256  22.069  0.00  0.00    +0.000 OA
ATOM     31  C   UNL     1      -5.505  12.399  20.662  0.00  0.00    +0.000 C 
ENDBRANCH  27  30
ENDBRANCH  21  25
ENDBRANCH  17  21
ENDBRANCH   1  18
TORSDOF 5
ENDMDL
MODEL 8
REMARK VINA RESULT:      -7.4      2.961      4.329
REMARK  Name = 
REMARK  7 active torsions:
REMARK  status: ('A' for Active; 'I' for Inactive)
REMARK    1  A    between atoms: C_1  and  O_2
REMARK    2  A    between atoms: O_2  and  C_3
REMARK    3  A    between atoms: C_6  and  C_7
REMARK    4  A    between atoms: C_7  and  N_8
REMARK    5  A    between atoms: C_9  and  C_11
REMARK    6  A    between atoms: C_27  and  O_28
REMARK    7  A    between atoms: O_28  and  C_29
REMARK                            x       y       z     vdW  Elec       q    Type
REMARK                         _______ _______ _______ _____ _____    ______ ____
ROOT
ATOM      1  C   UNL     1       1.836   8.739  20.669  0.00  0.00    +0.000 C 
ATOM      2  C   UNL     1       1.525   8.914  22.171  0.00  0.00    +0.000 C 
ATOM      3  C   UNL     1       0.094   9.338  22.559  0.00  0.00    +0.000 C 
ATOM      4  N   UNL     1      -0.495  10.215  21.569  0.00  0.00    +0.000 N 
ATOM      5  C   UNL     1      -1.102  11.413  21.791  0.00  0.00    +0.000 A 
ATOM      6  N   UNL     1      -1.479  12.273  20.870  0.00  0.00    +0.000 NA
ATOM      7  C   UNL     1      -1.990  13.358  21.531  0.00  0.00    +0.000 A 
ATOM      8  C   UNL     1      -2.484  14.566  21.017  0.00  0.00    +0.000 A 
ATOM      9  C   UNL     1      -2.923  15.549  21.910  0.00  0.00    +0.000 A 
ATOM     10  C   UNL     1      -2.889  15.324  23.289  0.00  0.00    +0.000 A 
ATOM     11  C   UNL     1      -2.420  14.109  23.821  0.00  0.00    +0.000 A 
ATOM     12  C   UNL     1      -1.967  13.157  22.905  0.00  0.00    +0.000 A 
ATOM     13  N   UNL     1      -1.423  11.897  23.040  0.00  0.00    +0.000 N 
ATOM     14  C   UNL     1      -0.468   9.699  20.204  0.00  0.00    +0.000 C 
ATOM     15  C   UNL     1       0.982   9.625  19.753  0.00  0.00    +0.000 C 
ATOM     16  H   UNL     1      -1.285  11.411  23.909  0.00  0.00    +0.000 HD
ENDROOT
BRANCH   1  18
ATOM     17  N   UNL     1       2.386   7.088  18.951  0.00  0.00    +0.000 N 
ATOM     18  C   UNL     1       1.842   7.272  20.217  0.00  0.00    +0.000 C 
ATOM     19  O   UNL     1       1.375   6.357  20.883  0.00  0.00    +0.000 OA
ATOM     20  H   UNL     1       2.780   7.881  18.466  0.00  0.00    +0.000 HD
BRANCH  17  21
ATOM     21  C   UNL     1       2.368   5.818  18.250  0.00  0.00    +0.000 C 
BRANCH  21  25
ATOM     22  C   UNL     1       6.140   5.058  16.223  0.00  0.00    +0.000 A 
ATOM     23  C   UNL     1       5.216   4.024  16.447  0.00  0.00    +0.000 A 
ATOM     24  C   UNL     1       4.000   4.268  17.096  0.00  0.00    +0.000 A 
ATOM     25  C   UNL     1       3.696   5.543  17.579  0.00  0.00    +0.000 A 
ATOM     26  C   UNL     1       4.652   6.555  17.414  0.00  0.00    +0.000 A 
ATOM     27  C   UNL     1       5.876   6.331  16.751  0.00  0.00    +0.000 A 
BRANCH  22  29
ATOM     28  C   UNL     1       7.202   4.829  14.112  0.00  0.00    +0.000 C 
ATOM     29  O   UNL     1       7.302   4.837  15.535  0.00  0.00    +0.000 OA
ENDBRANCH  22  29
BRANCH  27  30
ATOM     30  O   UNL     1       6.650   7.460  16.705  0.00  0.00    +0.000 OA
ATOM     31  C   UNL     1       7.675   7.643  17.669  0.00  0.00    +0.000 C 
ENDBRANCH  27  30
ENDBRANCH  21  25
ENDBRANCH  17  21
ENDBRANCH   1  18
TORSDOF 5
ENDMDL
MODEL 9
REMARK VINA RESULT:      -7.4      2.588      3.296
REMARK  Name = 
REMARK  7 active torsions:
REMARK  status: ('A' for Active; 'I' for Inactive)
REMARK    1  A    between atoms: C_1  and  O_2
REMARK    2  A    between atoms: O_2  and  C_3
REMARK    3  A    between atoms: C_6  and  C_7
REMARK    4  A    between atoms: C_7  and  N_8
REMARK    5  A    between atoms: C_9  and  C_11
REMARK    6  A    between atoms: C_27  and  O_28
REMARK    7  A    between atoms: O_28  and  C_29
REMARK                            x       y       z     vdW  Elec       q    Type
REMARK                         _______ _______ _______ _____ _____    ______ ____
ROOT
ATOM      1  C   UNL     1      -0.592  10.087  19.361  0.00  0.00    +0.000 C 
ATOM      2  C   UNL     1      -1.715  10.383  18.345  0.00  0.00    +0.000 C 
ATOM      3  C   UNL     1      -2.337  11.795  18.360  0.00  0.00    +0.000 C 
ATOM      4  N   UNL     1      -2.375  12.352  19.697  0.00  0.00    +0.000 N 
ATOM      5  C   UNL     1      -3.446  12.909  20.324  0.00  0.00    +0.000 A 
ATOM      6  N   UNL     1      -3.508  13.255  21.591  0.00  0.00    +0.000 NA
ATOM      7  C   UNL     1      -4.778  13.719  21.811  0.00  0.00    +0.000 A 
ATOM      8  C   UNL     1      -5.373  14.166  23.000  0.00  0.00    +0.000 A 
ATOM      9  C   UNL     1      -6.715  14.561  22.975  0.00  0.00    +0.000 A 
ATOM     10  C   UNL     1      -7.443  14.530  21.782  0.00  0.00    +0.000 A 
ATOM     11  C   UNL     1      -6.855  14.109  20.576  0.00  0.00    +0.000 A 
ATOM     12  C   UNL     1      -5.522  13.698  20.638  0.00  0.00    +0.000 A 
ATOM     13  N   UNL     1      -4.638  13.205  19.702  0.00  0.00    +0.000 N 
ATOM     14  C   UNL     1      -1.092  12.352  20.394  0.00  0.00    +0.000 C 
ATOM     15  C   UNL     1      -0.693  10.908  20.653  0.00  0.00    +0.000 C 
ATOM     16  H   UNL     1      -4.833  13.083  18.723  0.00  0.00    +0.000 HD
ENDROOT
BRANCH   1  18
ATOM     17  N   UNL     1       1.229   8.929  18.211  0.00  0.00    +0.000 N 
ATOM     18  C   UNL     1       0.814  10.142  18.747  0.00  0.00    +0.000 C 
ATOM     19  O   UNL     1       1.520  11.141  18.765  0.00  0.00    +0.000 OA
ATOM     20  H   UNL     1       0.587   8.150  18.203  0.00  0.00    +0.000 HD
BRANCH  17  21
ATOM     21  C   UNL     1       2.569   8.693  17.709  0.00  0.00    +0.000 C 
BRANCH  21  25
ATOM     22  C   UNL     1       4.132   4.855  19.028  0.00  0.00    +0.000 A 
ATOM     23  C   UNL     1       4.640   5.489  17.883  0.00  0.00    +0.000 A 
ATOM     24  C   UNL     1       4.140   6.726  17.459  0.00  0.00    +0.000 A 
ATOM     25  C   UNL     1       3.088   7.340  18.143  0.00  0.00    +0.000 A 
ATOM     26  C   UNL     1       2.540   6.669  19.246  0.00  0.00    +0.000 A 
ATOM     27  C   UNL     1       3.038   5.429  19.694  0.00  0.00    +0.000 A 
BRANCH  22  29
ATOM     28  C   UNL     1       4.057   2.483  18.981  0.00  0.00    +0.000 C 
ATOM     29  O   UNL     1       4.659   3.675  19.481  0.00  0.00    +0.000 OA
ENDBRANCH  22  29
BRANCH  27  30
ATOM     30  O   UNL     1       2.353   4.963  20.785  0.00  0.00    +0.000 OA
ATOM     31  C   UNL     1       1.189   4.174  20.593  0.00  0.00    +0.000 C 
ENDBRANCH  27  30
ENDBRANCH  21  25
ENDBRANCH  17  21
ENDBRANCH   1  18
TORSDOF 5
ENDMDL
