MODEL 1
REMARK VINA RESULT:      -8.2      0.000      0.000
REMARK  Name = 
REMARK  9 active torsions:
REMARK  status: ('A' for Active; 'I' for Inactive)
REMARK    1  A    between atoms: C_1  and  C_2
REMARK    2  A    between atoms: C_2  and  N_3
REMARK    3  A    between atoms: C_5  and  C_6
REMARK    4  A    between atoms: C_6  and  O_8
REMARK    5  A    between atoms: C_15  and  N_16
REMARK    6  A    between atoms: N_19  and  C_20
REMARK    7  A    between atoms: C_20  and  C_21
REMARK    8  A    between atoms: C_24  and  N_25
REMARK    9  A    between atoms: C_29  and  C_30
REMARK                            x       y       z     vdW  Elec       q    Type
REMARK                         _______ _______ _______ _____ _____    ______ ____
ROOT
ATOM      1  N   UNL     1       2.922   5.430  19.666  0.00  0.00    +0.000 N 
ATOM      2  C   UNL     1       3.771   4.679  18.858  0.00  0.00    +0.000 A 
ATOM      3  C   UNL     1       4.411   5.100  17.759  0.00  0.00    +0.000 A 
ATOM      4  C   UNL     1       4.193   6.500  17.368  0.00  0.00    +0.000 A 
ATOM      5  O   UNL     1       4.808   6.979  16.416  0.00  0.00    +0.000 OA
ATOM      6  C   UNL     1       3.211   7.299  18.134  0.00  0.00    +0.000 A 
ATOM      7  C   UNL     1       2.921   8.585  17.671  0.00  0.00    +0.000 A 
ATOM      8  C   UNL     1       2.000   9.362  18.354  0.00  0.00    +0.000 A 
ATOM      9  F   UNL     1       1.702  10.558  17.817  0.00  0.00    +0.000 F 
ATOM     10  C   UNL     1       1.356   8.917  19.516  0.00  0.00    +0.000 A 
ATOM     11  C   UNL     1       1.672   7.602  19.943  0.00  0.00    +0.000 A 
ATOM     12  F   UNL     1       1.070   7.162  21.063  0.00  0.00    +0.000 F 
ATOM     13  C   UNL     1       2.592   6.756  19.277  0.00  0.00    +0.000 A 
ENDROOT
BRANCH  10  14
ATOM     14  N   UNL     1       0.458   9.719  20.215  0.00  0.00    +0.000 N 
ATOM     15  C   UNL     1       0.879  10.526  21.372  0.00  0.00    +0.000 C 
ATOM     16  C   UNL     1       0.501  12.012  21.185  0.00  0.00    +0.000 C 
ATOM     17  N   UNL     1      -0.932  12.244  20.835  0.00  0.00    +0.000 NA
ATOM     18  C   UNL     1      -1.172  11.472  19.575  0.00  0.00    +0.000 C 
ATOM     19  C   UNL     1      -2.516  11.776  18.909  0.00  0.00    +0.000 C 
ATOM     20  C   UNL     1      -0.908   9.942  19.705  0.00  0.00    +0.000 C 
BRANCH  17  21
ATOM     21  C   UNL     1      -1.824  11.840  21.947  0.00  0.00    +0.000 C 
BRANCH  21  22
ATOM     22  C   UNL     1      -2.924  12.830  22.180  0.00  0.00    +0.000 A 
ATOM     23  C   UNL     1      -3.034  14.192  21.960  0.00  0.00    +0.000 A 
ATOM     24  C   UNL     1      -4.292  14.593  22.477  0.00  0.00    +0.000 A 
ATOM     25  C   UNL     1      -4.876  13.442  22.949  0.00  0.00    +0.000 A 
ATOM     26  O   UNL     1      -4.063  12.363  22.783  0.00  0.00    +0.000 OA
BRANCH  25  27
ATOM     27  N   UNL     1      -6.139  13.210  23.575  0.00  0.00    +0.000 N 
ATOM     28  O   UNL     1      -6.232  12.182  24.261  0.00  0.00    +0.000 OA
ATOM     29  O   UNL     1      -7.040  14.040  23.392  0.00  0.00    +0.000 OA
ENDBRANCH  25  27
ENDBRANCH  21  22
ENDBRANCH  17  21
ENDBRANCH  10  14
BRANCH   1  31
ATOM     30  C   UNL     1       1.203   3.908  20.600  0.00  0.00    +0.000 C 
ATOM     31  C   UNL     1       2.365   4.845  20.901  0.00  0.00    +0.000 C 
ENDBRANCH   1  31
BRANCH   3  32
ATOM     32  C   UNL     1       5.287   4.172  17.011  0.00  0.00    +0.000 C 
ATOM     33  O   UNL     1       4.943   3.603  15.988  0.00  0.00    +0.000 OA
BRANCH  32  34
ATOM     34  O   UNL     1       6.516   4.009  17.548  0.00  0.00    +0.000 OA
ATOM     35  H   UNL     1       7.212   3.745  16.896  0.00  0.00    +0.000 HD
ENDBRANCH  32  34
ENDBRANCH   3  32
TORSDOF 7
ENDMDL
MODEL 2
REMARK VINA RESULT:      -7.9      1.828      2.166
REMARK  Name = 
REMARK  9 active torsions:
REMARK  status: ('A' for Active; 'I' for Inactive)
REMARK    1  A    between atoms: C_1  and  C_2
REMARK    2  A    between atoms: C_2  and  N_3
REMARK    3  A    between atoms: C_5  and  C_6
REMARK    4  A    between atoms: C_6  and  O_8
REMARK    5  A    between atoms: C_15  and  N_16
REMARK    6  A    between atoms: N_19  and  C_20
REMARK    7  A    between atoms: C_20  and  C_21
REMARK    8  A    between atoms: C_24  and  N_25
REMARK    9  A    between atoms: C_29  and  C_30
REMARK                            x       y       z     vdW  Elec       q    Type
REMARK                         _______ _______ _______ _____ _____    ______ ____
ROOT
ATOM      1  N   UNL     1       2.937   5.321  19.749  0.00  0.00    +0.000 N 
ATOM      2  C   UNL     1       3.763   4.537  18.948  0.00  0.00    +0.000 A 
ATOM      3  C   UNL     1       4.382   4.917  17.822  0.00  0.00    +0.000 A 
ATOM      4  C   UNL     1       4.168   6.307  17.392  0.00  0.00    +0.000 A 
ATOM      5  O   UNL     1       4.765   6.750  16.413  0.00  0.00    +0.000 OA
ATOM      6  C   UNL     1       3.208   7.137  18.153  0.00  0.00    +0.000 A 
ATOM      7  C   UNL     1       2.919   8.410  17.655  0.00  0.00    +0.000 A 
ATOM      8  C   UNL     1       2.018   9.216  18.332  0.00  0.00    +0.000 A 
ATOM      9  F   UNL     1       1.718  10.397  17.764  0.00  0.00    +0.000 F 
ATOM     10  C   UNL     1       1.395   8.814  19.521  0.00  0.00    +0.000 A 
ATOM     11  C   UNL     1       1.710   7.510  19.983  0.00  0.00    +0.000 A 
ATOM     12  F   UNL     1       1.129   7.112  21.129  0.00  0.00    +0.000 F 
ATOM     13  C   UNL     1       2.609   6.636  19.325  0.00  0.00    +0.000 A 
ENDROOT
BRANCH  10  14
ATOM     14  N   UNL     1       0.518   9.645  20.213  0.00  0.00    +0.000 N 
ATOM     15  C   UNL     1       0.958  10.442  21.369  0.00  0.00    +0.000 C 
ATOM     16  C   UNL     1       0.627  11.939  21.177  0.00  0.00    +0.000 C 
ATOM     17  N   UNL     1      -0.796  12.214  20.818  0.00  0.00    +0.000 NA
ATOM     18  C   UNL     1      -1.053  11.446  19.559  0.00  0.00    +0.000 C 
ATOM     19  C   UNL     1      -2.383  11.789  18.885  0.00  0.00    +0.000 C 
ATOM     20  C   UNL     1      -0.837   9.909  19.694  0.00  0.00    +0.000 C 
BRANCH  17  21
ATOM     21  C   UNL     1      -1.706  11.840  21.926  0.00  0.00    +0.000 C 
BRANCH  21  22
ATOM     22  C   UNL     1      -2.152  13.031  22.720  0.00  0.00    +0.000 A 
ATOM     23  C   UNL     1      -3.321  13.773  22.737  0.00  0.00    +0.000 A 
ATOM     24  C   UNL     1      -3.112  14.848  23.637  0.00  0.00    +0.000 A 
ATOM     25  C   UNL     1      -1.842  14.670  24.131  0.00  0.00    +0.000 A 
ATOM     26  O   UNL     1      -1.241  13.577  23.585  0.00  0.00    +0.000 OA
BRANCH  25  27
ATOM     27  N   UNL     1      -1.078  15.427  25.072  0.00  0.00    +0.000 N 
ATOM     28  O   UNL     1      -1.544  15.510  26.218  0.00  0.00    +0.000 OA
ATOM     29  O   UNL     1      -0.020  15.939  24.683  0.00  0.00    +0.000 OA
ENDBRANCH  25  27
ENDBRANCH  21  22
ENDBRANCH  17  21
ENDBRANCH  10  14
BRANCH   1  31
ATOM     30  C   UNL     1       1.359   3.699  20.761  0.00  0.00    +0.000 C 
ATOM     31  C   UNL     1       2.401   4.780  21.013  0.00  0.00    +0.000 C 
ENDBRANCH   1  31
BRANCH   3  32
ATOM     32  C   UNL     1       5.235   3.959  17.086  0.00  0.00    +0.000 C 
ATOM     33  O   UNL     1       6.312   4.258  16.598  0.00  0.00    +0.000 OA
BRANCH  32  34
ATOM     34  O   UNL     1       4.729   2.708  17.005  0.00  0.00    +0.000 OA
ATOM     35  H   UNL     1       3.743   2.674  16.925  0.00  0.00    +0.000 HD
ENDBRANCH  32  34
ENDBRANCH   3  32
TORSDOF 7
ENDMDL
MODEL 3
REMARK VINA RESULT:      -7.9      2.651     10.954
REMARK  Name = 
REMARK  9 active torsions:
REMARK  status: ('A' for Active; 'I' for Inactive)
REMARK    1  A    between atoms: C_1  and  C_2
REMARK    2  A    between atoms: C_2  and  N_3
REMARK    3  A    between atoms: C_5  and  C_6
REMARK    4  A    between atoms: C_6  and  O_8
REMARK    5  A    between atoms: C_15  and  N_16
REMARK    6  A    between atoms: N_19  and  C_20
REMARK    7  A    between atoms: C_20  and  C_21
REMARK    8  A    between atoms: C_24  and  N_25
REMARK    9  A    between atoms: C_29  and  C_30
REMARK                            x       y       z     vdW  Elec       q    Type
REMARK                         _______ _______ _______ _____ _____    ______ ____
ROOT
ATOM      1  N   UNL     1       0.444  11.151  19.744  0.00  0.00    +0.000 N 
ATOM      2  C   UNL     1      -0.243  11.900  20.695  0.00  0.00    +0.000 A 
ATOM      3  C   UNL     1      -0.481  11.555  21.968  0.00  0.00    +0.000 A 
ATOM      4  C   UNL     1       0.041  10.252  22.403  0.00  0.00    +0.000 A 
ATOM      5  O   UNL     1      -0.069   9.903  23.577  0.00  0.00    +0.000 OA
ATOM      6  C   UNL     1       0.679   9.377  21.394  0.00  0.00    +0.000 A 
ATOM      7  C   UNL     1       1.053   8.093  21.795  0.00  0.00    +0.000 A 
ATOM      8  C   UNL     1       1.644   7.239  20.878  0.00  0.00    +0.000 A 
ATOM      9  F   UNL     1       1.909   5.990  21.298  0.00  0.00    +0.000 F 
ATOM     10  C   UNL     1       1.907   7.622  19.556  0.00  0.00    +0.000 A 
ATOM     11  C   UNL     1       1.501   8.931  19.190  0.00  0.00    +0.000 A 
ATOM     12  F   UNL     1       1.756   9.318  17.927  0.00  0.00    +0.000 F 
ATOM     13  C   UNL     1       0.877   9.841  20.079  0.00  0.00    +0.000 A 
ENDROOT
BRANCH  10  14
ATOM     14  N   UNL     1       2.534   6.769  18.652  0.00  0.00    +0.000 N 
ATOM     15  C   UNL     1       3.717   7.189  17.884  0.00  0.00    +0.000 C 
ATOM     16  C   UNL     1       4.890   6.203  18.078  0.00  0.00    +0.000 C 
ATOM     17  N   UNL     1       4.541   4.773  17.827  0.00  0.00    +0.000 NA
ATOM     18  C   UNL     1       3.420   4.457  18.768  0.00  0.00    +0.000 C 
ATOM     19  C   UNL     1       3.079   2.969  18.847  0.00  0.00    +0.000 C 
ATOM     20  C   UNL     1       2.155   5.346  18.572  0.00  0.00    +0.000 C 
BRANCH  17  21
ATOM     21  C   UNL     1       4.189   4.553  16.404  0.00  0.00    +0.000 C 
BRANCH  21  22
ATOM     22  C   UNL     1       5.400   4.500  15.522  0.00  0.00    +0.000 A 
ATOM     23  C   UNL     1       6.707   4.931  15.681  0.00  0.00    +0.000 A 
ATOM     24  C   UNL     1       7.371   4.689  14.453  0.00  0.00    +0.000 A 
ATOM     25  C   UNL     1       6.435   4.099  13.640  0.00  0.00    +0.000 A 
ATOM     26  O   UNL     1       5.231   3.979  14.266  0.00  0.00    +0.000 OA
BRANCH  25  27
ATOM     27  N   UNL     1       6.512   3.628  12.293  0.00  0.00    +0.000 N 
ATOM     28  O   UNL     1       7.369   4.161  11.573  0.00  0.00    +0.000 OA
ATOM     29  O   UNL     1       5.731   2.734  11.944  0.00  0.00    +0.000 OA
ENDBRANCH  25  27
ENDBRANCH  21  22
ENDBRANCH  17  21
ENDBRANCH  10  14
BRANCH   1  31
ATOM     30  C   UNL     1       1.726  12.839  18.460  0.00  0.00    +0.000 C 
ATOM     31  C   UNL     1       0.703  11.713  18.405  0.00  0.00    +0.000 C 
ENDBRANCH   1  31
BRANCH   3  32
ATOM     32  C   UNL     1      -1.228  12.472  22.857  0.00  0.00    +0.000 C 
ATOM     33  O   UNL     1      -0.847  13.597  23.130  0.00  0.00    +0.000 OA
BRANCH  32  34
ATOM     34  O   UNL     1      -2.384  11.964  23.339  0.00  0.00    +0.000 OA
ATOM     35  H   UNL     1      -2.451  10.979  23.278  0.00  0.00    +0.000 HD
ENDBRANCH  32  34
ENDBRANCH   3  32
TORSDOF 7
ENDMDL
MODEL 4
REMARK VINA RESULT:      -7.9      1.091      1.219
REMARK  Name = 
REMARK  9 active torsions:
REMARK  status: ('A' for Active; 'I' for Inactive)
REMARK    1  A    between atoms: C_1  and  C_2
REMARK    2  A    between atoms: C_2  and  N_3
REMARK    3  A    between atoms: C_5  and  C_6
REMARK    4  A    between atoms: C_6  and  O_8
REMARK    5  A    between atoms: C_15  and  N_16
REMARK    6  A    between atoms: N_19  and  C_20
REMARK    7  A    between atoms: C_20  and  C_21
REMARK    8  A    between atoms: C_24  and  N_25
REMARK    9  A    between atoms: C_29  and  C_30
REMARK                            x       y       z     vdW  Elec       q    Type
REMARK                         _______ _______ _______ _____ _____    ______ ____
ROOT
ATOM      1  N   UNL     1       2.828   5.460  19.734  0.00  0.00    +0.000 N 
ATOM      2  C   UNL     1       3.660   4.671  18.945  0.00  0.00    +0.000 A 
ATOM      3  C   UNL     1       4.306   5.050  17.834  0.00  0.00    +0.000 A 
ATOM      4  C   UNL     1       4.116   6.444  17.407  0.00  0.00    +0.000 A 
ATOM      5  O   UNL     1       4.738   6.886  16.443  0.00  0.00    +0.000 OA
ATOM      6  C   UNL     1       3.152   7.282  18.154  0.00  0.00    +0.000 A 
ATOM      7  C   UNL     1       2.887   8.561  17.659  0.00  0.00    +0.000 A 
ATOM      8  C   UNL     1       1.983   9.374  18.323  0.00  0.00    +0.000 A 
ATOM      9  F   UNL     1       1.708  10.562  17.756  0.00  0.00    +0.000 F 
ATOM     10  C   UNL     1       1.333   8.972  19.496  0.00  0.00    +0.000 A 
ATOM     11  C   UNL     1       1.623   7.663  19.957  0.00  0.00    +0.000 A 
ATOM     12  F   UNL     1       1.015   7.265  21.089  0.00  0.00    +0.000 F 
ATOM     13  C   UNL     1       2.524   6.781  19.311  0.00  0.00    +0.000 A 
ENDROOT
BRANCH  10  14
ATOM     14  N   UNL     1       0.452   9.810  20.176  0.00  0.00    +0.000 N 
ATOM     15  C   UNL     1       0.896  10.652  21.299  0.00  0.00    +0.000 C 
ATOM     16  C   UNL     1       0.535  12.135  21.064  0.00  0.00    +0.000 C 
ATOM     17  N   UNL     1      -0.897  12.374  20.721  0.00  0.00    +0.000 NA
ATOM     18  C   UNL     1      -1.161  11.562  19.491  0.00  0.00    +0.000 C 
ATOM     19  C   UNL     1      -2.507  11.860  18.829  0.00  0.00    +0.000 C 
ATOM     20  C   UNL     1      -0.915  10.034  19.672  0.00  0.00    +0.000 C 
BRANCH  17  21
ATOM     21  C   UNL     1      -1.783  12.021  21.855  0.00  0.00    +0.000 C 
BRANCH  21  22
ATOM     22  C   UNL     1      -2.051  13.191  22.752  0.00  0.00    +0.000 A 
ATOM     23  C   UNL     1      -1.244  13.958  23.575  0.00  0.00    +0.000 A 
ATOM     24  C   UNL     1      -2.093  14.869  24.252  0.00  0.00    +0.000 A 
ATOM     25  C   UNL     1      -3.355  14.618  23.772  0.00  0.00    +0.000 A 
ATOM     26  O   UNL     1      -3.354  13.602  22.865  0.00  0.00    +0.000 OA
BRANCH  25  27
ATOM     27  N   UNL     1      -4.618  15.214  24.072  0.00  0.00    +0.000 N 
ATOM     28  O   UNL     1      -4.588  16.260  24.737  0.00  0.00    +0.000 OA
ATOM     29  O   UNL     1      -5.640  14.654  23.653  0.00  0.00    +0.000 OA
ENDBRANCH  25  27
ENDBRANCH  21  22
ENDBRANCH  17  21
ENDBRANCH  10  14
BRANCH   1  31
ATOM     30  C   UNL     1       1.211   3.852  20.706  0.00  0.00    +0.000 C 
ATOM     31  C   UNL     1       2.262   4.918  20.984  0.00  0.00    +0.000 C 
ENDBRANCH   1  31
BRANCH   3  32
ATOM     32  C   UNL     1       5.162   4.086  17.109  0.00  0.00    +0.000 C 
ATOM     33  O   UNL     1       4.780   3.445  16.144  0.00  0.00    +0.000 OA
BRANCH  32  34
ATOM     34  O   UNL     1       6.417   3.975  17.597  0.00  0.00    +0.000 OA
ATOM     35  H   UNL     1       7.103   4.446  17.061  0.00  0.00    +0.000 HD
ENDBRANCH  32  34
ENDBRANCH   3  32
TORSDOF 7
ENDMDL
MODEL 5
REMARK VINA RESULT:      -7.8      1.347      1.799
REMARK  Name = 
REMARK  9 active torsions:
REMARK  status: ('A' for Active; 'I' for Inactive)
REMARK    1  A    between atoms: C_1  and  C_2
REMARK    2  A    between atoms: C_2  and  N_3
REMARK    3  A    between atoms: C_5  and  C_6
REMARK    4  A    between atoms: C_6  and  O_8
REMARK    5  A    between atoms: C_15  and  N_16
REMARK    6  A    between atoms: N_19  and  C_20
REMARK    7  A    between atoms: C_20  and  C_21
REMARK    8  A    between atoms: C_24  and  N_25
REMARK    9  A    between atoms: C_29  and  C_30
REMARK                            x       y       z     vdW  Elec       q    Type
REMARK                         _______ _______ _______ _____ _____    ______ ____
ROOT
ATOM      1  N   UNL     1       2.569   4.941  19.895  0.00  0.00    +0.000 N 
ATOM      2  C   UNL     1       3.181   3.931  19.159  0.00  0.00    +0.000 A 
ATOM      3  C   UNL     1       3.829   4.069  17.994  0.00  0.00    +0.000 A 
ATOM      4  C   UNL     1       3.900   5.428  17.439  0.00  0.00    +0.000 A 
ATOM      5  O   UNL     1       4.545   5.645  16.415  0.00  0.00    +0.000 OA
ATOM      6  C   UNL     1       3.166   6.509  18.133  0.00  0.00    +0.000 A 
ATOM      7  C   UNL     1       3.137   7.766  17.524  0.00  0.00    +0.000 A 
ATOM      8  C   UNL     1       2.452   8.803  18.135  0.00  0.00    +0.000 A 
ATOM      9  F   UNL     1       2.391   9.966  17.464  0.00  0.00    +0.000 F 
ATOM     10  C   UNL     1       1.799   8.650  19.365  0.00  0.00    +0.000 A 
ATOM     11  C   UNL     1       1.845   7.354  19.942  0.00  0.00    +0.000 A 
ATOM     12  F   UNL     1       1.231   7.192  21.128  0.00  0.00    +0.000 F 
ATOM     13  C   UNL     1       2.514   6.253  19.355  0.00  0.00    +0.000 A 
ENDROOT
BRANCH  10  14
ATOM     14  N   UNL     1       1.143   9.708  19.989  0.00  0.00    +0.000 N 
ATOM     15  C   UNL     1       0.294  10.644  19.235  0.00  0.00    +0.000 C 
ATOM     16  C   UNL     1      -1.123  10.730  19.846  0.00  0.00    +0.000 C 
ATOM     17  N   UNL     1      -1.146  11.012  21.311  0.00  0.00    +0.000 NA
ATOM     18  C   UNL     1      -0.359   9.910  21.949  0.00  0.00    +0.000 C 
ATOM     19  C   UNL     1      -0.469   9.873  23.474  0.00  0.00    +0.000 C 
ATOM     20  C   UNL     1       1.117   9.816  21.460  0.00  0.00    +0.000 C 
BRANCH  17  21
ATOM     21  C   UNL     1      -0.606  12.361  21.603  0.00  0.00    +0.000 C 
BRANCH  21  22
ATOM     22  C   UNL     1      -1.451  13.110  22.588  0.00  0.00    +0.000 A 
ATOM     23  C   UNL     1      -1.197  14.173  23.438  0.00  0.00    +0.000 A 
ATOM     24  C   UNL     1      -2.371  14.377  24.204  0.00  0.00    +0.000 A 
ATOM     25  C   UNL     1      -3.273  13.446  23.748  0.00  0.00    +0.000 A 
ATOM     26  O   UNL     1      -2.734  12.664  22.771  0.00  0.00    +0.000 OA
BRANCH  25  27
ATOM     27  N   UNL     1      -4.621  13.167  24.130  0.00  0.00    +0.000 N 
ATOM     28  O   UNL     1      -4.827  12.061  24.649  0.00  0.00    +0.000 OA
ATOM     29  O   UNL     1      -5.477  14.036  23.918  0.00  0.00    +0.000 OA
ENDBRANCH  25  27
ENDBRANCH  21  22
ENDBRANCH  17  21
ENDBRANCH  10  14
BRANCH   1  31
ATOM     30  C   UNL     1       1.887   3.140  21.456  0.00  0.00    +0.000 C 
ATOM     31  C   UNL     1       1.974   4.641  21.211  0.00  0.00    +0.000 C 
ENDBRANCH   1  31
BRANCH   3  32
ATOM     32  C   UNL     1       4.433   2.888  17.338  0.00  0.00    +0.000 C 
ATOM     33  O   UNL     1       3.978   1.761  17.437  0.00  0.00    +0.000 OA
BRANCH  32  34
ATOM     34  O   UNL     1       5.534   3.159  16.603  0.00  0.00    +0.000 OA
ATOM     35  H   UNL     1       5.915   4.059  16.760  0.00  0.00    +0.000 HD
ENDBRANCH  32  34
ENDBRANCH   3  32
TORSDOF 7
ENDMDL
MODEL 6
REMARK VINA RESULT:      -7.6      3.661      4.827
REMARK  Name = 
REMARK  9 active torsions:
REMARK  status: ('A' for Active; 'I' for Inactive)
REMARK    1  A    between atoms: C_1  and  C_2
REMARK    2  A    between atoms: C_2  and  N_3
REMARK    3  A    between atoms: C_5  and  C_6
REMARK    4  A    between atoms: C_6  and  O_8
REMARK    5  A    between atoms: C_15  and  N_16
REMARK    6  A    between atoms: N_19  and  C_20
REMARK    7  A    between atoms: C_20  and  C_21
REMARK    8  A    between atoms: C_24  and  N_25
REMARK    9  A    between atoms: C_29  and  C_30
REMARK                            x       y       z     vdW  Elec       q    Type
REMARK                         _______ _______ _______ _____ _____    ______ ____
ROOT
ATOM      1  N   UNL     1       3.342   6.678  18.173  0.00  0.00    +0.000 N 
ATOM      2  C   UNL     1       3.865   5.412  18.421  0.00  0.00    +0.000 A 
ATOM      3  C   UNL     1       3.547   4.598  19.437  0.00  0.00    +0.000 A 
ATOM      4  C   UNL     1       2.540   5.095  20.385  0.00  0.00    +0.000 A 
ATOM      5  O   UNL     1       2.140   4.373  21.297  0.00  0.00    +0.000 OA
ATOM      6  C   UNL     1       2.044   6.479  20.221  0.00  0.00    +0.000 A 
ATOM      7  C   UNL     1       1.186   6.979  21.204  0.00  0.00    +0.000 A 
ATOM      8  C   UNL     1       0.706   8.274  21.094  0.00  0.00    +0.000 A 
ATOM      9  F   UNL     1      -0.050   8.727  22.109  0.00  0.00    +0.000 F 
ATOM     10  C   UNL     1       1.029   9.105  20.013  0.00  0.00    +0.000 A 
ATOM     11  C   UNL     1       1.911   8.560  19.045  0.00  0.00    +0.000 A 
ATOM     12  F   UNL     1       2.224   9.342  17.995  0.00  0.00    +0.000 F 
ATOM     13  C   UNL     1       2.447   7.251  19.114  0.00  0.00    +0.000 A 
ENDROOT
BRANCH  10  14
ATOM     14  N   UNL     1       0.513  10.393  19.893  0.00  0.00    +0.000 N 
ATOM     15  C   UNL     1       1.377  11.582  19.966  0.00  0.00    +0.000 C 
ATOM     16  C   UNL     1       1.197  12.483  18.723  0.00  0.00    +0.000 C 
ATOM     17  N   UNL     1      -0.220  12.840  18.422  0.00  0.00    +0.000 NA
ATOM     18  C   UNL     1      -0.939  11.539  18.244  0.00  0.00    +0.000 C 
ATOM     19  C   UNL     1      -2.354  11.684  17.683  0.00  0.00    +0.000 C 
ATOM     20  C   UNL     1      -0.890  10.608  19.493  0.00  0.00    +0.000 C 
BRANCH  17  21
ATOM     21  C   UNL     1      -0.797  13.683  19.495  0.00  0.00    +0.000 C 
BRANCH  21  22
ATOM     22  C   UNL     1      -0.179  15.048  19.538  0.00  0.00    +0.000 A 
ATOM     23  C   UNL     1       0.395  15.796  20.552  0.00  0.00    +0.000 A 
ATOM     24  C   UNL     1       0.714  17.062  19.999  0.00  0.00    +0.000 A 
ATOM     25  C   UNL     1       0.342  16.989  18.679  0.00  0.00    +0.000 A 
ATOM     26  O   UNL     1      -0.206  15.779  18.379  0.00  0.00    +0.000 OA
BRANCH  25  27
ATOM     27  N   UNL     1       0.417  17.945  17.620  0.00  0.00    +0.000 N 
ATOM     28  O   UNL     1      -0.656  18.258  17.084  0.00  0.00    +0.000 OA
ATOM     29  O   UNL     1       1.532  18.388  17.315  0.00  0.00    +0.000 OA
ENDBRANCH  25  27
ENDBRANCH  21  22
ENDBRANCH  17  21
ENDBRANCH  10  14
BRANCH   1  31
ATOM     30  C   UNL     1       4.888   6.734  16.236  0.00  0.00    +0.000 C 
ATOM     31  C   UNL     1       3.730   7.413  16.954  0.00  0.00    +0.000 C 
ENDBRANCH   1  31
BRANCH   3  32
ATOM     32  C   UNL     1       4.195   3.273  19.556  0.00  0.00    +0.000 C 
ATOM     33  O   UNL     1       3.581   2.246  19.790  0.00  0.00    +0.000 OA
BRANCH  32  34
ATOM     34  O   UNL     1       5.534   3.287  19.372  0.00  0.00    +0.000 OA
ATOM     35  H   UNL     1       5.912   4.187  19.209  0.00  0.00    +0.000 HD
ENDBRANCH  32  34
ENDBRANCH   3  32
TORSDOF 7
ENDMDL
MODEL 7
REMARK VINA RESULT:      -7.5      1.105      1.556
REMARK  Name = 
REMARK  9 active torsions:
REMARK  status: ('A' for Active; 'I' for Inactive)
REMARK    1  A    between atoms: C_1  and  C_2
REMARK    2  A    between atoms: C_2  and  N_3
REMARK    3  A    between atoms: C_5  and  C_6
REMARK    4  A    between atoms: C_6  and  O_8
REMARK    5  A    between atoms: C_15  and  N_16
REMARK    6  A    between atoms: N_19  and  C_20
REMARK    7  A    between atoms: C_20  and  C_21
REMARK    8  A    between atoms: C_24  and  N_25
REMARK    9  A    between atoms: C_29  and  C_30
REMARK                            x       y       z     vdW  Elec       q    Type
REMARK                         _______ _______ _______ _____ _____    ______ ____
ROOT
ATOM      1  N   UNL     1       2.661   5.350  19.927  0.00  0.00    +0.000 N 
ATOM      2  C   UNL     1       3.400   4.405  19.222  0.00  0.00    +0.000 A 
ATOM      3  C   UNL     1       4.051   4.596  18.066  0.00  0.00    +0.000 A 
ATOM      4  C   UNL     1       3.977   5.945  17.486  0.00  0.00    +0.000 A 
ATOM      5  O   UNL     1       4.613   6.217  16.470  0.00  0.00    +0.000 OA
ATOM      6  C   UNL     1       3.109   6.946  18.145  0.00  0.00    +0.000 A 
ATOM      7  C   UNL     1       2.948   8.180  17.511  0.00  0.00    +0.000 A 
ATOM      8  C   UNL     1       2.136   9.142  18.090  0.00  0.00    +0.000 A 
ATOM      9  F   UNL     1       1.956  10.278  17.395  0.00  0.00    +0.000 F 
ATOM     10  C   UNL     1       1.480   8.935  19.310  0.00  0.00    +0.000 A 
ATOM     11  C   UNL     1       1.663   7.665  19.913  0.00  0.00    +0.000 A 
ATOM     12  F   UNL     1       1.048   7.454  21.091  0.00  0.00    +0.000 F 
ATOM     13  C   UNL     1       2.466   6.637  19.360  0.00  0.00    +0.000 A 
ENDROOT
BRANCH  10  14
ATOM     14  N   UNL     1       0.694   9.921  19.901  0.00  0.00    +0.000 N 
ATOM     15  C   UNL     1      -0.320   9.597  20.918  0.00  0.00    +0.000 C 
ATOM     16  C   UNL     1      -0.102  10.418  22.208  0.00  0.00    +0.000 C 
ATOM     17  N   UNL     1       0.017  11.890  21.989  0.00  0.00    +0.000 NA
ATOM     18  C   UNL     1       1.166  12.068  21.046  0.00  0.00    +0.000 C 
ATOM     19  C   UNL     1       1.614  13.522  20.884  0.00  0.00    +0.000 C 
ATOM     20  C   UNL     1       0.982  11.350  19.675  0.00  0.00    +0.000 C 
BRANCH  17  21
ATOM     21  C   UNL     1      -1.253  12.456  21.478  0.00  0.00    +0.000 C 
BRANCH  21  22
ATOM     22  C   UNL     1      -2.078  13.072  22.566  0.00  0.00    +0.000 A 
ATOM     23  C   UNL     1      -1.794  13.983  23.570  0.00  0.00    +0.000 A 
ATOM     24  C   UNL     1      -2.965  14.106  24.358  0.00  0.00    +0.000 A 
ATOM     25  C   UNL     1      -3.894  13.287  23.763  0.00  0.00    +0.000 A 
ATOM     26  O   UNL     1      -3.376  12.647  22.678  0.00  0.00    +0.000 OA
BRANCH  25  27
ATOM     27  N   UNL     1      -5.253  12.997  24.097  0.00  0.00    +0.000 N 
ATOM     28  O   UNL     1      -6.084  13.878  23.831  0.00  0.00    +0.000 OA
ATOM     29  O   UNL     1      -5.502  11.904  24.621  0.00  0.00    +0.000 OA
ENDBRANCH  25  27
ENDBRANCH  21  22
ENDBRANCH  17  21
ENDBRANCH  10  14
BRANCH   1  31
ATOM     30  C   UNL     1       1.976   3.499  21.426  0.00  0.00    +0.000 C 
ATOM     31  C   UNL     1       2.078   5.006  21.238  0.00  0.00    +0.000 C 
ENDBRANCH   1  31
BRANCH   3  32
ATOM     32  C   UNL     1       4.800   3.482  17.444  0.00  0.00    +0.000 C 
ATOM     33  O   UNL     1       4.314   2.383  17.236  0.00  0.00    +0.000 OA
BRANCH  32  34
ATOM     34  O   UNL     1       6.075   3.782  17.111  0.00  0.00    +0.000 OA
ATOM     35  H   UNL     1       6.168   4.246  16.242  0.00  0.00    +0.000 HD
ENDBRANCH  32  34
ENDBRANCH   3  32
TORSDOF 7
ENDMDL
MODEL 8
REMARK VINA RESULT:      -7.5      1.442      1.658
REMARK  Name = 
REMARK  9 active torsions:
REMARK  status: ('A' for Active; 'I' for Inactive)
REMARK    1  A    between atoms: C_1  and  C_2
REMARK    2  A    between atoms: C_2  and  N_3
REMARK    3  A    between atoms: C_5  and  C_6
REMARK    4  A    between atoms: C_6  and  O_8
REMARK    5  A    between atoms: C_15  and  N_16
REMARK    6  A    between atoms: N_19  and  C_20
REMARK    7  A    between atoms: C_20  and  C_21
REMARK    8  A    between atoms: C_24  and  N_25
REMARK    9  A    between atoms: C_29  and  C_30
REMARK                            x       y       z     vdW  Elec       q    Type
REMARK                         _______ _______ _______ _____ _____    ______ ____
ROOT
ATOM      1  N   UNL     1       3.654   4.710  18.868  0.00  0.00    +0.000 N 
ATOM      2  C   UNL     1       4.462   4.080  17.925  0.00  0.00    +0.000 A 
ATOM      3  C   UNL     1       5.024   4.643  16.847  0.00  0.00    +0.000 A 
ATOM      4  C   UNL     1       4.761   6.075  16.642  0.00  0.00    +0.000 A 
ATOM      5  O   UNL     1       5.307   6.677  15.720  0.00  0.00    +0.000 OA
ATOM      6  C   UNL     1       3.817   6.754  17.557  0.00  0.00    +0.000 A 
ATOM      7  C   UNL     1       3.480   8.079  17.271  0.00  0.00    +0.000 A 
ATOM      8  C   UNL     1       2.591   8.748  18.098  0.00  0.00    +0.000 A 
ATOM      9  F   UNL     1       2.242   9.992  17.728  0.00  0.00    +0.000 F 
ATOM     10  C   UNL     1       2.029   8.152  19.234  0.00  0.00    +0.000 A 
ATOM     11  C   UNL     1       2.392   6.803  19.480  0.00  0.00    +0.000 A 
ATOM     12  F   UNL     1       1.869   6.220  20.574  0.00  0.00    +0.000 F 
ATOM     13  C   UNL     1       3.281   6.064  18.662  0.00  0.00    +0.000 A 
ENDROOT
BRANCH  10  14
ATOM     14  N   UNL     1       1.165   8.845  20.079  0.00  0.00    +0.000 N 
ATOM     15  C   UNL     1       1.096   8.558  21.521  0.00  0.00    +0.000 C 
ATOM     16  C   UNL     1       1.317   9.838  22.358  0.00  0.00    +0.000 C 
ATOM     17  N   UNL     1       0.441  10.983  21.974  0.00  0.00    +0.000 NA
ATOM     18  C   UNL     1       0.718  11.241  20.526  0.00  0.00    +0.000 C 
ATOM     19  C   UNL     1       0.103  12.538  19.999  0.00  0.00    +0.000 C 
ATOM     20  C   UNL     1       0.425  10.026  19.596  0.00  0.00    +0.000 C 
BRANCH  17  21
ATOM     21  C   UNL     1      -0.983  10.680  22.252  0.00  0.00    +0.000 C 
BRANCH  21  22
ATOM     22  C   UNL     1      -1.708  11.850  22.843  0.00  0.00    +0.000 A 
ATOM     23  C   UNL     1      -1.302  13.114  23.239  0.00  0.00    +0.000 A 
ATOM     24  C   UNL     1      -2.431  13.745  23.819  0.00  0.00    +0.000 A 
ATOM     25  C   UNL     1      -3.455  12.837  23.709  0.00  0.00    +0.000 A 
ATOM     26  O   UNL     1      -3.039  11.680  23.124  0.00  0.00    +0.000 OA
BRANCH  25  27
ATOM     27  N   UNL     1      -4.826  12.903  24.108  0.00  0.00    +0.000 N 
ATOM     28  O   UNL     1      -5.238  11.970  24.812  0.00  0.00    +0.000 OA
ATOM     29  O   UNL     1      -5.496  13.873  23.729  0.00  0.00    +0.000 OA
ENDBRANCH  25  27
ENDBRANCH  21  22
ENDBRANCH  17  21
ENDBRANCH  10  14
BRANCH   1  31
ATOM     30  C   UNL     1       2.735   2.560  19.692  0.00  0.00    +0.000 C 
ATOM     31  C   UNL     1       3.185   3.969  20.055  0.00  0.00    +0.000 C 
ENDBRANCH   1  31
BRANCH   3  32
ATOM     32  C   UNL     1       5.866   3.831  15.941  0.00  0.00    +0.000 C 
ATOM     33  O   UNL     1       6.784   4.294  15.285  0.00  0.00    +0.000 OA
BRANCH  32  34
ATOM     34  O   UNL     1       5.542   2.519  15.903  0.00  0.00    +0.000 OA
ATOM     35  H   UNL     1       4.571   2.339  15.974  0.00  0.00    +0.000 HD
ENDBRANCH  32  34
ENDBRANCH   3  32
TORSDOF 7
ENDMDL
MODEL 9
REMARK VINA RESULT:      -7.5      3.063     11.044
REMARK  Name = 
REMARK  9 active torsions:
REMARK  status: ('A' for Active; 'I' for Inactive)
REMARK    1  A    between atoms: C_1  and  C_2
REMARK    2  A    between atoms: C_2  and  N_3
REMARK    3  A    between atoms: C_5  and  C_6
REMARK    4  A    between atoms: C_6  and  O_8
REMARK    5  A    between atoms: C_15  and  N_16
REMARK    6  A    between atoms: N_19  and  C_20
REMARK    7  A    between atoms: C_20  and  C_21
REMARK    8  A    between atoms: C_24  and  N_25
REMARK    9  A    between atoms: C_29  and  C_30
REMARK                            x       y       z     vdW  Elec       q    Type
REMARK                         _______ _______ _______ _____ _____    ______ ____
ROOT
ATOM      1  N   UNL     1       1.311  10.355  19.243  0.00  0.00    +0.000 N 
ATOM      2  C   UNL     1       0.333  10.951  20.034  0.00  0.00    +0.000 A 
ATOM      3  C   UNL     1      -0.273  10.412  21.101  0.00  0.00    +0.000 A 
ATOM      4  C   UNL     1       0.140   9.051  21.472  0.00  0.00    +0.000 A 
ATOM      5  O   UNL     1      -0.315   8.522  22.485  0.00  0.00    +0.000 OA
ATOM      6  C   UNL     1       1.093   8.341  20.591  0.00  0.00    +0.000 A 
ATOM      7  C   UNL     1       1.375   7.005  20.887  0.00  0.00    +0.000 A 
ATOM      8  C   UNL     1       2.254   6.301  20.080  0.00  0.00    +0.000 A 
ATOM      9  F   UNL     1       2.425   4.998  20.366  0.00  0.00    +0.000 F 
ATOM     10  C   UNL     1       2.898   6.885  18.982  0.00  0.00    +0.000 A 
ATOM     11  C   UNL     1       2.574   8.239  18.713  0.00  0.00    +0.000 A 
ATOM     12  F   UNL     1       3.192   8.819  17.667  0.00  0.00    +0.000 F 
ATOM     13  C   UNL     1       1.670   9.004  19.490  0.00  0.00    +0.000 A 
ENDROOT
BRANCH  10  14
ATOM     14  N   UNL     1       3.807   6.179  18.199  0.00  0.00    +0.000 N 
ATOM     15  C   UNL     1       3.749   6.209  16.728  0.00  0.00    +0.000 C 
ATOM     16  C   UNL     1       5.104   6.640  16.123  0.00  0.00    +0.000 C 
ATOM     17  N   UNL     1       6.276   5.860  16.619  0.00  0.00    +0.000 NA
ATOM     18  C   UNL     1       6.279   6.033  18.106  0.00  0.00    +0.000 C 
ATOM     19  C   UNL     1       7.547   5.515  18.787  0.00  0.00    +0.000 C 
ATOM     20  C   UNL     1       4.983   5.530  18.809  0.00  0.00    +0.000 C 
BRANCH  17  21
ATOM     21  C   UNL     1       6.190   4.442  16.196  0.00  0.00    +0.000 C 
BRANCH  21  22
ATOM     22  C   UNL     1       6.459   4.270  14.732  0.00  0.00    +0.000 A 
ATOM     23  C   UNL     1       7.410   4.800  13.875  0.00  0.00    +0.000 A 
ATOM     24  C   UNL     1       7.094   4.338  12.573  0.00  0.00    +0.000 A 
ATOM     25  C   UNL     1       5.991   3.533  12.728  0.00  0.00    +0.000 A 
ATOM     26  O   UNL     1       5.587   3.482  14.028  0.00  0.00    +0.000 OA
BRANCH  25  27
ATOM     27  N   UNL     1       5.222   2.788  11.782  0.00  0.00    +0.000 N 
ATOM     28  O   UNL     1       5.693   1.696  11.430  0.00  0.00    +0.000 OA
ATOM     29  O   UNL     1       4.156   3.276  11.386  0.00  0.00    +0.000 OA
ENDBRANCH  25  27
ENDBRANCH  21  22
ENDBRANCH  17  21
ENDBRANCH  10  14
BRANCH   1  31
ATOM     30  C   UNL     1       2.089  12.592  18.511  0.00  0.00    +0.000 C 
ATOM     31  C   UNL     1       1.949  11.119  18.153  0.00  0.00    +0.000 C 
ENDBRANCH   1  31
BRANCH   3  32
ATOM     32  C   UNL     1      -1.294  11.185  21.841  0.00  0.00    +0.000 C 
ATOM     33  O   UNL     1      -2.060  11.968  21.306  0.00  0.00    +0.000 OA
BRANCH  32  34
ATOM     34  O   UNL     1      -1.320  10.946  23.171  0.00  0.00    +0.000 OA
ATOM     35  H   UNL     1      -0.797  11.591  23.710  0.00  0.00    +0.000 HD
ENDBRANCH  32  34
ENDBRANCH   3  32
TORSDOF 7
ENDMDL
