MODEL 1
REMARK VINA RESULT:      -7.8      0.000      0.000
REMARK  Name = 
REMARK  8 active torsions:
REMARK  status: ('A' for Active; 'I' for Inactive)
REMARK    1  A    between atoms: C_1  and  C_2
REMARK    2  A    between atoms: C_2  and  N_3
REMARK    3  A    between atoms: N_6  and  C_7
REMARK    4  A    between atoms: C_7  and  C_8
REMARK    5  A    between atoms: C_8  and  C_9
REMARK    6  A    between atoms: N_11  and  C_12
REMARK    7  A    between atoms: C_17  and  C_18
REMARK    8  A    between atoms: N_22  and  C_23
REMARK                            x       y       z     vdW  Elec       q    Type
REMARK                         _______ _______ _______ _____ _____    ______ ____
ROOT
ATOM      1  C   UNL     1       1.868   7.883  20.083  0.00  0.00    +0.000 A 
ATOM      2  C   UNL     1       1.691   8.639  18.920  0.00  0.00    +0.000 A 
ATOM      3  C   UNL     1       0.943   9.816  18.916  0.00  0.00    +0.000 A 
ATOM      4  C   UNL     1       0.373  10.190  20.126  0.00  0.00    +0.000 A 
ATOM      5  N   UNL     1      -0.350  11.288  20.494  0.00  0.00    +0.000 N 
ATOM      6  C   UNL     1      -0.669  11.175  21.820  0.00  0.00    +0.000 A 
ATOM      7  N   UNL     1      -0.201  10.050  22.323  0.00  0.00    +0.000 NA
ATOM      8  C   UNL     1       0.468   9.436  21.290  0.00  0.00    +0.000 A 
ATOM      9  C   UNL     1       1.208   8.245  21.271  0.00  0.00    +0.000 A 
ATOM     10  H   UNL     1      -0.580  12.069  19.900  0.00  0.00    +0.000 HD
ENDROOT
BRANCH   6  11
ATOM     11  C   UNL     1      -1.409  12.179  22.525  0.00  0.00    +0.000 A 
ATOM     12  C   UNL     1      -2.622  12.058  23.183  0.00  0.00    +0.000 A 
ATOM     13  C   UNL     1      -2.956  13.316  23.737  0.00  0.00    +0.000 A 
ATOM     14  C   UNL     1      -1.943  14.184  23.402  0.00  0.00    +0.000 A 
ATOM     15  N   UNL     1      -1.014  13.495  22.660  0.00  0.00    +0.000 N 
ATOM     16  C   UNL     1       0.185  14.092  22.113  0.00  0.00    +0.000 C 
ENDBRANCH   6  11
BRANCH   1  19
ATOM     17  C   UNL     1       2.790   5.724  19.232  0.00  0.00    +0.000 C 
ATOM     18  O   UNL     1       2.058   5.546  18.261  0.00  0.00    +0.000 OA
ATOM     19  N   UNL     1       2.729   6.773  20.130  0.00  0.00    +0.000 N 
ATOM     20  H   UNL     1       3.547   6.866  20.735  0.00  0.00    +0.000 HD
BRANCH  17  21
ATOM     21  C   UNL     1       3.860   4.701  19.562  0.00  0.00    +0.000 C 
BRANCH  21  22
ATOM     22  C   UNL     1       5.279   5.195  19.275  0.00  0.00    +0.000 C 
BRANCH  22  26
ATOM     23  N   UNL     1       6.357   5.666  15.675  0.00  0.00    +0.000 NA
ATOM     24  C   UNL     1       5.086   5.051  16.116  0.00  0.00    +0.000 C 
ATOM     25  C   UNL     1       5.275   3.926  17.155  0.00  0.00    +0.000 C 
ATOM     26  N   UNL     1       6.045   4.318  18.360  0.00  0.00    +0.000 NA
ATOM     27  C   UNL     1       7.300   4.989  17.938  0.00  0.00    +0.000 C 
ATOM     28  C   UNL     1       7.105   6.097  16.876  0.00  0.00    +0.000 C 
BRANCH  23  30
ATOM     29  C   UNL     1       6.280   4.091  13.713  0.00  0.00    +0.000 C 
ATOM     30  C   UNL     1       7.103   4.714  14.831  0.00  0.00    +0.000 C 
ENDBRANCH  23  30
ENDBRANCH  22  26
ENDBRANCH  21  22
ENDBRANCH  17  21
ENDBRANCH   1  19
TORSDOF 6
ENDMDL
MODEL 2
REMARK VINA RESULT:      -7.6      0.895      1.408
REMARK  Name = 
REMARK  8 active torsions:
REMARK  status: ('A' for Active; 'I' for Inactive)
REMARK    1  A    between atoms: C_1  and  C_2
REMARK    2  A    between atoms: C_2  and  N_3
REMARK    3  A    between atoms: N_6  and  C_7
REMARK    4  A    between atoms: C_7  and  C_8
REMARK    5  A    between atoms: C_8  and  C_9
REMARK    6  A    between atoms: N_11  and  C_12
REMARK    7  A    between atoms: C_17  and  C_18
REMARK    8  A    between atoms: N_22  and  C_23
REMARK                            x       y       z     vdW  Elec       q    Type
REMARK                         _______ _______ _______ _____ _____    ______ ____
ROOT
ATOM      1  C   UNL     1       2.134   7.818  19.232  0.00  0.00    +0.000 A 
ATOM      2  C   UNL     1       1.707   8.460  18.066  0.00  0.00    +0.000 A 
ATOM      3  C   UNL     1       1.051   9.690  18.103  0.00  0.00    +0.000 A 
ATOM      4  C   UNL     1       0.834  10.237  19.361  0.00  0.00    +0.000 A 
ATOM      5  N   UNL     1       0.294  11.426  19.760  0.00  0.00    +0.000 N 
ATOM      6  C   UNL     1       0.321  11.481  21.126  0.00  0.00    +0.000 A 
ATOM      7  N   UNL     1       0.838  10.378  21.632  0.00  0.00    +0.000 NA
ATOM      8  C   UNL     1       1.182   9.604  20.548  0.00  0.00    +0.000 A 
ATOM      9  C   UNL     1       1.824   8.358  20.493  0.00  0.00    +0.000 A 
ATOM     10  H   UNL     1      -0.037  12.157  19.150  0.00  0.00    +0.000 HD
ENDROOT
BRANCH   6  11
ATOM     11  C   UNL     1      -0.154  12.613  21.864  0.00  0.00    +0.000 A 
ATOM     12  C   UNL     1       0.269  13.931  21.794  0.00  0.00    +0.000 A 
ATOM     13  C   UNL     1      -0.497  14.694  22.706  0.00  0.00    +0.000 A 
ATOM     14  C   UNL     1      -1.371  13.828  23.320  0.00  0.00    +0.000 A 
ATOM     15  N   UNL     1      -1.153  12.568  22.815  0.00  0.00    +0.000 N 
ATOM     16  C   UNL     1      -1.878  11.391  23.244  0.00  0.00    +0.000 C 
ENDBRANCH   6  11
BRANCH   1  19
ATOM     17  C   UNL     1       2.609   5.425  19.767  0.00  0.00    +0.000 C 
ATOM     18  O   UNL     1       1.623   5.159  20.452  0.00  0.00    +0.000 OA
ATOM     19  N   UNL     1       2.914   6.649  19.201  0.00  0.00    +0.000 N 
ATOM     20  H   UNL     1       3.650   6.621  18.493  0.00  0.00    +0.000 HD
BRANCH  17  21
ATOM     21  C   UNL     1       3.659   4.360  19.518  0.00  0.00    +0.000 C 
BRANCH  21  22
ATOM     22  C   UNL     1       5.058   4.932  19.281  0.00  0.00    +0.000 C 
BRANCH  22  26
ATOM     23  N   UNL     1       6.303   5.687  15.784  0.00  0.00    +0.000 NA
ATOM     24  C   UNL     1       5.020   5.026  16.114  0.00  0.00    +0.000 C 
ATOM     25  C   UNL     1       5.174   3.828  17.073  0.00  0.00    +0.000 C 
ATOM     26  N   UNL     1       5.879   4.135  18.341  0.00  0.00    +0.000 NA
ATOM     27  C   UNL     1       7.144   4.848  18.034  0.00  0.00    +0.000 C 
ATOM     28  C   UNL     1       6.986   6.032  17.050  0.00  0.00    +0.000 C 
BRANCH  23  30
ATOM     29  C   UNL     1       6.318   4.184  13.765  0.00  0.00    +0.000 C 
ATOM     30  C   UNL     1       7.102   4.808  14.909  0.00  0.00    +0.000 C 
ENDBRANCH  23  30
ENDBRANCH  22  26
ENDBRANCH  21  22
ENDBRANCH  17  21
ENDBRANCH   1  19
TORSDOF 6
ENDMDL
MODEL 3
REMARK VINA RESULT:      -7.6      1.180      1.644
REMARK  Name = 
REMARK  8 active torsions:
REMARK  status: ('A' for Active; 'I' for Inactive)
REMARK    1  A    between atoms: C_1  and  C_2
REMARK    2  A    between atoms: C_2  and  N_3
REMARK    3  A    between atoms: N_6  and  C_7
REMARK    4  A    between atoms: C_7  and  C_8
REMARK    5  A    between atoms: C_8  and  C_9
REMARK    6  A    between atoms: N_11  and  C_12
REMARK    7  A    between atoms: C_17  and  C_18
REMARK    8  A    between atoms: N_22  and  C_23
REMARK                            x       y       z     vdW  Elec       q    Type
REMARK                         _______ _______ _______ _____ _____    ______ ____
ROOT
ATOM      1  C   UNL     1       2.128   7.654  19.557  0.00  0.00    +0.000 A 
ATOM      2  C   UNL     1       2.050   8.385  18.368  0.00  0.00    +0.000 A 
ATOM      3  C   UNL     1       1.315   9.567  18.280  0.00  0.00    +0.000 A 
ATOM      4  C   UNL     1       0.653   9.971  19.433  0.00  0.00    +0.000 A 
ATOM      5  N   UNL     1      -0.087  11.082  19.719  0.00  0.00    +0.000 N 
ATOM      6  C   UNL     1      -0.511  11.000  21.017  0.00  0.00    +0.000 A 
ATOM      7  N   UNL     1      -0.094   9.883  21.580  0.00  0.00    +0.000 NA
ATOM      8  C   UNL     1       0.650   9.242  20.616  0.00  0.00    +0.000 A 
ATOM      9  C   UNL     1       1.379   8.046  20.681  0.00  0.00    +0.000 A 
ATOM     10  H   UNL     1      -0.262  11.852  19.092  0.00  0.00    +0.000 HD
ENDROOT
BRANCH   6  11
ATOM     11  C   UNL     1      -1.296  12.025  21.640  0.00  0.00    +0.000 A 
ATOM     12  C   UNL     1      -1.124  12.609  22.884  0.00  0.00    +0.000 A 
ATOM     13  C   UNL     1      -2.139  13.578  23.065  0.00  0.00    +0.000 A 
ATOM     14  C   UNL     1      -2.915  13.564  21.929  0.00  0.00    +0.000 A 
ATOM     15  N   UNL     1      -2.407  12.615  21.074  0.00  0.00    +0.000 N 
ATOM     16  C   UNL     1      -2.981  12.304  19.782  0.00  0.00    +0.000 C 
ENDBRANCH   6  11
BRANCH   1  19
ATOM     17  C   UNL     1       2.612   5.206  19.646  0.00  0.00    +0.000 C 
ATOM     18  O   UNL     1       1.473   4.757  19.529  0.00  0.00    +0.000 OA
ATOM     19  N   UNL     1       2.973   6.539  19.696  0.00  0.00    +0.000 N 
ATOM     20  H   UNL     1       3.971   6.717  19.577  0.00  0.00    +0.000 HD
BRANCH  17  21
ATOM     21  C   UNL     1       3.780   4.252  19.803  0.00  0.00    +0.000 C 
BRANCH  21  22
ATOM     22  C   UNL     1       5.043   4.716  19.075  0.00  0.00    +0.000 C 
BRANCH  22  26
ATOM     23  N   UNL     1       6.869   4.286  15.784  0.00  0.00    +0.000 NA
ATOM     24  C   UNL     1       7.154   5.330  16.793  0.00  0.00    +0.000 C 
ATOM     25  C   UNL     1       5.904   6.119  17.232  0.00  0.00    +0.000 C 
ATOM     26  N   UNL     1       4.786   5.283  17.731  0.00  0.00    +0.000 NA
ATOM     27  C   UNL     1       4.520   4.194  16.758  0.00  0.00    +0.000 C 
ATOM     28  C   UNL     1       5.784   3.425  16.302  0.00  0.00    +0.000 C 
BRANCH  23  30
ATOM     29  C   UNL     1       6.190   3.939  13.385  0.00  0.00    +0.000 C 
ATOM     30  C   UNL     1       6.547   4.920  14.492  0.00  0.00    +0.000 C 
ENDBRANCH  23  30
ENDBRANCH  22  26
ENDBRANCH  21  22
ENDBRANCH  17  21
ENDBRANCH   1  19
TORSDOF 6
ENDMDL
MODEL 4
REMARK VINA RESULT:      -7.5      7.184      9.097
REMARK  Name = 
REMARK  8 active torsions:
REMARK  status: ('A' for Active; 'I' for Inactive)
REMARK    1  A    between atoms: C_1  and  C_2
REMARK    2  A    between atoms: C_2  and  N_3
REMARK    3  A    between atoms: N_6  and  C_7
REMARK    4  A    between atoms: C_7  and  C_8
REMARK    5  A    between atoms: C_8  and  C_9
REMARK    6  A    between atoms: N_11  and  C_12
REMARK    7  A    between atoms: C_17  and  C_18
REMARK    8  A    between atoms: N_22  and  C_23
REMARK                            x       y       z     vdW  Elec       q    Type
REMARK                         _______ _______ _______ _____ _____    ______ ____
ROOT
ATOM      1  C   UNL     1       9.366  10.342  19.332  0.00  0.00    +0.000 A 
ATOM      2  C   UNL     1       9.377  10.799  20.653  0.00  0.00    +0.000 A 
ATOM      3  C   UNL     1       9.651  12.130  20.967  0.00  0.00    +0.000 A 
ATOM      4  C   UNL     1       9.925  12.974  19.898  0.00  0.00    +0.000 A 
ATOM      5  N   UNL     1      10.167  14.316  19.832  0.00  0.00    +0.000 N 
ATOM      6  C   UNL     1      10.370  14.659  18.524  0.00  0.00    +0.000 A 
ATOM      7  N   UNL     1      10.286  13.600  17.741  0.00  0.00    +0.000 NA
ATOM      8  C   UNL     1       9.989  12.549  18.576  0.00  0.00    +0.000 A 
ATOM      9  C   UNL     1       9.729  11.203  18.281  0.00  0.00    +0.000 A 
ATOM     10  H   UNL     1      10.161  14.955  20.612  0.00  0.00    +0.000 HD
ENDROOT
BRANCH   6  11
ATOM     11  C   UNL     1      10.627  16.006  18.108  0.00  0.00    +0.000 A 
ATOM     12  C   UNL     1      11.837  16.592  17.775  0.00  0.00    +0.000 A 
ATOM     13  C   UNL     1      11.595  17.940  17.421  0.00  0.00    +0.000 A 
ATOM     14  C   UNL     1      10.243  18.154  17.550  0.00  0.00    +0.000 A 
ATOM     15  N   UNL     1       9.662  16.983  17.975  0.00  0.00    +0.000 N 
ATOM     16  C   UNL     1       8.247  16.835  18.241  0.00  0.00    +0.000 C 
ENDBRANCH   6  11
BRANCH   1  19
ATOM     17  C   UNL     1       8.055   8.676  18.011  0.00  0.00    +0.000 C 
ATOM     18  O   UNL     1       7.403   9.434  17.297  0.00  0.00    +0.000 OA
ATOM     19  N   UNL     1       8.958   9.040  18.993  0.00  0.00    +0.000 N 
ATOM     20  H   UNL     1       9.557   8.283  19.326  0.00  0.00    +0.000 HD
BRANCH  17  21
ATOM     21  C   UNL     1       7.864   7.177  17.886  0.00  0.00    +0.000 C 
BRANCH  21  22
ATOM     22  C   UNL     1       6.403   6.766  17.694  0.00  0.00    +0.000 C 
BRANCH  22  26
ATOM     23  N   UNL     1       3.944   3.997  16.898  0.00  0.00    +0.000 NA
ATOM     24  C   UNL     1       3.626   5.243  17.630  0.00  0.00    +0.000 C 
ATOM     25  C   UNL     1       4.580   5.525  18.809  0.00  0.00    +0.000 C 
ATOM     26  N   UNL     1       6.018   5.551  18.449  0.00  0.00    +0.000 NA
ATOM     27  C   UNL     1       6.347   4.335  17.664  0.00  0.00    +0.000 C 
ATOM     28  C   UNL     1       5.368   4.044  16.501  0.00  0.00    +0.000 C 
BRANCH  23  30
ATOM     29  C   UNL     1       2.120   2.657  17.999  0.00  0.00    +0.000 C 
ATOM     30  C   UNL     1       3.608   2.830  17.734  0.00  0.00    +0.000 C 
ENDBRANCH  23  30
ENDBRANCH  22  26
ENDBRANCH  21  22
ENDBRANCH  17  21
ENDBRANCH   1  19
TORSDOF 6
ENDMDL
MODEL 5
REMARK VINA RESULT:      -7.4      1.150      1.557
REMARK  Name = 
REMARK  8 active torsions:
REMARK  status: ('A' for Active; 'I' for Inactive)
REMARK    1  A    between atoms: C_1  and  C_2
REMARK    2  A    between atoms: C_2  and  N_3
REMARK    3  A    between atoms: N_6  and  C_7
REMARK    4  A    between atoms: C_7  and  C_8
REMARK    5  A    between atoms: C_8  and  C_9
REMARK    6  A    between atoms: N_11  and  C_12
REMARK    7  A    between atoms: C_17  and  C_18
REMARK    8  A    between atoms: N_22  and  C_23
REMARK                            x       y       z     vdW  Elec       q    Type
REMARK                         _______ _______ _______ _____ _____    ______ ____
ROOT
ATOM      1  C   UNL     1       2.210   7.246  19.798  0.00  0.00    +0.000 A 
ATOM      2  C   UNL     1       2.210   7.869  18.546  0.00  0.00    +0.000 A 
ATOM      3  C   UNL     1       1.622   9.118  18.348  0.00  0.00    +0.000 A 
ATOM      4  C   UNL     1       1.024   9.703  19.457  0.00  0.00    +0.000 A 
ATOM      5  N   UNL     1       0.426  10.917  19.638  0.00  0.00    +0.000 N 
ATOM      6  C   UNL     1       0.007  11.006  20.938  0.00  0.00    +0.000 A 
ATOM      7  N   UNL     1       0.292   9.903  21.602  0.00  0.00    +0.000 NA
ATOM      8  C   UNL     1       0.944   9.092  20.703  0.00  0.00    +0.000 A 
ATOM      9  C   UNL     1       1.525   7.828  20.880  0.00  0.00    +0.000 A 
ATOM     10  H   UNL     1       0.338  11.641  18.943  0.00  0.00    +0.000 HD
ENDROOT
BRANCH   6  11
ATOM     11  C   UNL     1      -0.643  12.171  21.462  0.00  0.00    +0.000 A 
ATOM     12  C   UNL     1      -1.932  12.294  21.955  0.00  0.00    +0.000 A 
ATOM     13  C   UNL     1      -2.125  13.633  22.366  0.00  0.00    +0.000 A 
ATOM     14  C   UNL     1      -0.952  14.306  22.112  0.00  0.00    +0.000 A 
ATOM     15  N   UNL     1      -0.061  13.419  21.556  0.00  0.00    +0.000 N 
ATOM     16  C   UNL     1       1.277  13.776  21.137  0.00  0.00    +0.000 C 
ENDBRANCH   6  11
BRANCH   1  19
ATOM     17  C   UNL     1       2.514   4.768  19.738  0.00  0.00    +0.000 C 
ATOM     18  O   UNL     1       1.436   4.432  19.253  0.00  0.00    +0.000 OA
ATOM     19  N   UNL     1       2.917   6.055  20.042  0.00  0.00    +0.000 N 
ATOM     20  H   UNL     1       3.915   6.158  20.231  0.00  0.00    +0.000 HD
BRANCH  17  21
ATOM     21  C   UNL     1       3.533   3.708  20.108  0.00  0.00    +0.000 C 
BRANCH  21  22
ATOM     22  C   UNL     1       4.647   3.550  19.072  0.00  0.00    +0.000 C 
BRANCH  22  26
ATOM     23  N   UNL     1       6.968   4.161  16.141  0.00  0.00    +0.000 NA
ATOM     24  C   UNL     1       7.214   4.594  17.536  0.00  0.00    +0.000 C 
ATOM     25  C   UNL     1       6.036   5.375  18.153  0.00  0.00    +0.000 C 
ATOM     26  N   UNL     1       4.732   4.671  18.108  0.00  0.00    +0.000 NA
ATOM     27  C   UNL     1       4.492   4.179  16.728  0.00  0.00    +0.000 C 
ATOM     28  C   UNL     1       5.689   3.420  16.105  0.00  0.00    +0.000 C 
BRANCH  23  30
ATOM     29  C   UNL     1       7.005   4.991  13.765  0.00  0.00    +0.000 C 
ATOM     30  C   UNL     1       6.992   5.334  15.247  0.00  0.00    +0.000 C 
ENDBRANCH  23  30
ENDBRANCH  22  26
ENDBRANCH  21  22
ENDBRANCH  17  21
ENDBRANCH   1  19
TORSDOF 6
ENDMDL
MODEL 6
REMARK VINA RESULT:      -7.4      0.967      1.716
REMARK  Name = 
REMARK  8 active torsions:
REMARK  status: ('A' for Active; 'I' for Inactive)
REMARK    1  A    between atoms: C_1  and  C_2
REMARK    2  A    between atoms: C_2  and  N_3
REMARK    3  A    between atoms: N_6  and  C_7
REMARK    4  A    between atoms: C_7  and  C_8
REMARK    5  A    between atoms: C_8  and  C_9
REMARK    6  A    between atoms: N_11  and  C_12
REMARK    7  A    between atoms: C_17  and  C_18
REMARK    8  A    between atoms: N_22  and  C_23
REMARK                            x       y       z     vdW  Elec       q    Type
REMARK                         _______ _______ _______ _____ _____    ______ ____
ROOT
ATOM      1  C   UNL     1       2.019   7.898  19.748  0.00  0.00    +0.000 A 
ATOM      2  C   UNL     1       1.692   8.519  18.538  0.00  0.00    +0.000 A 
ATOM      3  C   UNL     1       1.053   9.758  18.499  0.00  0.00    +0.000 A 
ATOM      4  C   UNL     1       0.747  10.336  19.725  0.00  0.00    +0.000 A 
ATOM      5  N   UNL     1       0.195  11.540  20.054  0.00  0.00    +0.000 N 
ATOM      6  C   UNL     1       0.118  11.625  21.418  0.00  0.00    +0.000 A 
ATOM      7  N   UNL     1       0.579  10.527  21.985  0.00  0.00    +0.000 NA
ATOM      8  C   UNL     1       0.994   9.725  20.948  0.00  0.00    +0.000 A 
ATOM      9  C   UNL     1       1.620   8.470  20.969  0.00  0.00    +0.000 A 
ATOM     10  H   UNL     1      -0.077  12.262  19.406  0.00  0.00    +0.000 HD
ENDROOT
BRANCH   6  11
ATOM     11  C   UNL     1      -0.396  12.780  22.092  0.00  0.00    +0.000 A 
ATOM     12  C   UNL     1       0.073  14.083  22.055  0.00  0.00    +0.000 A 
ATOM     13  C   UNL     1      -0.760  14.879  22.876  0.00  0.00    +0.000 A 
ATOM     14  C   UNL     1      -1.720  14.047  23.403  0.00  0.00    +0.000 A 
ATOM     15  N   UNL     1      -1.490  12.775  22.934  0.00  0.00    +0.000 N 
ATOM     16  C   UNL     1      -2.291  11.625  23.295  0.00  0.00    +0.000 C 
ENDBRANCH   6  11
BRANCH   1  19
ATOM     17  C   UNL     1       2.310   5.421  19.881  0.00  0.00    +0.000 C 
ATOM     18  O   UNL     1       1.136   5.072  19.979  0.00  0.00    +0.000 OA
ATOM     19  N   UNL     1       2.782   6.719  19.801  0.00  0.00    +0.000 N 
ATOM     20  H   UNL     1       3.756   6.803  19.507  0.00  0.00    +0.000 HD
BRANCH  17  21
ATOM     21  C   UNL     1       3.407   4.375  19.889  0.00  0.00    +0.000 C 
BRANCH  21  22
ATOM     22  C   UNL     1       4.682   4.826  19.174  0.00  0.00    +0.000 C 
BRANCH  22  26
ATOM     23  N   UNL     1       6.664   4.382  15.976  0.00  0.00    +0.000 NA
ATOM     24  C   UNL     1       6.851   5.475  16.957  0.00  0.00    +0.000 C 
ATOM     25  C   UNL     1       5.543   6.210  17.316  0.00  0.00    +0.000 C 
ATOM     26  N   UNL     1       4.451   5.332  17.801  0.00  0.00    +0.000 NA
ATOM     27  C   UNL     1       4.285   4.197  16.859  0.00  0.00    +0.000 C 
ATOM     28  C   UNL     1       5.605   3.482  16.482  0.00  0.00    +0.000 C 
BRANCH  23  30
ATOM     29  C   UNL     1       6.192   3.919  13.548  0.00  0.00    +0.000 C 
ATOM     30  C   UNL     1       6.363   4.953  14.650  0.00  0.00    +0.000 C 
ENDBRANCH  23  30
ENDBRANCH  22  26
ENDBRANCH  21  22
ENDBRANCH  17  21
ENDBRANCH   1  19
TORSDOF 6
ENDMDL
MODEL 7
REMARK VINA RESULT:      -7.4      2.776      4.138
REMARK  Name = 
REMARK  8 active torsions:
REMARK  status: ('A' for Active; 'I' for Inactive)
REMARK    1  A    between atoms: C_1  and  C_2
REMARK    2  A    between atoms: C_2  and  N_3
REMARK    3  A    between atoms: N_6  and  C_7
REMARK    4  A    between atoms: C_7  and  C_8
REMARK    5  A    between atoms: C_8  and  C_9
REMARK    6  A    between atoms: N_11  and  C_12
REMARK    7  A    between atoms: C_17  and  C_18
REMARK    8  A    between atoms: N_22  and  C_23
REMARK                            x       y       z     vdW  Elec       q    Type
REMARK                         _______ _______ _______ _____ _____    ______ ____
ROOT
ATOM      1  C   UNL     1       0.198   9.941  19.551  0.00  0.00    +0.000 A 
ATOM      2  C   UNL     1      -0.828  10.483  18.770  0.00  0.00    +0.000 A 
ATOM      3  C   UNL     1      -1.674  11.479  19.258  0.00  0.00    +0.000 A 
ATOM      4  C   UNL     1      -1.451  11.894  20.565  0.00  0.00    +0.000 A 
ATOM      5  N   UNL     1      -2.031  12.868  21.325  0.00  0.00    +0.000 N 
ATOM      6  C   UNL     1      -1.433  12.875  22.555  0.00  0.00    +0.000 A 
ATOM      7  N   UNL     1      -0.504  11.942  22.633  0.00  0.00    +0.000 NA
ATOM      8  C   UNL     1      -0.487  11.337  21.397  0.00  0.00    +0.000 A 
ATOM      9  C   UNL     1       0.342  10.324  20.896  0.00  0.00    +0.000 A 
ATOM     10  H   UNL     1      -2.754  13.501  21.021  0.00  0.00    +0.000 HD
ENDROOT
BRANCH   6  11
ATOM     11  C   UNL     1      -1.797  13.800  23.587  0.00  0.00    +0.000 A 
ATOM     12  C   UNL     1      -1.110  14.921  24.024  0.00  0.00    +0.000 A 
ATOM     13  C   UNL     1      -1.861  15.527  25.059  0.00  0.00    +0.000 A 
ATOM     14  C   UNL     1      -2.991  14.762  25.237  0.00  0.00    +0.000 A 
ATOM     15  N   UNL     1      -2.942  13.713  24.351  0.00  0.00    +0.000 N 
ATOM     16  C   UNL     1      -3.957  12.684  24.264  0.00  0.00    +0.000 C 
ENDBRANCH   6  11
BRANCH   1  19
ATOM     17  C   UNL     1       2.174   9.323  18.155  0.00  0.00    +0.000 C 
ATOM     18  O   UNL     1       2.417  10.410  17.635  0.00  0.00    +0.000 OA
ATOM     19  N   UNL     1       1.140   9.038  19.027  0.00  0.00    +0.000 N 
ATOM     20  H   UNL     1       1.228   8.148  19.519  0.00  0.00    +0.000 HD
BRANCH  17  21
ATOM     21  C   UNL     1       3.029   8.119  17.811  0.00  0.00    +0.000 C 
BRANCH  21  22
ATOM     22  C   UNL     1       2.388   6.787  18.206  0.00  0.00    +0.000 C 
BRANCH  22  26
ATOM     23  N   UNL     1       2.409   3.273  19.618  0.00  0.00    +0.000 NA
ATOM     24  C   UNL     1       1.309   4.251  19.770  0.00  0.00    +0.000 C 
ATOM     25  C   UNL     1       1.776   5.624  20.298  0.00  0.00    +0.000 C 
ATOM     26  N   UNL     1       2.857   6.258  19.507  0.00  0.00    +0.000 NA
ATOM     27  C   UNL     1       3.948   5.273  19.296  0.00  0.00    +0.000 C 
ATOM     28  C   UNL     1       3.469   3.890  18.792  0.00  0.00    +0.000 C 
BRANCH  23  30
ATOM     29  C   UNL     1       1.764   2.509  21.928  0.00  0.00    +0.000 C 
ATOM     30  C   UNL     1       2.879   2.846  20.950  0.00  0.00    +0.000 C 
ENDBRANCH  23  30
ENDBRANCH  22  26
ENDBRANCH  21  22
ENDBRANCH  17  21
ENDBRANCH   1  19
TORSDOF 6
ENDMDL
MODEL 8
REMARK VINA RESULT:      -7.3      1.097      1.303
REMARK  Name = 
REMARK  8 active torsions:
REMARK  status: ('A' for Active; 'I' for Inactive)
REMARK    1  A    between atoms: C_1  and  C_2
REMARK    2  A    between atoms: C_2  and  N_3
REMARK    3  A    between atoms: N_6  and  C_7
REMARK    4  A    between atoms: C_7  and  C_8
REMARK    5  A    between atoms: C_8  and  C_9
REMARK    6  A    between atoms: N_11  and  C_12
REMARK    7  A    between atoms: C_17  and  C_18
REMARK    8  A    between atoms: N_22  and  C_23
REMARK                            x       y       z     vdW  Elec       q    Type
REMARK                         _______ _______ _______ _____ _____    ______ ____
ROOT
ATOM      1  C   UNL     1       2.186   7.767  19.340  0.00  0.00    +0.000 A 
ATOM      2  C   UNL     1       2.061   8.479  18.143  0.00  0.00    +0.000 A 
ATOM      3  C   UNL     1       1.305   9.648  18.060  0.00  0.00    +0.000 A 
ATOM      4  C   UNL     1       0.673  10.060  19.226  0.00  0.00    +0.000 A 
ATOM      5  N   UNL     1      -0.076  11.164  19.518  0.00  0.00    +0.000 N 
ATOM      6  C   UNL     1      -0.459  11.096  20.830  0.00  0.00    +0.000 A 
ATOM      7  N   UNL     1      -0.007   9.994  21.396  0.00  0.00    +0.000 NA
ATOM      8  C   UNL     1       0.716   9.349  20.419  0.00  0.00    +0.000 A 
ATOM      9  C   UNL     1       1.466   8.166  20.480  0.00  0.00    +0.000 A 
ATOM     10  H   UNL     1      -0.282  11.921  18.886  0.00  0.00    +0.000 HD
ENDROOT
BRANCH   6  11
ATOM     11  C   UNL     1      -1.240  12.118  21.461  0.00  0.00    +0.000 A 
ATOM     12  C   UNL     1      -1.015  12.755  22.670  0.00  0.00    +0.000 A 
ATOM     13  C   UNL     1      -2.051  13.697  22.876  0.00  0.00    +0.000 A 
ATOM     14  C   UNL     1      -2.892  13.614  21.791  0.00  0.00    +0.000 A 
ATOM     15  N   UNL     1      -2.402  12.650  20.941  0.00  0.00    +0.000 N 
ATOM     16  C   UNL     1      -3.040  12.271  19.699  0.00  0.00    +0.000 C 
ENDBRANCH   6  11
BRANCH   1  19
ATOM     17  C   UNL     1       2.714   5.328  19.432  0.00  0.00    +0.000 C 
ATOM     18  O   UNL     1       1.582   4.860  19.335  0.00  0.00    +0.000 OA
ATOM     19  N   UNL     1       3.053   6.668  19.470  0.00  0.00    +0.000 N 
ATOM     20  H   UNL     1       4.046   6.862  19.333  0.00  0.00    +0.000 HD
BRANCH  17  21
ATOM     21  C   UNL     1       3.901   4.396  19.574  0.00  0.00    +0.000 C 
BRANCH  21  22
ATOM     22  C   UNL     1       5.228   5.037  19.163  0.00  0.00    +0.000 C 
BRANCH  22  26
ATOM     23  N   UNL     1       6.448   5.641  15.628  0.00  0.00    +0.000 NA
ATOM     24  C   UNL     1       5.167   4.997  15.995  0.00  0.00    +0.000 C 
ATOM     25  C   UNL     1       5.327   3.841  17.003  0.00  0.00    +0.000 C 
ATOM     26  N   UNL     1       6.042   4.200  18.251  0.00  0.00    +0.000 NA
ATOM     27  C   UNL     1       7.305   4.898  17.905  0.00  0.00    +0.000 C 
ATOM     28  C   UNL     1       7.141   6.039  16.873  0.00  0.00    +0.000 C 
BRANCH  23  30
ATOM     29  C   UNL     1       7.146   5.010  13.294  0.00  0.00    +0.000 C 
ATOM     30  C   UNL     1       7.239   4.726  14.785  0.00  0.00    +0.000 C 
ENDBRANCH  23  30
ENDBRANCH  22  26
ENDBRANCH  21  22
ENDBRANCH  17  21
ENDBRANCH   1  19
TORSDOF 6
ENDMDL
MODEL 9
REMARK VINA RESULT:      -7.3      7.258      9.047
REMARK  Name = 
REMARK  8 active torsions:
REMARK  status: ('A' for Active; 'I' for Inactive)
REMARK    1  A    between atoms: C_1  and  C_2
REMARK    2  A    between atoms: C_2  and  N_3
REMARK    3  A    between atoms: N_6  and  C_7
REMARK    4  A    between atoms: C_7  and  C_8
REMARK    5  A    between atoms: C_8  and  C_9
REMARK    6  A    between atoms: N_11  and  C_12
REMARK    7  A    between atoms: C_17  and  C_18
REMARK    8  A    between atoms: N_22  and  C_23
REMARK                            x       y       z     vdW  Elec       q    Type
REMARK                         _______ _______ _______ _____ _____    ______ ____
ROOT
ATOM      1  C   UNL     1       9.344  10.541  19.410  0.00  0.00    +0.000 A 
ATOM      2  C   UNL     1       9.422  10.966  20.740  0.00  0.00    +0.000 A 
ATOM      3  C   UNL     1       9.599  12.309  21.072  0.00  0.00    +0.000 A 
ATOM      4  C   UNL     1       9.705  13.200  20.011  0.00  0.00    +0.000 A 
ATOM      5  N   UNL     1       9.816  14.560  19.968  0.00  0.00    +0.000 N 
ATOM      6  C   UNL     1       9.878  14.951  18.659  0.00  0.00    +0.000 A 
ATOM      7  N   UNL     1       9.828  13.908  17.853  0.00  0.00    +0.000 NA
ATOM      8  C   UNL     1       9.698  12.814  18.676  0.00  0.00    +0.000 A 
ATOM      9  C   UNL     1       9.539  11.457  18.360  0.00  0.00    +0.000 A 
ATOM     10  H   UNL     1       9.817  15.177  20.765  0.00  0.00    +0.000 HD
ENDROOT
BRANCH   6  11
ATOM     11  C   UNL     1       9.975  16.326  18.266  0.00  0.00    +0.000 A 
ATOM     12  C   UNL     1       9.028  17.329  18.390  0.00  0.00    +0.000 A 
ATOM     13  C   UNL     1       9.576  18.525  17.869  0.00  0.00    +0.000 A 
ATOM     14  C   UNL     1      10.846  18.228  17.432  0.00  0.00    +0.000 A 
ATOM     15  N   UNL     1      11.080  16.894  17.666  0.00  0.00    +0.000 N 
ATOM     16  C   UNL     1      12.311  16.217  17.315  0.00  0.00    +0.000 C 
ENDBRANCH   6  11
BRANCH   1  19
ATOM     17  C   UNL     1       8.107   8.792  18.127  0.00  0.00    +0.000 C 
ATOM     18  O   UNL     1       7.351   9.503  17.469  0.00  0.00    +0.000 OA
ATOM     19  N   UNL     1       9.031   9.215  19.065  0.00  0.00    +0.000 N 
ATOM     20  H   UNL     1       9.711   8.507  19.345  0.00  0.00    +0.000 HD
BRANCH  17  21
ATOM     21  C   UNL     1       8.038   7.285  17.978  0.00  0.00    +0.000 C 
BRANCH  21  22
ATOM     22  C   UNL     1       6.613   6.757  17.802  0.00  0.00    +0.000 C 
BRANCH  22  26
ATOM     23  N   UNL     1       3.773   4.293  17.341  0.00  0.00    +0.000 NA
ATOM     24  C   UNL     1       3.869   5.299  18.423  0.00  0.00    +0.000 C 
ATOM     25  C   UNL     1       5.212   5.260  19.181  0.00  0.00    +0.000 C 
ATOM     26  N   UNL     1       6.414   5.384  18.322  0.00  0.00    +0.000 NA
ATOM     27  C   UNL     1       6.310   4.421  17.197  0.00  0.00    +0.000 C 
ATOM     28  C   UNL     1       4.949   4.447  16.459  0.00  0.00    +0.000 C 
BRANCH  23  30
ATOM     29  C   UNL     1       2.271   2.323  17.790  0.00  0.00    +0.000 C 
ATOM     30  C   UNL     1       3.653   2.945  17.928  0.00  0.00    +0.000 C 
ENDBRANCH  23  30
ENDBRANCH  22  26
ENDBRANCH  21  22
ENDBRANCH  17  21
ENDBRANCH   1  19
TORSDOF 6
ENDMDL
