MODEL 1
REMARK VINA RESULT:      -8.5      0.000      0.000
REMARK  Name = 
REMARK  5 active torsions:
REMARK  status: ('A' for Active; 'I' for Inactive)
REMARK    1  A    between atoms: C_2  and  C_21
REMARK    2  A    between atoms: N_3  and  C_4
REMARK    3  A    between atoms: C_4  and  C_5
REMARK    4  A    between atoms: C_5  and  C_6
REMARK    5  A    between atoms: C_5  and  N_15
REMARK                            x       y       z     vdW  Elec       q    Type
REMARK                         _______ _______ _______ _____ _____    ______ ____
ROOT
ATOM      1  C   UNL     1       3.779   5.171  18.716  0.00  0.00    +0.000 C 
ENDROOT
BRANCH   1   2
ATOM      2  C   UNL     1       2.885   6.448  18.959  0.00  0.00    +0.000 A 
ATOM      3  C   UNL     1       2.195   6.672  20.184  0.00  0.00    +0.000 A 
ATOM      4  C   UNL     1       1.523   7.874  20.487  0.00  0.00    +0.000 A 
ATOM      5  C   UNL     1       1.551   8.874  19.553  0.00  0.00    +0.000 A 
ATOM      6  C   UNL     1       2.077   8.640  18.317  0.00  0.00    +0.000 A 
ATOM      7  C   UNL     1       2.643   7.424  17.981  0.00  0.00    +0.000 A 
ATOM      8  O   UNL     1       1.989   9.715  17.491  0.00  0.00    +0.000 OA
ATOM      9  C   UNL     1       1.508  10.706  18.420  0.00  0.00    +0.000 C 
ATOM     10  O   UNL     1       1.060  10.134  19.672  0.00  0.00    +0.000 OA
ENDBRANCH   1   2
BRANCH   1  11
ATOM     11  N   UNL     1       3.292   4.182  17.640  0.00  0.00    +0.000 NA
ATOM     12  C   UNL     1       1.844   3.859  17.592  0.00  0.00    +0.000 C 
ATOM     13  C   UNL     1       1.340   3.254  18.906  0.00  0.00    +0.000 C 
ATOM     14  O   UNL     1       1.919   1.952  19.059  0.00  0.00    +0.000 OA
ATOM     15  C   UNL     1       3.354   2.002  18.994  0.00  0.00    +0.000 C 
ATOM     16  C   UNL     1       3.886   2.812  17.792  0.00  0.00    +0.000 C 
ENDBRANCH   1  11
BRANCH   1  17
ATOM     17  C   UNL     1       5.239   5.631  18.250  0.00  0.00    +0.000 C 
BRANCH  17  20
ATOM     18  O   UNL     1       7.625   4.558  17.175  0.00  0.00    +0.000 OA
ATOM     19  C   UNL     1       6.761   4.961  16.407  0.00  0.00    +0.000 C 
ATOM     20  N   UNL     1       5.601   5.569  16.836  0.00  0.00    +0.000 N 
ATOM     21  H   UNL     1       4.826   5.609  16.189  0.00  0.00    +0.000 HD
BRANCH  19  22
ATOM     22  C   UNL     1       6.897   4.748  14.931  0.00  0.00    +0.000 A 
ATOM     23  C   UNL     1       6.055   3.805  14.315  0.00  0.00    +0.000 A 
ATOM     24  C   UNL     1       6.124   3.582  12.936  0.00  0.00    +0.000 A 
ATOM     25  C   UNL     1       7.041   4.295  12.178  0.00  0.00    +0.000 A 
ATOM     26  F   UNL     1       7.109   4.086  10.856  0.00  0.00    +0.000 F 
ATOM     27  C   UNL     1       7.897   5.221  12.767  0.00  0.00    +0.000 A 
ATOM     28  C   UNL     1       7.830   5.445  14.146  0.00  0.00    +0.000 A 
ENDBRANCH  19  22
ENDBRANCH  17  20
ENDBRANCH   1  17
TORSDOF 5
ENDMDL
MODEL 2
REMARK VINA RESULT:      -8.4      0.647      1.629
REMARK  Name = 
REMARK  5 active torsions:
REMARK  status: ('A' for Active; 'I' for Inactive)
REMARK    1  A    between atoms: C_2  and  C_21
REMARK    2  A    between atoms: N_3  and  C_4
REMARK    3  A    between atoms: C_4  and  C_5
REMARK    4  A    between atoms: C_5  and  C_6
REMARK    5  A    between atoms: C_5  and  N_15
REMARK                            x       y       z     vdW  Elec       q    Type
REMARK                         _______ _______ _______ _____ _____    ______ ____
ROOT
ATOM      1  C   UNL     1       3.560   5.127  18.764  0.00  0.00    +0.000 C 
ENDROOT
BRANCH   1   2
ATOM      2  C   UNL     1       2.918   6.562  18.906  0.00  0.00    +0.000 A 
ATOM      3  C   UNL     1       2.993   7.535  17.870  0.00  0.00    +0.000 A 
ATOM      4  C   UNL     1       2.295   8.760  17.903  0.00  0.00    +0.000 A 
ATOM      5  C   UNL     1       1.500   9.011  18.988  0.00  0.00    +0.000 A 
ATOM      6  C   UNL     1       1.519   8.168  20.059  0.00  0.00    +0.000 A 
ATOM      7  C   UNL     1       2.286   7.018  20.072  0.00  0.00    +0.000 A 
ATOM      8  O   UNL     1       0.711   8.580  21.071  0.00  0.00    +0.000 OA
ATOM      9  C   UNL     1       0.047   9.685  20.429  0.00  0.00    +0.000 C 
ATOM     10  O   UNL     1       0.672  10.070  19.182  0.00  0.00    +0.000 OA
ENDBRANCH   1   2
BRANCH   1  11
ATOM     11  N   UNL     1       2.898   4.175  17.750  0.00  0.00    +0.000 NA
ATOM     12  C   UNL     1       1.442   3.914  17.881  0.00  0.00    +0.000 C 
ATOM     13  C   UNL     1       1.080   3.316  19.243  0.00  0.00    +0.000 C 
ATOM     14  O   UNL     1       1.615   1.987  19.313  0.00  0.00    +0.000 OA
ATOM     15  C   UNL     1       3.031   1.976  19.070  0.00  0.00    +0.000 C 
ATOM     16  C   UNL     1       3.445   2.778  17.816  0.00  0.00    +0.000 C 
ENDBRANCH   1  11
BRANCH   1  17
ATOM     17  C   UNL     1       5.080   5.275  18.289  0.00  0.00    +0.000 C 
BRANCH  17  20
ATOM     18  O   UNL     1       7.580   4.621  17.139  0.00  0.00    +0.000 OA
ATOM     19  C   UNL     1       6.633   4.853  16.399  0.00  0.00    +0.000 C 
ATOM     20  N   UNL     1       5.399   5.255  16.864  0.00  0.00    +0.000 N 
ATOM     21  H   UNL     1       4.607   5.148  16.245  0.00  0.00    +0.000 HD
BRANCH  19  22
ATOM     22  C   UNL     1       6.754   4.645  14.920  0.00  0.00    +0.000 A 
ATOM     23  C   UNL     1       7.707   5.403  14.218  0.00  0.00    +0.000 A 
ATOM     24  C   UNL     1       7.877   5.233  12.840  0.00  0.00    +0.000 A 
ATOM     25  C   UNL     1       7.087   4.313  12.167  0.00  0.00    +0.000 A 
ATOM     26  F   UNL     1       7.248   4.145  10.847  0.00  0.00    +0.000 F 
ATOM     27  C   UNL     1       6.125   3.563  12.837  0.00  0.00    +0.000 A 
ATOM     28  C   UNL     1       5.953   3.732  14.215  0.00  0.00    +0.000 A 
ENDBRANCH  19  22
ENDBRANCH  17  20
ENDBRANCH   1  17
TORSDOF 5
ENDMDL
MODEL 3
REMARK VINA RESULT:      -8.3      0.952      1.412
REMARK  Name = 
REMARK  5 active torsions:
REMARK  status: ('A' for Active; 'I' for Inactive)
REMARK    1  A    between atoms: C_2  and  C_21
REMARK    2  A    between atoms: N_3  and  C_4
REMARK    3  A    between atoms: C_4  and  C_5
REMARK    4  A    between atoms: C_5  and  C_6
REMARK    5  A    between atoms: C_5  and  N_15
REMARK                            x       y       z     vdW  Elec       q    Type
REMARK                         _______ _______ _______ _____ _____    ______ ____
ROOT
ATOM      1  C   UNL     1       3.364   5.404  19.711  0.00  0.00    +0.000 C 
ENDROOT
BRANCH   1   2
ATOM      2  C   UNL     1       2.521   6.735  19.630  0.00  0.00    +0.000 A 
ATOM      3  C   UNL     1       1.718   7.195  20.713  0.00  0.00    +0.000 A 
ATOM      4  C   UNL     1       1.086   8.455  20.730  0.00  0.00    +0.000 A 
ATOM      5  C   UNL     1       1.268   9.275  19.650  0.00  0.00    +0.000 A 
ATOM      6  C   UNL     1       1.909   8.810  18.541  0.00  0.00    +0.000 A 
ATOM      7  C   UNL     1       2.439   7.535  18.481  0.00  0.00    +0.000 A 
ATOM      8  O   UNL     1       1.969   9.729  17.540  0.00  0.00    +0.000 OA
ATOM      9  C   UNL     1       1.448  10.883  18.227  0.00  0.00    +0.000 C 
ATOM     10  O   UNL     1       0.839  10.554  19.498  0.00  0.00    +0.000 OA
ENDBRANCH   1   2
BRANCH   1  11
ATOM     11  N   UNL     1       2.865   4.221  18.859  0.00  0.00    +0.000 NA
ATOM     12  C   UNL     1       1.418   3.890  18.900  0.00  0.00    +0.000 C 
ATOM     13  C   UNL     1       0.938   3.556  20.315  0.00  0.00    +0.000 C 
ATOM     14  O   UNL     1       1.527   2.311  20.713  0.00  0.00    +0.000 OA
ATOM     15  C   UNL     1       2.960   2.352  20.617  0.00  0.00    +0.000 C 
ATOM     16  C   UNL     1       3.470   2.909  19.270  0.00  0.00    +0.000 C 
ENDBRANCH   1  11
BRANCH   1  17
ATOM     17  C   UNL     1       4.856   5.695  19.214  0.00  0.00    +0.000 C 
BRANCH  17  20
ATOM     18  O   UNL     1       7.091   4.370  18.098  0.00  0.00    +0.000 OA
ATOM     19  C   UNL     1       6.260   4.860  17.345  0.00  0.00    +0.000 C 
ATOM     20  N   UNL     1       5.180   5.590  17.794  0.00  0.00    +0.000 N 
ATOM     21  H   UNL     1       4.401   5.711  17.162  0.00  0.00    +0.000 HD
BRANCH  19  22
ATOM     22  C   UNL     1       6.342   4.629  15.867  0.00  0.00    +0.000 A 
ATOM     23  C   UNL     1       7.450   5.147  15.174  0.00  0.00    +0.000 A 
ATOM     24  C   UNL     1       7.588   4.943  13.797  0.00  0.00    +0.000 A 
ATOM     25  C   UNL     1       6.612   4.230  13.115  0.00  0.00    +0.000 A 
ATOM     26  F   UNL     1       6.741   4.029  11.797  0.00  0.00    +0.000 F 
ATOM     27  C   UNL     1       5.498   3.721  13.776  0.00  0.00    +0.000 A 
ATOM     28  C   UNL     1       5.358   3.926  15.154  0.00  0.00    +0.000 A 
ENDBRANCH  19  22
ENDBRANCH  17  20
ENDBRANCH   1  17
TORSDOF 5
ENDMDL
MODEL 4
REMARK VINA RESULT:      -8.2      1.196      1.732
REMARK  Name = 
REMARK  5 active torsions:
REMARK  status: ('A' for Active; 'I' for Inactive)
REMARK    1  A    between atoms: C_2  and  C_21
REMARK    2  A    between atoms: N_3  and  C_4
REMARK    3  A    between atoms: C_4  and  C_5
REMARK    4  A    between atoms: C_5  and  C_6
REMARK    5  A    between atoms: C_5  and  N_15
REMARK                            x       y       z     vdW  Elec       q    Type
REMARK                         _______ _______ _______ _____ _____    ______ ____
ROOT
ATOM      1  C   UNL     1       3.223   5.581  19.683  0.00  0.00    +0.000 C 
ENDROOT
BRANCH   1   2
ATOM      2  C   UNL     1       2.573   6.990  19.396  0.00  0.00    +0.000 A 
ATOM      3  C   UNL     1       2.675   7.631  18.129  0.00  0.00    +0.000 A 
ATOM      4  C   UNL     1       1.973   8.807  17.795  0.00  0.00    +0.000 A 
ATOM      5  C   UNL     1       1.144   9.345  18.742  0.00  0.00    +0.000 A 
ATOM      6  C   UNL     1       1.134   8.840  20.007  0.00  0.00    +0.000 A 
ATOM      7  C   UNL     1       1.904   7.750  20.366  0.00  0.00    +0.000 A 
ATOM      8  O   UNL     1       0.294   9.511  20.839  0.00  0.00    +0.000 OA
ATOM      9  C   UNL     1      -0.354  10.382  19.892  0.00  0.00    +0.000 C 
ATOM     10  O   UNL     1       0.307  10.406  18.605  0.00  0.00    +0.000 OA
ENDBRANCH   1   2
BRANCH   1  11
ATOM     11  N   UNL     1       2.620   4.379  18.933  0.00  0.00    +0.000 NA
ATOM     12  C   UNL     1       1.239   3.959  19.279  0.00  0.00    +0.000 C 
ATOM     13  C   UNL     1       1.099   3.582  20.756  0.00  0.00    +0.000 C 
ATOM     14  O   UNL     1       1.832   2.371  20.988  0.00  0.00    +0.000 OA
ATOM     15  C   UNL     1       3.205   2.501  20.583  0.00  0.00    +0.000 C 
ATOM     16  C   UNL     1       3.375   3.103  19.171  0.00  0.00    +0.000 C 
ENDBRANCH   1  11
BRANCH   1  17
ATOM     17  C   UNL     1       4.767   5.620  19.268  0.00  0.00    +0.000 C 
BRANCH  17  20
ATOM     18  O   UNL     1       7.106   4.426  18.215  0.00  0.00    +0.000 OA
ATOM     19  C   UNL     1       6.272   4.874  17.439  0.00  0.00    +0.000 C 
ATOM     20  N   UNL     1       5.140   5.542  17.857  0.00  0.00    +0.000 N 
ATOM     21  H   UNL     1       4.375   5.622  17.203  0.00  0.00    +0.000 HD
BRANCH  19  22
ATOM     22  C   UNL     1       6.412   4.657  15.964  0.00  0.00    +0.000 A 
ATOM     23  C   UNL     1       5.417   3.914  15.304  0.00  0.00    +0.000 A 
ATOM     24  C   UNL     1       5.487   3.699  13.924  0.00  0.00    +0.000 A 
ATOM     25  C   UNL     1       6.555   4.220  13.208  0.00  0.00    +0.000 A 
ATOM     26  F   UNL     1       6.624   4.018  11.885  0.00  0.00    +0.000 F 
ATOM     27  C   UNL     1       7.560   4.944  13.841  0.00  0.00    +0.000 A 
ATOM     28  C   UNL     1       7.494   5.159  15.222  0.00  0.00    +0.000 A 
ENDBRANCH  19  22
ENDBRANCH  17  20
ENDBRANCH   1  17
TORSDOF 5
ENDMDL
MODEL 5
REMARK VINA RESULT:      -8.1      3.866      8.022
REMARK  Name = 
REMARK  5 active torsions:
REMARK  status: ('A' for Active; 'I' for Inactive)
REMARK    1  A    between atoms: C_2  and  C_21
REMARK    2  A    between atoms: N_3  and  C_4
REMARK    3  A    between atoms: C_4  and  C_5
REMARK    4  A    between atoms: C_5  and  C_6
REMARK    5  A    between atoms: C_5  and  N_15
REMARK                            x       y       z     vdW  Elec       q    Type
REMARK                         _______ _______ _______ _____ _____    ______ ____
ROOT
ATOM      1  C   UNL     1       3.942   6.393  18.086  0.00  0.00    +0.000 C 
ENDROOT
BRANCH   1   2
ATOM      2  C   UNL     1       2.967   5.357  18.767  0.00  0.00    +0.000 A 
ATOM      3  C   UNL     1       2.022   4.596  18.020  0.00  0.00    +0.000 A 
ATOM      4  C   UNL     1       1.254   3.552  18.574  0.00  0.00    +0.000 A 
ATOM      5  C   UNL     1       1.442   3.255  19.897  0.00  0.00    +0.000 A 
ATOM      6  C   UNL     1       2.229   4.054  20.671  0.00  0.00    +0.000 A 
ATOM      7  C   UNL     1       2.901   5.144  20.152  0.00  0.00    +0.000 A 
ATOM      8  O   UNL     1       2.278   3.652  21.969  0.00  0.00    +0.000 OA
ATOM      9  C   UNL     1       1.570   2.401  21.871  0.00  0.00    +0.000 C 
ATOM     10  O   UNL     1       0.888   2.237  20.606  0.00  0.00    +0.000 OA
ENDBRANCH   1   2
BRANCH   1  11
ATOM     11  N   UNL     1       4.556   5.977  16.736  0.00  0.00    +0.000 NA
ATOM     12  C   UNL     1       5.244   4.664  16.656  0.00  0.00    +0.000 C 
ATOM     13  C   UNL     1       6.411   4.558  17.642  0.00  0.00    +0.000 C 
ATOM     14  O   UNL     1       7.449   5.451  17.216  0.00  0.00    +0.000 OA
ATOM     15  C   UNL     1       6.964   6.798  17.084  0.00  0.00    +0.000 C 
ATOM     16  C   UNL     1       5.649   6.901  16.281  0.00  0.00    +0.000 C 
ENDBRANCH   1  11
BRANCH   1  17
ATOM     17  C   UNL     1       3.148   7.752  17.799  0.00  0.00    +0.000 C 
BRANCH  17  20
ATOM     18  O   UNL     1       0.816   9.342  17.619  0.00  0.00    +0.000 OA
ATOM     19  C   UNL     1       1.315   9.150  18.720  0.00  0.00    +0.000 C 
ATOM     20  N   UNL     1       2.493   8.455  18.899  0.00  0.00    +0.000 N 
ATOM     21  H   UNL     1       2.687   8.092  19.821  0.00  0.00    +0.000 HD
BRANCH  19  22
ATOM     22  C   UNL     1       0.620   9.616  19.963  0.00  0.00    +0.000 A 
ATOM     23  C   UNL     1       0.690   8.803  21.107  0.00  0.00    +0.000 A 
ATOM     24  C   UNL     1       0.078   9.200  22.301  0.00  0.00    +0.000 A 
ATOM     25  C   UNL     1      -0.611  10.403  22.344  0.00  0.00    +0.000 A 
ATOM     26  F   UNL     1      -1.197  10.789  23.486  0.00  0.00    +0.000 F 
ATOM     27  C   UNL     1      -0.708  11.217  21.219  0.00  0.00    +0.000 A 
ATOM     28  C   UNL     1      -0.098  10.821  20.024  0.00  0.00    +0.000 A 
ENDBRANCH  19  22
ENDBRANCH  17  20
ENDBRANCH   1  17
TORSDOF 5
ENDMDL
MODEL 6
REMARK VINA RESULT:      -8.1      3.314      7.183
REMARK  Name = 
REMARK  5 active torsions:
REMARK  status: ('A' for Active; 'I' for Inactive)
REMARK    1  A    between atoms: C_2  and  C_21
REMARK    2  A    between atoms: N_3  and  C_4
REMARK    3  A    between atoms: C_4  and  C_5
REMARK    4  A    between atoms: C_5  and  C_6
REMARK    5  A    between atoms: C_5  and  N_15
REMARK                            x       y       z     vdW  Elec       q    Type
REMARK                         _______ _______ _______ _____ _____    ______ ____
ROOT
ATOM      1  C   UNL     1       3.481   4.638  18.483  0.00  0.00    +0.000 C 
ENDROOT
BRANCH   1   2
ATOM      2  C   UNL     1       4.584   4.934  17.395  0.00  0.00    +0.000 A 
ATOM      3  C   UNL     1       5.790   5.625  17.702  0.00  0.00    +0.000 A 
ATOM      4  C   UNL     1       6.860   5.762  16.793  0.00  0.00    +0.000 A 
ATOM      5  C   UNL     1       6.724   5.188  15.558  0.00  0.00    +0.000 A 
ATOM      6  C   UNL     1       5.531   4.646  15.184  0.00  0.00    +0.000 A 
ATOM      7  C   UNL     1       4.445   4.606  16.038  0.00  0.00    +0.000 A 
ATOM      8  O   UNL     1       5.545   4.159  13.915  0.00  0.00    +0.000 OA
ATOM      9  C   UNL     1       6.945   4.299  13.608  0.00  0.00    +0.000 C 
ATOM     10  O   UNL     1       7.655   5.112  14.572  0.00  0.00    +0.000 OA
ENDBRANCH   1   2
BRANCH   1  11
ATOM     11  N   UNL     1       3.488   3.228  19.105  0.00  0.00    +0.000 NA
ATOM     12  C   UNL     1       2.643   2.182  18.475  0.00  0.00    +0.000 C 
ATOM     13  C   UNL     1       1.162   2.568  18.451  0.00  0.00    +0.000 C 
ATOM     14  O   UNL     1       0.668   2.563  19.797  0.00  0.00    +0.000 OA
ATOM     15  C   UNL     1       1.444   3.424  20.646  0.00  0.00    +0.000 C 
ATOM     16  C   UNL     1       2.968   3.207  20.513  0.00  0.00    +0.000 C 
ENDBRANCH   1  11
BRANCH   1  17
ATOM     17  C   UNL     1       3.664   5.650  19.708  0.00  0.00    +0.000 C 
BRANCH  17  20
ATOM     18  O   UNL     1       3.324   7.858  17.974  0.00  0.00    +0.000 OA
ATOM     19  C   UNL     1       2.583   7.750  18.942  0.00  0.00    +0.000 C 
ATOM     20  N   UNL     1       2.722   6.752  19.884  0.00  0.00    +0.000 N 
ATOM     21  H   UNL     1       1.927   6.552  20.475  0.00  0.00    +0.000 HD
BRANCH  19  22
ATOM     22  C   UNL     1       1.422   8.679  19.120  0.00  0.00    +0.000 A 
ATOM     23  C   UNL     1       0.885   8.831  20.410  0.00  0.00    +0.000 A 
ATOM     24  C   UNL     1      -0.186   9.702  20.637  0.00  0.00    +0.000 A 
ATOM     25  C   UNL     1      -0.723  10.411  19.572  0.00  0.00    +0.000 A 
ATOM     26  F   UNL     1      -1.747  11.248  19.786  0.00  0.00    +0.000 F 
ATOM     27  C   UNL     1      -0.219  10.264  18.283  0.00  0.00    +0.000 A 
ATOM     28  C   UNL     1       0.851   9.392  18.054  0.00  0.00    +0.000 A 
ENDBRANCH  19  22
ENDBRANCH  17  20
ENDBRANCH   1  17
TORSDOF 5
ENDMDL
MODEL 7
REMARK VINA RESULT:      -8.1      3.446      7.446
REMARK  Name = 
REMARK  5 active torsions:
REMARK  status: ('A' for Active; 'I' for Inactive)
REMARK    1  A    between atoms: C_2  and  C_21
REMARK    2  A    between atoms: N_3  and  C_4
REMARK    3  A    between atoms: C_4  and  C_5
REMARK    4  A    between atoms: C_5  and  C_6
REMARK    5  A    between atoms: C_5  and  N_15
REMARK                            x       y       z     vdW  Elec       q    Type
REMARK                         _______ _______ _______ _____ _____    ______ ____
ROOT
ATOM      1  C   UNL     1       3.751   4.463  18.546  0.00  0.00    +0.000 C 
ENDROOT
BRANCH   1   2
ATOM      2  C   UNL     1       4.780   4.860  17.418  0.00  0.00    +0.000 A 
ATOM      3  C   UNL     1       5.914   5.681  17.677  0.00  0.00    +0.000 A 
ATOM      4  C   UNL     1       6.933   5.919  16.731  0.00  0.00    +0.000 A 
ATOM      5  C   UNL     1       6.821   5.316  15.508  0.00  0.00    +0.000 A 
ATOM      6  C   UNL     1       5.682   4.643  15.180  0.00  0.00    +0.000 A 
ATOM      7  C   UNL     1       4.635   4.499  16.070  0.00  0.00    +0.000 A 
ATOM      8  O   UNL     1       5.708   4.142  13.917  0.00  0.00    +0.000 OA
ATOM      9  C   UNL     1       7.075   4.428  13.562  0.00  0.00    +0.000 C 
ATOM     10  O   UNL     1       7.723   5.326  14.493  0.00  0.00    +0.000 OA
ENDBRANCH   1   2
BRANCH   1  11
ATOM     11  N   UNL     1       3.947   3.082  19.200  0.00  0.00    +0.000 NA
ATOM     12  C   UNL     1       3.575   1.877  18.416  0.00  0.00    +0.000 C 
ATOM     13  C   UNL     1       2.100   1.886  18.002  0.00  0.00    +0.000 C 
ATOM     14  O   UNL     1       1.297   1.721  19.178  0.00  0.00    +0.000 OA
ATOM     15  C   UNL     1       1.594   2.723  20.164  0.00  0.00    +0.000 C 
ATOM     16  C   UNL     1       3.106   2.893  20.430  0.00  0.00    +0.000 C 
ENDBRANCH   1  11
BRANCH   1  17
ATOM     17  C   UNL     1       3.843   5.523  19.740  0.00  0.00    +0.000 C 
BRANCH  17  20
ATOM     18  O   UNL     1       1.392   6.039  21.053  0.00  0.00    +0.000 OA
ATOM     19  C   UNL     1       1.916   6.938  20.408  0.00  0.00    +0.000 C 
ATOM     20  N   UNL     1       3.068   6.759  19.672  0.00  0.00    +0.000 N 
ATOM     21  H   UNL     1       3.591   7.584  19.413  0.00  0.00    +0.000 HD
BRANCH  19  22
ATOM     22  C   UNL     1       1.353   8.325  20.441  0.00  0.00    +0.000 A 
ATOM     23  C   UNL     1       0.839   8.805  21.658  0.00  0.00    +0.000 A 
ATOM     24  C   UNL     1       0.321  10.101  21.750  0.00  0.00    +0.000 A 
ATOM     25  C   UNL     1       0.309  10.910  20.623  0.00  0.00    +0.000 A 
ATOM     26  F   UNL     1      -0.185  12.154  20.707  0.00  0.00    +0.000 F 
ATOM     27  C   UNL     1       0.796  10.452  19.403  0.00  0.00    +0.000 A 
ATOM     28  C   UNL     1       1.314   9.155  19.308  0.00  0.00    +0.000 A 
ENDBRANCH  19  22
ENDBRANCH  17  20
ENDBRANCH   1  17
TORSDOF 5
ENDMDL
MODEL 8
REMARK VINA RESULT:      -7.9      1.181      1.240
REMARK  Name = 
REMARK  5 active torsions:
REMARK  status: ('A' for Active; 'I' for Inactive)
REMARK    1  A    between atoms: C_2  and  C_21
REMARK    2  A    between atoms: N_3  and  C_4
REMARK    3  A    between atoms: C_4  and  C_5
REMARK    4  A    between atoms: C_5  and  C_6
REMARK    5  A    between atoms: C_5  and  N_15
REMARK                            x       y       z     vdW  Elec       q    Type
REMARK                         _______ _______ _______ _____ _____    ______ ____
ROOT
ATOM      1  C   UNL     1       3.546   5.256  19.545  0.00  0.00    +0.000 C 
ENDROOT
BRANCH   1   2
ATOM      2  C   UNL     1       2.669   6.568  19.507  0.00  0.00    +0.000 A 
ATOM      3  C   UNL     1       1.914   7.011  20.629  0.00  0.00    +0.000 A 
ATOM      4  C   UNL     1       1.254   8.256  20.678  0.00  0.00    +0.000 A 
ATOM      5  C   UNL     1       1.361   9.077  19.588  0.00  0.00    +0.000 A 
ATOM      6  C   UNL     1       1.953   8.625  18.447  0.00  0.00    +0.000 A 
ATOM      7  C   UNL     1       2.509   7.362  18.362  0.00  0.00    +0.000 A 
ATOM      8  O   UNL     1       1.939   9.542  17.444  0.00  0.00    +0.000 OA
ATOM      9  C   UNL     1       1.428  10.685  18.156  0.00  0.00    +0.000 C 
ATOM     10  O   UNL     1       0.894  10.346  19.457  0.00  0.00    +0.000 OA
ENDBRANCH   1   2
BRANCH   1  11
ATOM     11  N   UNL     1       2.967   4.020  18.831  0.00  0.00    +0.000 NA
ATOM     12  C   UNL     1       1.493   3.841  18.828  0.00  0.00    +0.000 C 
ATOM     13  C   UNL     1       0.914   3.757  20.243  0.00  0.00    +0.000 C 
ATOM     14  O   UNL     1       1.350   2.529  20.841  0.00  0.00    +0.000 OA
ATOM     15  C   UNL     1       2.783   2.415  20.827  0.00  0.00    +0.000 C 
ATOM     16  C   UNL     1       3.411   2.726  19.451  0.00  0.00    +0.000 C 
ENDBRANCH   1  11
BRANCH   1  17
ATOM     17  C   UNL     1       4.952   5.543  18.838  0.00  0.00    +0.000 C 
BRANCH  17  20
ATOM     18  O   UNL     1       5.177   7.025  16.440  0.00  0.00    +0.000 OA
ATOM     19  C   UNL     1       5.379   5.818  16.408  0.00  0.00    +0.000 C 
ATOM     20  N   UNL     1       5.218   5.002  17.508  0.00  0.00    +0.000 N 
ATOM     21  H   UNL     1       5.670   4.098  17.491  0.00  0.00    +0.000 HD
BRANCH  19  22
ATOM     22  C   UNL     1       5.887   5.164  15.160  0.00  0.00    +0.000 A 
ATOM     23  C   UNL     1       5.030   4.286  14.474  0.00  0.00    +0.000 A 
ATOM     24  C   UNL     1       5.445   3.665  13.292  0.00  0.00    +0.000 A 
ATOM     25  C   UNL     1       6.719   3.915  12.803  0.00  0.00    +0.000 A 
ATOM     26  F   UNL     1       7.120   3.324  11.669  0.00  0.00    +0.000 F 
ATOM     27  C   UNL     1       7.592   4.767  13.474  0.00  0.00    +0.000 A 
ATOM     28  C   UNL     1       7.179   5.389  14.658  0.00  0.00    +0.000 A 
ENDBRANCH  19  22
ENDBRANCH  17  20
ENDBRANCH   1  17
TORSDOF 5
ENDMDL
MODEL 9
REMARK VINA RESULT:      -7.8      3.303      7.434
REMARK  Name = 
REMARK  5 active torsions:
REMARK  status: ('A' for Active; 'I' for Inactive)
REMARK    1  A    between atoms: C_2  and  C_21
REMARK    2  A    between atoms: N_3  and  C_4
REMARK    3  A    between atoms: C_4  and  C_5
REMARK    4  A    between atoms: C_5  and  C_6
REMARK    5  A    between atoms: C_5  and  N_15
REMARK                            x       y       z     vdW  Elec       q    Type
REMARK                         _______ _______ _______ _____ _____    ______ ____
ROOT
ATOM      1  C   UNL     1       3.083   5.069  19.099  0.00  0.00    +0.000 C 
ENDROOT
BRANCH   1   2
ATOM      2  C   UNL     1       4.410   5.137  18.247  0.00  0.00    +0.000 A 
ATOM      3  C   UNL     1       5.701   5.054  18.842  0.00  0.00    +0.000 A 
ATOM      4  C   UNL     1       6.893   4.949  18.097  0.00  0.00    +0.000 A 
ATOM      5  C   UNL     1       6.792   4.916  16.732  0.00  0.00    +0.000 A 
ATOM      6  C   UNL     1       5.589   5.137  16.131  0.00  0.00    +0.000 A 
ATOM      7  C   UNL     1       4.434   5.346  16.860  0.00  0.00    +0.000 A 
ATOM      8  O   UNL     1       5.663   5.116  14.774  0.00  0.00    +0.000 OA
ATOM      9  C   UNL     1       7.024   4.675  14.604  0.00  0.00    +0.000 C 
ATOM     10  O   UNL     1       7.789   4.723  15.831  0.00  0.00    +0.000 OA
ENDBRANCH   1   2
BRANCH   1  11
ATOM     11  N   UNL     1       2.952   3.886  20.076  0.00  0.00    +0.000 NA
ATOM     12  C   UNL     1       3.280   2.526  19.578  0.00  0.00    +0.000 C 
ATOM     13  C   UNL     1       2.411   2.119  18.385  0.00  0.00    +0.000 C 
ATOM     14  O   UNL     1       1.065   1.938  18.844  0.00  0.00    +0.000 OA
ATOM     15  C   UNL     1       0.570   3.114  19.505  0.00  0.00    +0.000 C 
ATOM     16  C   UNL     1       1.546   3.680  20.561  0.00  0.00    +0.000 C 
ENDBRANCH   1  11
BRANCH   1  17
ATOM     17  C   UNL     1       2.967   6.387  19.998  0.00  0.00    +0.000 C 
BRANCH  17  20
ATOM     18  O   UNL     1       1.343   8.017  21.643  0.00  0.00    +0.000 OA
ATOM     19  C   UNL     1       1.419   8.275  20.449  0.00  0.00    +0.000 C 
ATOM     20  N   UNL     1       2.122   7.493  19.556  0.00  0.00    +0.000 N 
ATOM     21  H   UNL     1       2.380   7.909  18.672  0.00  0.00    +0.000 HD
BRANCH  19  22
ATOM     22  C   UNL     1       0.792   9.518  19.897  0.00  0.00    +0.000 A 
ATOM     23  C   UNL     1       1.455  10.191  18.856  0.00  0.00    +0.000 A 
ATOM     24  C   UNL     1       0.903  11.345  18.289  0.00  0.00    +0.000 A 
ATOM     25  C   UNL     1      -0.305  11.828  18.771  0.00  0.00    +0.000 A 
ATOM     26  F   UNL     1      -0.838  12.932  18.230  0.00  0.00    +0.000 F 
ATOM     27  C   UNL     1      -0.971  11.189  19.812  0.00  0.00    +0.000 A 
ATOM     28  C   UNL     1      -0.421  10.035  20.382  0.00  0.00    +0.000 A 
ENDBRANCH  19  22
ENDBRANCH  17  20
ENDBRANCH   1  17
TORSDOF 5
ENDMDL
