MODEL 1
REMARK VINA RESULT:      -8.2      0.000      0.000
REMARK  Name = 
REMARK  15 active torsions:
REMARK  status: ('A' for Active; 'I' for Inactive)
REMARK    1  A    between atoms: C_1  and  C_2
REMARK    2  A    between atoms: C_2  and  C_3
REMARK    3  A    between atoms: C_4  and  C_5
REMARK    4  A    between atoms: C_5  and  C_6
REMARK    5  A    between atoms: C_6  and  C_7
REMARK    6  A    between atoms: C_7  and  C_8
REMARK    7  A    between atoms: C_9  and  C_10
REMARK    8  A    between atoms: C_10  and  C_11
REMARK    9  A    between atoms: C_11  and  C_12
REMARK   10  A    between atoms: C_12  and  C_13
REMARK   11  A    between atoms: C_17  and  O_18
REMARK   12  A    between atoms: C_20  and  O_21
REMARK   13  A    between atoms: C_22  and  C_23
REMARK   14  A    between atoms: C_23  and  C_25
REMARK   15  A    between atoms: C_32  and  O_33
REMARK                            x       y       z     vdW  Elec       q    Type
REMARK                         _______ _______ _______ _____ _____    ______ ____
ROOT
ATOM      1  C   UNL     1       2.282   7.024  18.770  0.00  0.00    +0.000 C 
ATOM      2  C   UNL     1       1.433   6.447  17.616  0.00  0.00    +0.000 C 
ATOM      3  O   UNL     1       3.460   6.206  18.940  0.00  0.00    +0.000 OA
ATOM      4  C   UNL     1       3.320   4.974  19.541  0.00  0.00    +0.000 A 
ATOM      5  C   UNL     1       2.150   4.640  20.263  0.00  0.00    +0.000 A 
ATOM      6  C   UNL     1       2.021   3.342  20.766  0.00  0.00    +0.000 A 
ATOM      7  C   UNL     1       3.053   2.422  20.652  0.00  0.00    +0.000 A 
ATOM      8  C   UNL     1       4.243   2.785  20.024  0.00  0.00    +0.000 A 
ATOM      9  C   UNL     1       4.391   4.049  19.427  0.00  0.00    +0.000 A 
ATOM     10  C   UNL     1       1.062   5.660  20.494  0.00  0.00    +0.000 C 
ATOM     11  C   UNL     1       1.498   7.062  20.096  0.00  0.00    +0.000 C 
ENDROOT
BRANCH   6  12
ATOM     12  O   UNL     1       0.901   2.894  21.406  0.00  0.00    +0.000 OA
ATOM     13  H   UNL     1       0.878   3.222  22.319  0.00  0.00    +0.000 HD
ENDBRANCH   6  12
BRANCH   8  14
ATOM     14  O   UNL     1       5.271   1.883  20.040  0.00  0.00    +0.000 OA
ATOM     15  H   UNL     1       5.605   1.775  20.947  0.00  0.00    +0.000 HD
ENDBRANCH   8  14
BRANCH   9  16
ATOM     16  C   UNL     1       5.679   4.456  18.772  0.00  0.00    +0.000 C 
ATOM     17  O   UNL     1       6.657   4.718  19.472  0.00  0.00    +0.000 OA
BRANCH  16  18
ATOM     18  C   UNL     1       5.869   4.503  17.290  0.00  0.00    +0.000 A 
ATOM     19  C   UNL     1       7.126   4.894  16.801  0.00  0.00    +0.000 A 
ATOM     20  C   UNL     1       7.389   4.901  15.428  0.00  0.00    +0.000 A 
ATOM     21  C   UNL     1       6.392   4.522  14.531  0.00  0.00    +0.000 A 
ATOM     22  C   UNL     1       5.129   4.167  15.003  0.00  0.00    +0.000 A 
ATOM     23  C   UNL     1       4.858   4.178  16.376  0.00  0.00    +0.000 A 
ENDBRANCH  16  18
ENDBRANCH   9  16
BRANCH  11  24
ATOM     24  O   UNL     1       2.293   7.610  21.160  0.00  0.00    +0.000 OA
ATOM     25  H   UNL     1       3.178   7.199  21.097  0.00  0.00    +0.000 HD
ENDBRANCH  11  24
BRANCH   1  26
ATOM     26  C   UNL     1       2.747   8.473  18.422  0.00  0.00    +0.000 C 
BRANCH  26  27
ATOM     27  C   UNL     1       1.655   9.298  17.741  0.00  0.00    +0.000 C 
BRANCH  27  30
ATOM     28  C   UNL     1      -0.126  10.834  18.589  0.00  0.00    +0.000 C 
ATOM     29  C   UNL     1      -1.148   9.982  17.876  0.00  0.00    +0.000 C 
ATOM     30  C   UNL     1       1.186  10.514  18.502  0.00  0.00    +0.000 C 
BRANCH  28  31
ATOM     31  C   UNL     1      -0.560  12.054  19.388  0.00  0.00    +0.000 C 
BRANCH  31  32
ATOM     32  C   UNL     1       0.199  12.293  20.698  0.00  0.00    +0.000 C 
BRANCH  32  36
ATOM     33  C   UNL     1      -0.287   9.392  23.249  0.00  0.00    +0.000 C 
ATOM     34  C   UNL     1      -0.483  10.700  22.540  0.00  0.00    +0.000 C 
ATOM     35  C   UNL     1      -1.626  11.569  22.992  0.00  0.00    +0.000 C 
ATOM     36  C   UNL     1       0.350  11.060  21.543  0.00  0.00    +0.000 C 
ENDBRANCH  32  36
ENDBRANCH  31  32
ENDBRANCH  28  31
ENDBRANCH  27  30
ENDBRANCH  26  27
ENDBRANCH   1  26
TORSDOF 11
ENDMDL
MODEL 2
REMARK VINA RESULT:      -8.0      1.167      2.300
REMARK  Name = 
REMARK  15 active torsions:
REMARK  status: ('A' for Active; 'I' for Inactive)
REMARK    1  A    between atoms: C_1  and  C_2
REMARK    2  A    between atoms: C_2  and  C_3
REMARK    3  A    between atoms: C_4  and  C_5
REMARK    4  A    between atoms: C_5  and  C_6
REMARK    5  A    between atoms: C_6  and  C_7
REMARK    6  A    between atoms: C_7  and  C_8
REMARK    7  A    between atoms: C_9  and  C_10
REMARK    8  A    between atoms: C_10  and  C_11
REMARK    9  A    between atoms: C_11  and  C_12
REMARK   10  A    between atoms: C_12  and  C_13
REMARK   11  A    between atoms: C_17  and  O_18
REMARK   12  A    between atoms: C_20  and  O_21
REMARK   13  A    between atoms: C_22  and  C_23
REMARK   14  A    between atoms: C_23  and  C_25
REMARK   15  A    between atoms: C_32  and  O_33
REMARK                            x       y       z     vdW  Elec       q    Type
REMARK                         _______ _______ _______ _____ _____    ______ ____
ROOT
ATOM      1  C   UNL     1       2.270   6.998  18.771  0.00  0.00    +0.000 C 
ATOM      2  C   UNL     1       1.424   6.424  17.612  0.00  0.00    +0.000 C 
ATOM      3  O   UNL     1       3.453   6.184  18.935  0.00  0.00    +0.000 OA
ATOM      4  C   UNL     1       3.319   4.948  19.527  0.00  0.00    +0.000 A 
ATOM      5  C   UNL     1       2.151   4.602  20.246  0.00  0.00    +0.000 A 
ATOM      6  C   UNL     1       2.029   3.300  20.739  0.00  0.00    +0.000 A 
ATOM      7  C   UNL     1       3.066   2.386  20.618  0.00  0.00    +0.000 A 
ATOM      8  C   UNL     1       4.254   2.760  19.994  0.00  0.00    +0.000 A 
ATOM      9  C   UNL     1       4.394   4.029  19.406  0.00  0.00    +0.000 A 
ATOM     10  C   UNL     1       1.058   5.614  20.485  0.00  0.00    +0.000 C 
ATOM     11  C   UNL     1       1.486   7.022  20.097  0.00  0.00    +0.000 C 
ENDROOT
BRANCH   6  12
ATOM     12  O   UNL     1       0.911   2.841  21.376  0.00  0.00    +0.000 OA
ATOM     13  H   UNL     1       1.049   2.829  22.337  0.00  0.00    +0.000 HD
ENDBRANCH   6  12
BRANCH   8  14
ATOM     14  O   UNL     1       5.286   1.863  20.004  0.00  0.00    +0.000 OA
ATOM     15  H   UNL     1       6.135   2.333  20.060  0.00  0.00    +0.000 HD
ENDBRANCH   8  14
BRANCH   9  16
ATOM     16  C   UNL     1       5.681   4.448  18.754  0.00  0.00    +0.000 C 
ATOM     17  O   UNL     1       6.656   4.714  19.457  0.00  0.00    +0.000 OA
BRANCH  16  18
ATOM     18  C   UNL     1       5.872   4.501  17.273  0.00  0.00    +0.000 A 
ATOM     19  C   UNL     1       7.130   4.894  16.787  0.00  0.00    +0.000 A 
ATOM     20  C   UNL     1       7.394   4.907  15.414  0.00  0.00    +0.000 A 
ATOM     21  C   UNL     1       6.399   4.534  14.514  0.00  0.00    +0.000 A 
ATOM     22  C   UNL     1       5.135   4.177  14.983  0.00  0.00    +0.000 A 
ATOM     23  C   UNL     1       4.862   4.181  16.356  0.00  0.00    +0.000 A 
ENDBRANCH  16  18
ENDBRANCH   9  16
BRANCH  11  24
ATOM     24  O   UNL     1       2.277   7.566  21.165  0.00  0.00    +0.000 OA
ATOM     25  H   UNL     1       1.736   8.254  21.601  0.00  0.00    +0.000 HD
ENDBRANCH  11  24
BRANCH   1  26
ATOM     26  C   UNL     1       2.727   8.451  18.433  0.00  0.00    +0.000 C 
BRANCH  26  27
ATOM     27  C   UNL     1       1.628   9.279  17.768  0.00  0.00    +0.000 C 
BRANCH  27  30
ATOM     28  C   UNL     1       0.496  11.123  19.021  0.00  0.00    +0.000 C 
ATOM     29  C   UNL     1       1.535  12.077  18.483  0.00  0.00    +0.000 C 
ATOM     30  C   UNL     1       0.562   9.811  18.694  0.00  0.00    +0.000 C 
BRANCH  28  31
ATOM     31  C   UNL     1      -0.610  11.625  19.938  0.00  0.00    +0.000 C 
BRANCH  31  32
ATOM     32  C   UNL     1      -1.967  11.868  19.267  0.00  0.00    +0.000 C 
BRANCH  32  36
ATOM     33  C   UNL     1      -2.584  10.731  15.595  0.00  0.00    +0.000 C 
ATOM     34  C   UNL     1      -2.602  10.738  17.096  0.00  0.00    +0.000 C 
ATOM     35  C   UNL     1      -3.369   9.642  17.784  0.00  0.00    +0.000 C 
ATOM     36  C   UNL     1      -1.944  11.699  17.774  0.00  0.00    +0.000 C 
ENDBRANCH  32  36
ENDBRANCH  31  32
ENDBRANCH  28  31
ENDBRANCH  27  30
ENDBRANCH  26  27
ENDBRANCH   1  26
TORSDOF 11
ENDMDL
MODEL 3
REMARK VINA RESULT:      -7.9      1.243      2.356
REMARK  Name = 
REMARK  15 active torsions:
REMARK  status: ('A' for Active; 'I' for Inactive)
REMARK    1  A    between atoms: C_1  and  C_2
REMARK    2  A    between atoms: C_2  and  C_3
REMARK    3  A    between atoms: C_4  and  C_5
REMARK    4  A    between atoms: C_5  and  C_6
REMARK    5  A    between atoms: C_6  and  C_7
REMARK    6  A    between atoms: C_7  and  C_8
REMARK    7  A    between atoms: C_9  and  C_10
REMARK    8  A    between atoms: C_10  and  C_11
REMARK    9  A    between atoms: C_11  and  C_12
REMARK   10  A    between atoms: C_12  and  C_13
REMARK   11  A    between atoms: C_17  and  O_18
REMARK   12  A    between atoms: C_20  and  O_21
REMARK   13  A    between atoms: C_22  and  C_23
REMARK   14  A    between atoms: C_23  and  C_25
REMARK   15  A    between atoms: C_32  and  O_33
REMARK                            x       y       z     vdW  Elec       q    Type
REMARK                         _______ _______ _______ _____ _____    ______ ____
ROOT
ATOM      1  C   UNL     1       2.307   7.056  18.840  0.00  0.00    +0.000 C 
ATOM      2  C   UNL     1       1.504   6.512  17.638  0.00  0.00    +0.000 C 
ATOM      3  O   UNL     1       3.481   6.236  19.029  0.00  0.00    +0.000 OA
ATOM      4  C   UNL     1       3.323   4.986  19.587  0.00  0.00    +0.000 A 
ATOM      5  C   UNL     1       2.128   4.627  20.254  0.00  0.00    +0.000 A 
ATOM      6  C   UNL     1       1.985   3.314  20.712  0.00  0.00    +0.000 A 
ATOM      7  C   UNL     1       3.024   2.401  20.609  0.00  0.00    +0.000 A 
ATOM      8  C   UNL     1       4.236   2.785  20.038  0.00  0.00    +0.000 A 
ATOM      9  C   UNL     1       4.400   4.068  19.486  0.00  0.00    +0.000 A 
ATOM     10  C   UNL     1       1.028   5.636  20.475  0.00  0.00    +0.000 C 
ATOM     11  C   UNL     1       1.473   7.051  20.137  0.00  0.00    +0.000 C 
ENDROOT
BRANCH   6  12
ATOM     12  O   UNL     1       0.843   2.844  21.295  0.00  0.00    +0.000 OA
ATOM     13  H   UNL     1       1.039   2.071  21.850  0.00  0.00    +0.000 HD
ENDBRANCH   6  12
BRANCH   8  14
ATOM     14  O   UNL     1       5.265   1.886  20.066  0.00  0.00    +0.000 OA
ATOM     15  H   UNL     1       6.108   2.340  19.895  0.00  0.00    +0.000 HD
ENDBRANCH   8  14
BRANCH   9  16
ATOM     16  C   UNL     1       5.711   4.498  18.893  0.00  0.00    +0.000 C 
ATOM     17  O   UNL     1       6.634   4.824  19.639  0.00  0.00    +0.000 OA
BRANCH  16  18
ATOM     18  C   UNL     1       5.989   4.495  17.424  0.00  0.00    +0.000 A 
ATOM     19  C   UNL     1       4.946   4.122  16.560  0.00  0.00    +0.000 A 
ATOM     20  C   UNL     1       5.120   4.155  15.173  0.00  0.00    +0.000 A 
ATOM     21  C   UNL     1       6.342   4.555  14.638  0.00  0.00    +0.000 A 
ATOM     22  C   UNL     1       7.397   4.892  15.487  0.00  0.00    +0.000 A 
ATOM     23  C   UNL     1       7.231   4.841  16.876  0.00  0.00    +0.000 A 
ENDBRANCH  16  18
ENDBRANCH   9  16
BRANCH  11  24
ATOM     24  O   UNL     1       2.225   7.568  21.246  0.00  0.00    +0.000 OA
ATOM     25  H   UNL     1       2.907   8.165  20.877  0.00  0.00    +0.000 HD
ENDBRANCH  11  24
BRANCH   1  26
ATOM     26  C   UNL     1       2.779   8.516  18.554  0.00  0.00    +0.000 C 
BRANCH  26  27
ATOM     27  C   UNL     1       1.801   9.293  17.673  0.00  0.00    +0.000 C 
BRANCH  27  30
ATOM     28  C   UNL     1       0.909  11.396  18.688  0.00  0.00    +0.000 C 
ATOM     29  C   UNL     1       2.192  12.087  18.294  0.00  0.00    +0.000 C 
ATOM     30  C   UNL     1       0.746  10.082  18.408  0.00  0.00    +0.000 C 
BRANCH  28  31
ATOM     31  C   UNL     1      -0.190  12.163  19.409  0.00  0.00    +0.000 C 
BRANCH  31  32
ATOM     32  C   UNL     1      -1.462  11.365  19.717  0.00  0.00    +0.000 C 
BRANCH  32  36
ATOM     33  C   UNL     1      -4.567  11.640  17.385  0.00  0.00    +0.000 C 
ATOM     34  C   UNL     1      -3.310  11.110  18.010  0.00  0.00    +0.000 C 
ATOM     35  C   UNL     1      -2.813   9.771  17.537  0.00  0.00    +0.000 C 
ATOM     36  C   UNL     1      -2.669  11.830  18.953  0.00  0.00    +0.000 C 
ENDBRANCH  32  36
ENDBRANCH  31  32
ENDBRANCH  28  31
ENDBRANCH  27  30
ENDBRANCH  26  27
ENDBRANCH   1  26
TORSDOF 11
ENDMDL
MODEL 4
REMARK VINA RESULT:      -7.8      4.840      7.959
REMARK  Name = 
REMARK  15 active torsions:
REMARK  status: ('A' for Active; 'I' for Inactive)
REMARK    1  A    between atoms: C_1  and  C_2
REMARK    2  A    between atoms: C_2  and  C_3
REMARK    3  A    between atoms: C_4  and  C_5
REMARK    4  A    between atoms: C_5  and  C_6
REMARK    5  A    between atoms: C_6  and  C_7
REMARK    6  A    between atoms: C_7  and  C_8
REMARK    7  A    between atoms: C_9  and  C_10
REMARK    8  A    between atoms: C_10  and  C_11
REMARK    9  A    between atoms: C_11  and  C_12
REMARK   10  A    between atoms: C_12  and  C_13
REMARK   11  A    between atoms: C_17  and  O_18
REMARK   12  A    between atoms: C_20  and  O_21
REMARK   13  A    between atoms: C_22  and  C_23
REMARK   14  A    between atoms: C_23  and  C_25
REMARK   15  A    between atoms: C_32  and  O_33
REMARK                            x       y       z     vdW  Elec       q    Type
REMARK                         _______ _______ _______ _____ _____    ______ ____
ROOT
ATOM      1  C   UNL     1       7.085   6.422  17.560  0.00  0.00    +0.000 C 
ATOM      2  C   UNL     1       7.402   6.059  19.028  0.00  0.00    +0.000 C 
ATOM      3  O   UNL     1       5.686   6.766  17.454  0.00  0.00    +0.000 OA
ATOM      4  C   UNL     1       4.757   5.749  17.496  0.00  0.00    +0.000 A 
ATOM      5  C   UNL     1       5.142   4.398  17.320  0.00  0.00    +0.000 A 
ATOM      6  C   UNL     1       4.174   3.402  17.472  0.00  0.00    +0.000 A 
ATOM      7  C   UNL     1       2.842   3.722  17.693  0.00  0.00    +0.000 A 
ATOM      8  C   UNL     1       2.450   5.057  17.770  0.00  0.00    +0.000 A 
ATOM      9  C   UNL     1       3.397   6.094  17.709  0.00  0.00    +0.000 A 
ATOM     10  C   UNL     1       6.563   4.034  16.969  0.00  0.00    +0.000 C 
ATOM     11  C   UNL     1       7.393   5.256  16.601  0.00  0.00    +0.000 C 
ENDROOT
BRANCH   6  12
ATOM     12  O   UNL     1       4.454   2.067  17.402  0.00  0.00    +0.000 OA
ATOM     13  H   UNL     1       3.960   1.580  18.081  0.00  0.00    +0.000 HD
ENDBRANCH   6  12
BRANCH   8  14
ATOM     14  O   UNL     1       1.112   5.321  17.871  0.00  0.00    +0.000 OA
ATOM     15  H   UNL     1       0.668   4.610  18.363  0.00  0.00    +0.000 HD
ENDBRANCH   8  14
BRANCH   9  16
ATOM     16  C   UNL     1       2.979   7.535  17.765  0.00  0.00    +0.000 C 
ATOM     17  O   UNL     1       3.273   8.286  16.835  0.00  0.00    +0.000 OA
BRANCH  16  18
ATOM     18  C   UNL     1       2.158   8.110  18.873  0.00  0.00    +0.000 A 
ATOM     19  C   UNL     1       1.419   9.274  18.607  0.00  0.00    +0.000 A 
ATOM     20  C   UNL     1       0.583   9.829  19.581  0.00  0.00    +0.000 A 
ATOM     21  C   UNL     1       0.484   9.227  20.833  0.00  0.00    +0.000 A 
ATOM     22  C   UNL     1       1.241   8.091  21.121  0.00  0.00    +0.000 A 
ATOM     23  C   UNL     1       2.093   7.544  20.154  0.00  0.00    +0.000 A 
ENDBRANCH  16  18
ENDBRANCH   9  16
BRANCH  11  24
ATOM     24  O   UNL     1       7.105   5.607  15.239  0.00  0.00    +0.000 OA
ATOM     25  H   UNL     1       6.161   5.861  15.202  0.00  0.00    +0.000 HD
ENDBRANCH  11  24
BRANCH   1  26
ATOM     26  C   UNL     1       7.922   7.664  17.122  0.00  0.00    +0.000 C 
BRANCH  26  27
ATOM     27  C   UNL     1       7.655   8.895  17.990  0.00  0.00    +0.000 C 
BRANCH  27  30
ATOM     28  C   UNL     1       9.259  10.643  18.777  0.00  0.00    +0.000 C 
ATOM     29  C   UNL     1       8.605  11.618  17.828  0.00  0.00    +0.000 C 
ATOM     30  C   UNL     1       8.818   9.365  18.829  0.00  0.00    +0.000 C 
BRANCH  28  31
ATOM     31  C   UNL     1      10.418  11.085  19.658  0.00  0.00    +0.000 C 
BRANCH  31  32
ATOM     32  C   UNL     1      11.626  11.673  18.919  0.00  0.00    +0.000 C 
BRANCH  32  36
ATOM     33  C   UNL     1      11.593  15.478  18.099  0.00  0.00    +0.000 C 
ATOM     34  C   UNL     1      11.609  13.990  17.907  0.00  0.00    +0.000 C 
ATOM     35  C   UNL     1      11.526  13.473  16.497  0.00  0.00    +0.000 C 
ATOM     36  C   UNL     1      11.699  13.172  18.975  0.00  0.00    +0.000 C 
ENDBRANCH  32  36
ENDBRANCH  31  32
ENDBRANCH  28  31
ENDBRANCH  27  30
ENDBRANCH  26  27
ENDBRANCH   1  26
TORSDOF 11
ENDMDL
MODEL 5
REMARK VINA RESULT:      -7.8      1.013      2.159
REMARK  Name = 
REMARK  15 active torsions:
REMARK  status: ('A' for Active; 'I' for Inactive)
REMARK    1  A    between atoms: C_1  and  C_2
REMARK    2  A    between atoms: C_2  and  C_3
REMARK    3  A    between atoms: C_4  and  C_5
REMARK    4  A    between atoms: C_5  and  C_6
REMARK    5  A    between atoms: C_6  and  C_7
REMARK    6  A    between atoms: C_7  and  C_8
REMARK    7  A    between atoms: C_9  and  C_10
REMARK    8  A    between atoms: C_10  and  C_11
REMARK    9  A    between atoms: C_11  and  C_12
REMARK   10  A    between atoms: C_12  and  C_13
REMARK   11  A    between atoms: C_17  and  O_18
REMARK   12  A    between atoms: C_20  and  O_21
REMARK   13  A    between atoms: C_22  and  C_23
REMARK   14  A    between atoms: C_23  and  C_25
REMARK   15  A    between atoms: C_32  and  O_33
REMARK                            x       y       z     vdW  Elec       q    Type
REMARK                         _______ _______ _______ _____ _____    ______ ____
ROOT
ATOM      1  C   UNL     1       2.300   6.969  18.711  0.00  0.00    +0.000 C 
ATOM      2  C   UNL     1       1.458   6.385  17.554  0.00  0.00    +0.000 C 
ATOM      3  O   UNL     1       3.478   6.153  18.891  0.00  0.00    +0.000 OA
ATOM      4  C   UNL     1       3.336   4.924  19.497  0.00  0.00    +0.000 A 
ATOM      5  C   UNL     1       2.162   4.592  20.214  0.00  0.00    +0.000 A 
ATOM      6  C   UNL     1       2.032   3.296  20.722  0.00  0.00    +0.000 A 
ATOM      7  C   UNL     1       3.066   2.377  20.617  0.00  0.00    +0.000 A 
ATOM      8  C   UNL     1       4.260   2.738  19.995  0.00  0.00    +0.000 A 
ATOM      9  C   UNL     1       4.408   4.000  19.393  0.00  0.00    +0.000 A 
ATOM     10  C   UNL     1       1.072   5.611  20.434  0.00  0.00    +0.000 C 
ATOM     11  C   UNL     1       1.508   7.012  20.033  0.00  0.00    +0.000 C 
ENDROOT
BRANCH   6  12
ATOM     12  O   UNL     1       0.910   2.849  21.357  0.00  0.00    +0.000 OA
ATOM     13  H   UNL     1       1.128   2.118  21.958  0.00  0.00    +0.000 HD
ENDBRANCH   6  12
BRANCH   8  14
ATOM     14  O   UNL     1       5.288   1.838  20.021  0.00  0.00    +0.000 OA
ATOM     15  H   UNL     1       5.202   1.256  20.796  0.00  0.00    +0.000 HD
ENDBRANCH   8  14
BRANCH   9  16
ATOM     16  C   UNL     1       5.701   4.406  18.744  0.00  0.00    +0.000 C 
ATOM     17  O   UNL     1       6.665   4.701  19.449  0.00  0.00    +0.000 OA
BRANCH  16  18
ATOM     18  C   UNL     1       5.909   4.413  17.264  0.00  0.00    +0.000 A 
ATOM     19  C   UNL     1       4.803   4.132  16.444  0.00  0.00    +0.000 A 
ATOM     20  C   UNL     1       4.915   4.181  15.051  0.00  0.00    +0.000 A 
ATOM     21  C   UNL     1       6.137   4.504  14.466  0.00  0.00    +0.000 A 
ATOM     22  C   UNL     1       7.251   4.749  15.269  0.00  0.00    +0.000 A 
ATOM     23  C   UNL     1       7.146   4.682  16.664  0.00  0.00    +0.000 A 
ENDBRANCH  16  18
ENDBRANCH   9  16
BRANCH  11  24
ATOM     24  O   UNL     1       2.296   7.565  21.098  0.00  0.00    +0.000 OA
ATOM     25  H   UNL     1       2.721   6.815  21.560  0.00  0.00    +0.000 HD
ENDBRANCH  11  24
BRANCH   1  26
ATOM     26  C   UNL     1       2.765   8.417  18.359  0.00  0.00    +0.000 C 
BRANCH  26  27
ATOM     27  C   UNL     1       1.616   9.312  17.894  0.00  0.00    +0.000 C 
BRANCH  27  30
ATOM     28  C   UNL     1      -0.390  10.431  18.879  0.00  0.00    +0.000 C 
ATOM     29  C   UNL     1      -1.162  10.063  17.635  0.00  0.00    +0.000 C 
ATOM     30  C   UNL     1       0.915  10.091  18.980  0.00  0.00    +0.000 C 
BRANCH  28  31
ATOM     31  C   UNL     1      -1.067  11.195  20.008  0.00  0.00    +0.000 C 
BRANCH  31  32
ATOM     32  C   UNL     1      -0.225  12.298  20.660  0.00  0.00    +0.000 C 
BRANCH  32  36
ATOM     33  C   UNL     1      -0.221  15.636  18.655  0.00  0.00    +0.000 C 
ATOM     34  C   UNL     1       0.221  14.302  19.184  0.00  0.00    +0.000 C 
ATOM     35  C   UNL     1       1.492  13.723  18.624  0.00  0.00    +0.000 C 
ATOM     36  C   UNL     1      -0.510  13.673  20.126  0.00  0.00    +0.000 C 
ENDBRANCH  32  36
ENDBRANCH  31  32
ENDBRANCH  28  31
ENDBRANCH  27  30
ENDBRANCH  26  27
ENDBRANCH   1  26
TORSDOF 11
ENDMDL
MODEL 6
REMARK VINA RESULT:      -7.8      1.184      1.926
REMARK  Name = 
REMARK  15 active torsions:
REMARK  status: ('A' for Active; 'I' for Inactive)
REMARK    1  A    between atoms: C_1  and  C_2
REMARK    2  A    between atoms: C_2  and  C_3
REMARK    3  A    between atoms: C_4  and  C_5
REMARK    4  A    between atoms: C_5  and  C_6
REMARK    5  A    between atoms: C_6  and  C_7
REMARK    6  A    between atoms: C_7  and  C_8
REMARK    7  A    between atoms: C_9  and  C_10
REMARK    8  A    between atoms: C_10  and  C_11
REMARK    9  A    between atoms: C_11  and  C_12
REMARK   10  A    between atoms: C_12  and  C_13
REMARK   11  A    between atoms: C_17  and  O_18
REMARK   12  A    between atoms: C_20  and  O_21
REMARK   13  A    between atoms: C_22  and  C_23
REMARK   14  A    between atoms: C_23  and  C_25
REMARK   15  A    between atoms: C_32  and  O_33
REMARK                            x       y       z     vdW  Elec       q    Type
REMARK                         _______ _______ _______ _____ _____    ______ ____
ROOT
ATOM      1  C   UNL     1       2.278   6.972  18.729  0.00  0.00    +0.000 C 
ATOM      2  C   UNL     1       1.427   6.386  17.581  0.00  0.00    +0.000 C 
ATOM      3  O   UNL     1       3.460   6.158  18.899  0.00  0.00    +0.000 OA
ATOM      4  C   UNL     1       3.325   4.929  19.508  0.00  0.00    +0.000 A 
ATOM      5  C   UNL     1       2.158   4.596  20.235  0.00  0.00    +0.000 A 
ATOM      6  C   UNL     1       2.035   3.300  20.745  0.00  0.00    +0.000 A 
ATOM      7  C   UNL     1       3.069   2.382  20.632  0.00  0.00    +0.000 A 
ATOM      8  C   UNL     1       4.257   2.745  19.999  0.00  0.00    +0.000 A 
ATOM      9  C   UNL     1       4.398   4.007  19.395  0.00  0.00    +0.000 A 
ATOM     10  C   UNL     1       1.068   5.613  20.465  0.00  0.00    +0.000 C 
ATOM     11  C   UNL     1       1.499   7.015  20.058  0.00  0.00    +0.000 C 
ENDROOT
BRANCH   6  12
ATOM     12  O   UNL     1       0.919   2.852  21.391  0.00  0.00    +0.000 OA
ATOM     13  H   UNL     1       0.157   3.417  21.185  0.00  0.00    +0.000 HD
ENDBRANCH   6  12
BRANCH   8  14
ATOM     14  O   UNL     1       5.287   1.846  20.017  0.00  0.00    +0.000 OA
ATOM     15  H   UNL     1       4.966   0.966  19.758  0.00  0.00    +0.000 HD
ENDBRANCH   8  14
BRANCH   9  16
ATOM     16  C   UNL     1       5.684   4.414  18.733  0.00  0.00    +0.000 C 
ATOM     17  O   UNL     1       6.666   4.670  19.429  0.00  0.00    +0.000 OA
BRANCH  16  18
ATOM     18  C   UNL     1       5.863   4.468  17.251  0.00  0.00    +0.000 A 
ATOM     19  C   UNL     1       7.117   4.863  16.755  0.00  0.00    +0.000 A 
ATOM     20  C   UNL     1       7.371   4.876  15.381  0.00  0.00    +0.000 A 
ATOM     21  C   UNL     1       6.369   4.501  14.488  0.00  0.00    +0.000 A 
ATOM     22  C   UNL     1       5.109   4.143  14.967  0.00  0.00    +0.000 A 
ATOM     23  C   UNL     1       4.847   4.146  16.341  0.00  0.00    +0.000 A 
ENDBRANCH  16  18
ENDBRANCH   9  16
BRANCH  11  24
ATOM     24  O   UNL     1       2.295   7.570  21.116  0.00  0.00    +0.000 OA
ATOM     25  H   UNL     1       1.763   8.277  21.535  0.00  0.00    +0.000 HD
ENDBRANCH  11  24
BRANCH   1  26
ATOM     26  C   UNL     1       2.738   8.420  18.372  0.00  0.00    +0.000 C 
BRANCH  26  27
ATOM     27  C   UNL     1       1.606   9.279  17.809  0.00  0.00    +0.000 C 
BRANCH  27  30
ATOM     28  C   UNL     1      -0.376  10.507  18.712  0.00  0.00    +0.000 C 
ATOM     29  C   UNL     1      -1.200   9.930  17.587  0.00  0.00    +0.000 C 
ATOM     30  C   UNL     1       0.942  10.211  18.794  0.00  0.00    +0.000 C 
BRANCH  28  31
ATOM     31  C   UNL     1      -1.013  11.430  19.740  0.00  0.00    +0.000 C 
BRANCH  31  32
ATOM     32  C   UNL     1      -1.364  12.837  19.240  0.00  0.00    +0.000 C 
BRANCH  32  36
ATOM     33  C   UNL     1       1.820  14.998  18.654  0.00  0.00    +0.000 C 
ATOM     34  C   UNL     1       0.627  14.392  19.334  0.00  0.00    +0.000 C 
ATOM     35  C   UNL     1       0.405  14.738  20.781  0.00  0.00    +0.000 C 
ATOM     36  C   UNL     1      -0.199  13.577  18.648  0.00  0.00    +0.000 C 
ENDBRANCH  32  36
ENDBRANCH  31  32
ENDBRANCH  28  31
ENDBRANCH  27  30
ENDBRANCH  26  27
ENDBRANCH   1  26
TORSDOF 11
ENDMDL
MODEL 7
REMARK VINA RESULT:      -7.7      1.648      2.616
REMARK  Name = 
REMARK  15 active torsions:
REMARK  status: ('A' for Active; 'I' for Inactive)
REMARK    1  A    between atoms: C_1  and  C_2
REMARK    2  A    between atoms: C_2  and  C_3
REMARK    3  A    between atoms: C_4  and  C_5
REMARK    4  A    between atoms: C_5  and  C_6
REMARK    5  A    between atoms: C_6  and  C_7
REMARK    6  A    between atoms: C_7  and  C_8
REMARK    7  A    between atoms: C_9  and  C_10
REMARK    8  A    between atoms: C_10  and  C_11
REMARK    9  A    between atoms: C_11  and  C_12
REMARK   10  A    between atoms: C_12  and  C_13
REMARK   11  A    between atoms: C_17  and  O_18
REMARK   12  A    between atoms: C_20  and  O_21
REMARK   13  A    between atoms: C_22  and  C_23
REMARK   14  A    between atoms: C_23  and  C_25
REMARK   15  A    between atoms: C_32  and  O_33
REMARK                            x       y       z     vdW  Elec       q    Type
REMARK                         _______ _______ _______ _____ _____    ______ ____
ROOT
ATOM      1  C   UNL     1       2.289   6.948  18.710  0.00  0.00    +0.000 C 
ATOM      2  C   UNL     1       1.463   6.356  17.546  0.00  0.00    +0.000 C 
ATOM      3  O   UNL     1       3.470   6.138  18.905  0.00  0.00    +0.000 OA
ATOM      4  C   UNL     1       3.328   4.911  19.513  0.00  0.00    +0.000 A 
ATOM      5  C   UNL     1       2.148   4.574  20.218  0.00  0.00    +0.000 A 
ATOM      6  C   UNL     1       2.020   3.279  20.729  0.00  0.00    +0.000 A 
ATOM      7  C   UNL     1       3.060   2.365  20.638  0.00  0.00    +0.000 A 
ATOM      8  C   UNL     1       4.258   2.731  20.028  0.00  0.00    +0.000 A 
ATOM      9  C   UNL     1       4.406   3.992  19.424  0.00  0.00    +0.000 A 
ATOM     10  C   UNL     1       1.050   5.588  20.424  0.00  0.00    +0.000 C 
ATOM     11  C   UNL     1       1.483   6.990  20.023  0.00  0.00    +0.000 C 
ENDROOT
BRANCH   6  12
ATOM     12  O   UNL     1       0.893   2.828  21.354  0.00  0.00    +0.000 OA
ATOM     13  H   UNL     1       0.206   2.612  20.702  0.00  0.00    +0.000 HD
ENDBRANCH   6  12
BRANCH   8  14
ATOM     14  O   UNL     1       5.291   1.836  20.068  0.00  0.00    +0.000 OA
ATOM     15  H   UNL     1       5.070   1.049  19.543  0.00  0.00    +0.000 HD
ENDBRANCH   8  14
BRANCH   9  16
ATOM     16  C   UNL     1       5.703   4.403  18.787  0.00  0.00    +0.000 C 
ATOM     17  O   UNL     1       6.659   4.701  19.502  0.00  0.00    +0.000 OA
BRANCH  16  18
ATOM     18  C   UNL     1       5.926   4.411  17.309  0.00  0.00    +0.000 A 
ATOM     19  C   UNL     1       4.847   4.059  16.481  0.00  0.00    +0.000 A 
ATOM     20  C   UNL     1       4.970   4.105  15.089  0.00  0.00    +0.000 A 
ATOM     21  C   UNL     1       6.176   4.496  14.513  0.00  0.00    +0.000 A 
ATOM     22  C   UNL     1       7.265   4.813  15.325  0.00  0.00    +0.000 A 
ATOM     23  C   UNL     1       7.151   4.750  16.719  0.00  0.00    +0.000 A 
ENDBRANCH  16  18
ENDBRANCH   9  16
BRANCH  11  24
ATOM     24  O   UNL     1       2.256   7.551  21.095  0.00  0.00    +0.000 OA
ATOM     25  H   UNL     1       3.154   7.718  20.744  0.00  0.00    +0.000 HD
ENDBRANCH  11  24
BRANCH   1  26
ATOM     26  C   UNL     1       2.750   8.397  18.358  0.00  0.00    +0.000 C 
BRANCH  26  27
ATOM     27  C   UNL     1       1.714   9.456  18.735  0.00  0.00    +0.000 C 
BRANCH  27  30
ATOM     28  C   UNL     1      -0.681   9.990  18.257  0.00  0.00    +0.000 C 
ATOM     29  C   UNL     1      -0.857  10.335  19.716  0.00  0.00    +0.000 C 
ATOM     30  C   UNL     1       0.524   9.561  17.813  0.00  0.00    +0.000 C 
BRANCH  28  31
ATOM     31  C   UNL     1      -1.850  10.106  17.290  0.00  0.00    +0.000 C 
BRANCH  31  32
ATOM     32  C   UNL     1      -2.854  11.224  17.596  0.00  0.00    +0.000 C 
BRANCH  32  36
ATOM     33  C   UNL     1      -6.632  10.802  18.435  0.00  0.00    +0.000 C 
ATOM     34  C   UNL     1      -5.217  11.300  18.492  0.00  0.00    +0.000 C 
ATOM     35  C   UNL     1      -4.913  12.413  19.457  0.00  0.00    +0.000 C 
ATOM     36  C   UNL     1      -4.276  10.749  17.700  0.00  0.00    +0.000 C 
ENDBRANCH  32  36
ENDBRANCH  31  32
ENDBRANCH  28  31
ENDBRANCH  27  30
ENDBRANCH  26  27
ENDBRANCH   1  26
TORSDOF 11
ENDMDL
MODEL 8
REMARK VINA RESULT:      -7.7      0.794      1.385
REMARK  Name = 
REMARK  15 active torsions:
REMARK  status: ('A' for Active; 'I' for Inactive)
REMARK    1  A    between atoms: C_1  and  C_2
REMARK    2  A    between atoms: C_2  and  C_3
REMARK    3  A    between atoms: C_4  and  C_5
REMARK    4  A    between atoms: C_5  and  C_6
REMARK    5  A    between atoms: C_6  and  C_7
REMARK    6  A    between atoms: C_7  and  C_8
REMARK    7  A    between atoms: C_9  and  C_10
REMARK    8  A    between atoms: C_10  and  C_11
REMARK    9  A    between atoms: C_11  and  C_12
REMARK   10  A    between atoms: C_12  and  C_13
REMARK   11  A    between atoms: C_17  and  O_18
REMARK   12  A    between atoms: C_20  and  O_21
REMARK   13  A    between atoms: C_22  and  C_23
REMARK   14  A    between atoms: C_23  and  C_25
REMARK   15  A    between atoms: C_32  and  O_33
REMARK                            x       y       z     vdW  Elec       q    Type
REMARK                         _______ _______ _______ _____ _____    ______ ____
ROOT
ATOM      1  C   UNL     1       2.307   7.070  18.714  0.00  0.00    +0.000 C 
ATOM      2  C   UNL     1       1.471   6.497  17.547  0.00  0.00    +0.000 C 
ATOM      3  O   UNL     1       3.480   6.246  18.898  0.00  0.00    +0.000 OA
ATOM      4  C   UNL     1       3.327   5.014  19.496  0.00  0.00    +0.000 A 
ATOM      5  C   UNL     1       2.145   4.685  20.202  0.00  0.00    +0.000 A 
ATOM      6  C   UNL     1       2.004   3.387  20.701  0.00  0.00    +0.000 A 
ATOM      7  C   UNL     1       3.034   2.462  20.600  0.00  0.00    +0.000 A 
ATOM      8  C   UNL     1       4.234   2.820  19.989  0.00  0.00    +0.000 A 
ATOM      9  C   UNL     1       4.394   4.085  19.395  0.00  0.00    +0.000 A 
ATOM     10  C   UNL     1       1.059   5.708  20.420  0.00  0.00    +0.000 C 
ATOM     11  C   UNL     1       1.506   7.109  20.029  0.00  0.00    +0.000 C 
ENDROOT
BRANCH   6  12
ATOM     12  O   UNL     1       0.874   2.942  21.326  0.00  0.00    +0.000 OA
ATOM     13  H   UNL     1       0.879   3.201  22.261  0.00  0.00    +0.000 HD
ENDBRANCH   6  12
BRANCH   8  14
ATOM     14  O   UNL     1       5.257   1.914  20.018  0.00  0.00    +0.000 OA
ATOM     15  H   UNL     1       5.726   1.913  19.166  0.00  0.00    +0.000 HD
ENDBRANCH   8  14
BRANCH   9  16
ATOM     16  C   UNL     1       5.694   4.487  18.758  0.00  0.00    +0.000 C 
ATOM     17  O   UNL     1       6.647   4.794  19.473  0.00  0.00    +0.000 OA
BRANCH  16  18
ATOM     18  C   UNL     1       5.922   4.476  17.281  0.00  0.00    +0.000 A 
ATOM     19  C   UNL     1       4.830   4.176  16.450  0.00  0.00    +0.000 A 
ATOM     20  C   UNL     1       4.960   4.208  15.059  0.00  0.00    +0.000 A 
ATOM     21  C   UNL     1       6.187   4.533  14.486  0.00  0.00    +0.000 A 
ATOM     22  C   UNL     1       7.288   4.797  15.301  0.00  0.00    +0.000 A 
ATOM     23  C   UNL     1       7.165   4.748  16.694  0.00  0.00    +0.000 A 
ENDBRANCH  16  18
ENDBRANCH   9  16
BRANCH  11  24
ATOM     24  O   UNL     1       2.288   7.652  21.104  0.00  0.00    +0.000 OA
ATOM     25  H   UNL     1       1.830   8.459  21.414  0.00  0.00    +0.000 HD
ENDBRANCH  11  24
BRANCH   1  26
ATOM     26  C   UNL     1       2.783   8.517  18.373  0.00  0.00    +0.000 C 
BRANCH  26  27
ATOM     27  C   UNL     1       1.680   9.372  17.750  0.00  0.00    +0.000 C 
BRANCH  27  30
ATOM     28  C   UNL     1      -0.094  10.864  18.685  0.00  0.00    +0.000 C 
ATOM     29  C   UNL     1      -1.120  10.060  17.924  0.00  0.00    +0.000 C 
ATOM     30  C   UNL     1       1.217  10.544  18.580  0.00  0.00    +0.000 C 
BRANCH  28  31
ATOM     31  C   UNL     1      -0.523  12.039  19.553  0.00  0.00    +0.000 C 
BRANCH  31  32
ATOM     32  C   UNL     1      -0.948  11.685  20.983  0.00  0.00    +0.000 C 
BRANCH  32  36
ATOM     33  C   UNL     1      -1.377  14.157  23.960  0.00  0.00    +0.000 C 
ATOM     34  C   UNL     1      -1.648  13.031  23.006  0.00  0.00    +0.000 C 
ATOM     35  C   UNL     1      -2.847  12.164  23.282  0.00  0.00    +0.000 C 
ATOM     36  C   UNL     1      -0.836  12.831  21.949  0.00  0.00    +0.000 C 
ENDBRANCH  32  36
ENDBRANCH  31  32
ENDBRANCH  28  31
ENDBRANCH  27  30
ENDBRANCH  26  27
ENDBRANCH   1  26
TORSDOF 11
ENDMDL
MODEL 9
REMARK VINA RESULT:      -7.6      1.143      1.829
REMARK  Name = 
REMARK  15 active torsions:
REMARK  status: ('A' for Active; 'I' for Inactive)
REMARK    1  A    between atoms: C_1  and  C_2
REMARK    2  A    between atoms: C_2  and  C_3
REMARK    3  A    between atoms: C_4  and  C_5
REMARK    4  A    between atoms: C_5  and  C_6
REMARK    5  A    between atoms: C_6  and  C_7
REMARK    6  A    between atoms: C_7  and  C_8
REMARK    7  A    between atoms: C_9  and  C_10
REMARK    8  A    between atoms: C_10  and  C_11
REMARK    9  A    between atoms: C_11  and  C_12
REMARK   10  A    between atoms: C_12  and  C_13
REMARK   11  A    between atoms: C_17  and  O_18
REMARK   12  A    between atoms: C_20  and  O_21
REMARK   13  A    between atoms: C_22  and  C_23
REMARK   14  A    between atoms: C_23  and  C_25
REMARK   15  A    between atoms: C_32  and  O_33
REMARK                            x       y       z     vdW  Elec       q    Type
REMARK                         _______ _______ _______ _____ _____    ______ ____
ROOT
ATOM      1  C   UNL     1       2.310   6.974  18.722  0.00  0.00    +0.000 C 
ATOM      2  C   UNL     1       1.471   6.388  17.566  0.00  0.00    +0.000 C 
ATOM      3  O   UNL     1       3.490   6.160  18.906  0.00  0.00    +0.000 OA
ATOM      4  C   UNL     1       3.348   4.932  19.514  0.00  0.00    +0.000 A 
ATOM      5  C   UNL     1       2.174   4.600  20.229  0.00  0.00    +0.000 A 
ATOM      6  C   UNL     1       2.045   3.305  20.739  0.00  0.00    +0.000 A 
ATOM      7  C   UNL     1       3.080   2.386  20.638  0.00  0.00    +0.000 A 
ATOM      8  C   UNL     1       4.274   2.748  20.017  0.00  0.00    +0.000 A 
ATOM      9  C   UNL     1       4.422   4.009  19.413  0.00  0.00    +0.000 A 
ATOM     10  C   UNL     1       1.082   5.618  20.447  0.00  0.00    +0.000 C 
ATOM     11  C   UNL     1       1.517   7.019  20.043  0.00  0.00    +0.000 C 
ENDROOT
BRANCH   6  12
ATOM     12  O   UNL     1       0.922   2.857  21.375  0.00  0.00    +0.000 OA
ATOM     13  H   UNL     1       1.159   2.279  22.117  0.00  0.00    +0.000 HD
ENDBRANCH   6  12
BRANCH   8  14
ATOM     14  O   UNL     1       5.303   1.849  20.046  0.00  0.00    +0.000 OA
ATOM     15  H   UNL     1       6.086   2.224  19.609  0.00  0.00    +0.000 HD
ENDBRANCH   8  14
BRANCH   9  16
ATOM     16  C   UNL     1       5.714   4.415  18.764  0.00  0.00    +0.000 C 
ATOM     17  O   UNL     1       6.682   4.696  19.470  0.00  0.00    +0.000 OA
BRANCH  16  18
ATOM     18  C   UNL     1       5.918   4.439  17.284  0.00  0.00    +0.000 A 
ATOM     19  C   UNL     1       4.821   4.124  16.465  0.00  0.00    +0.000 A 
ATOM     20  C   UNL     1       4.927   4.186  15.073  0.00  0.00    +0.000 A 
ATOM     21  C   UNL     1       6.135   4.557  14.486  0.00  0.00    +0.000 A 
ATOM     22  C   UNL     1       7.241   4.836  15.288  0.00  0.00    +0.000 A 
ATOM     23  C   UNL     1       7.143   4.757  16.682  0.00  0.00    +0.000 A 
ENDBRANCH  16  18
ENDBRANCH   9  16
BRANCH  11  24
ATOM     24  O   UNL     1       2.303   7.575  21.109  0.00  0.00    +0.000 OA
ATOM     25  H   UNL     1       1.679   7.980  21.744  0.00  0.00    +0.000 HD
ENDBRANCH  11  24
BRANCH   1  26
ATOM     26  C   UNL     1       2.774   8.422  18.368  0.00  0.00    +0.000 C 
BRANCH  26  27
ATOM     27  C   UNL     1       1.637   9.296  17.841  0.00  0.00    +0.000 C 
BRANCH  27  30
ATOM     28  C   UNL     1       0.541  10.946  19.367  0.00  0.00    +0.000 C 
ATOM     29  C   UNL     1      -0.481   9.890  19.714  0.00  0.00    +0.000 C 
ATOM     30  C   UNL     1       1.517  10.661  18.473  0.00  0.00    +0.000 C 
BRANCH  28  31
ATOM     31  C   UNL     1       0.469  12.327  20.002  0.00  0.00    +0.000 C 
BRANCH  31  32
ATOM     32  C   UNL     1      -0.619  13.254  19.449  0.00  0.00    +0.000 C 
BRANCH  32  36
ATOM     33  C   UNL     1      -4.034  13.036  21.305  0.00  0.00    +0.000 C 
ATOM     34  C   UNL     1      -2.981  12.844  20.254  0.00  0.00    +0.000 C 
ATOM     35  C   UNL     1      -3.328  11.972  19.078  0.00  0.00    +0.000 C 
ATOM     36  C   UNL     1      -1.782  13.447  20.381  0.00  0.00    +0.000 C 
ENDBRANCH  32  36
ENDBRANCH  31  32
ENDBRANCH  28  31
ENDBRANCH  27  30
ENDBRANCH  26  27
ENDBRANCH   1  26
TORSDOF 11
ENDMDL
