MODEL 1
REMARK VINA RESULT:      -7.6      0.000      0.000
REMARK  Name = 
REMARK  6 active torsions:
REMARK  status: ('A' for Active; 'I' for Inactive)
REMARK    1  A    between atoms: O5*_1  and  C5*_2
REMARK    2  A    between atoms: C5*_2  and  C4*_3
REMARK    3  A    between atoms: C1*_5  and  N_6
REMARK    4  A    between atoms: N_11  and  C_12
REMARK    5  A    between atoms: C2*_26  and  O2*_27
REMARK    6  A    between atoms: C3*_28  and  O3*_29
REMARK                            x       y       z     vdW  Elec       q    Type
REMARK                         _______ _______ _______ _____ _____    ______ ____
ROOT
ATOM      1  N   UNL     1       3.164   5.861  18.480  0.00  0.00    +0.000 N 
ATOM      2  C   UNL     1       3.542   6.600  17.364  0.00  0.00    +0.000 A 
ATOM      3  N   UNL     1       3.059   7.850  17.365  0.00  0.00    +0.000 NA
ATOM      4  C   UNL     1       2.342   7.984  18.577  0.00  0.00    +0.000 A 
ATOM      5  C   UNL     1       1.590   9.116  19.177  0.00  0.00    +0.000 A 
ATOM      6  N   UNL     1       1.218  10.435  18.622  0.00  0.00    +0.000 N 
ATOM      7  N   UNL     1       1.047   8.814  20.391  0.00  0.00    +0.000 NA
ATOM      8  C   UNL     1       1.182   7.562  20.908  0.00  0.00    +0.000 A 
ATOM      9  N   UNL     1       1.818   6.463  20.420  0.00  0.00    +0.000 NA
ATOM     10  C   UNL     1       2.403   6.735  19.248  0.00  0.00    +0.000 A 
ATOM     11  H   UNL     1       1.657  10.467  17.701  0.00  0.00    +0.000 HD
ENDROOT
BRANCH   6  12
ATOM     12  C   UNL     1       1.582  11.699  19.453  0.00  0.00    +0.000 C 
ATOM     13  C   UNL     1       2.110  12.702  18.404  0.00  0.00    +0.000 C 
ATOM     14  C   UNL     1       2.305  14.178  18.741  0.00  0.00    +0.000 C 
ATOM     15  C   UNL     1       1.922  14.669  20.103  0.00  0.00    +0.000 C 
ATOM     16  C   UNL     1       0.999  13.785  20.880  0.00  0.00    +0.000 A 
ATOM     17  C   UNL     1       0.491  14.430  22.045  0.00  0.00    +0.000 A 
ATOM     18  C   UNL     1      -0.586  13.904  22.712  0.00  0.00    +0.000 A 
ATOM     19  C   UNL     1      -1.147  12.740  22.225  0.00  0.00    +0.000 A 
ATOM     20  C   UNL     1      -0.543  12.005  21.137  0.00  0.00    +0.000 A 
ATOM     21  C   UNL     1       0.589  12.480  20.447  0.00  0.00    +0.000 A 
ENDBRANCH   6  12
BRANCH   1  24
ATOM     22  C4* UNL     1       2.419   2.547  19.637  0.00  0.00    +0.000 C 
ATOM     23  O4* UNL     1       2.251   3.658  18.721  0.00  0.00    +0.000 OA
ATOM     24  C1* UNL     1       3.485   4.426  18.636  0.00  0.00    +0.000 C 
ATOM     25  C2* UNL     1       4.419   3.889  19.753  0.00  0.00    +0.000 C 
ATOM     26  C3* UNL     1       3.894   2.465  20.008  0.00  0.00    +0.000 C 
BRANCH  25  27
ATOM     27  O2* UNL     1       5.794   3.786  19.344  0.00  0.00    +0.000 OA
ATOM     28  H2* UNL     1       5.782   3.264  18.509  0.00  0.00    +0.000 HD
ENDBRANCH  25  27
BRANCH  26  29
ATOM     29  O3* UNL     1       4.634   1.575  19.134  0.00  0.00    +0.000 OA
ATOM     30  H3* UNL     1       5.557   1.513  19.439  0.00  0.00    +0.000 HD
ENDBRANCH  26  29
BRANCH  22  31
ATOM     31  C5* UNL     1       1.502   2.755  20.847  0.00  0.00    +0.000 C 
BRANCH  31  32
ATOM     32  O5* UNL     1       0.527   3.757  20.585  0.00  0.00    +0.000 OA
ATOM     33  H5* UNL     1       0.299   4.162  21.441  0.00  0.00    +0.000 HD
ENDBRANCH  31  32
ENDBRANCH  22  31
ENDBRANCH   1  24
TORSDOF 6
ENDMDL
MODEL 2
REMARK VINA RESULT:      -7.5      4.103      8.902
REMARK  Name = 
REMARK  6 active torsions:
REMARK  status: ('A' for Active; 'I' for Inactive)
REMARK    1  A    between atoms: O5*_1  and  C5*_2
REMARK    2  A    between atoms: C5*_2  and  C4*_3
REMARK    3  A    between atoms: C1*_5  and  N_6
REMARK    4  A    between atoms: N_11  and  C_12
REMARK    5  A    between atoms: C2*_26  and  O2*_27
REMARK    6  A    between atoms: C3*_28  and  O3*_29
REMARK                            x       y       z     vdW  Elec       q    Type
REMARK                         _______ _______ _______ _____ _____    ______ ____
ROOT
ATOM      1  N   UNL     1      -0.023  11.337  19.410  0.00  0.00    +0.000 N 
ATOM      2  C   UNL     1       0.754  11.387  18.257  0.00  0.00    +0.000 A 
ATOM      3  N   UNL     1       1.545  10.317  18.102  0.00  0.00    +0.000 NA
ATOM      4  C   UNL     1       1.260   9.465  19.194  0.00  0.00    +0.000 A 
ATOM      5  C   UNL     1       1.784   8.133  19.592  0.00  0.00    +0.000 A 
ATOM      6  N   UNL     1       2.898   7.327  19.046  0.00  0.00    +0.000 N 
ATOM      7  N   UNL     1       1.218   7.654  20.736  0.00  0.00    +0.000 NA
ATOM      8  C   UNL     1       0.307   8.407  21.414  0.00  0.00    +0.000 A 
ATOM      9  N   UNL     1      -0.203   9.638  21.147  0.00  0.00    +0.000 NA
ATOM     10  C   UNL     1       0.298  10.122  20.005  0.00  0.00    +0.000 A 
ATOM     11  H   UNL     1       3.234   7.855  18.240  0.00  0.00    +0.000 HD
ENDROOT
BRANCH   6  12
ATOM     12  C   UNL     1       2.600   5.851  18.656  0.00  0.00    +0.000 C 
ATOM     13  C   UNL     1       3.630   5.538  17.549  0.00  0.00    +0.000 C 
ATOM     14  C   UNL     1       3.890   4.107  17.085  0.00  0.00    +0.000 C 
ATOM     15  C   UNL     1       3.166   2.982  17.759  0.00  0.00    +0.000 C 
ATOM     16  C   UNL     1       2.572   3.295  19.095  0.00  0.00    +0.000 A 
ATOM     17  C   UNL     1       2.125   2.124  19.772  0.00  0.00    +0.000 A 
ATOM     18  C   UNL     1       1.834   2.169  21.112  0.00  0.00    +0.000 A 
ATOM     19  C   UNL     1       1.982   3.374  21.769  0.00  0.00    +0.000 A 
ATOM     20  C   UNL     1       2.290   4.593  21.057  0.00  0.00    +0.000 A 
ATOM     21  C   UNL     1       2.554   4.609  19.674  0.00  0.00    +0.000 A 
ENDBRANCH   6  12
BRANCH   1  24
ATOM     22  C4* UNL     1      -1.459  13.446  21.932  0.00  0.00    +0.000 C 
ATOM     23  O4* UNL     1      -0.365  13.019  21.082  0.00  0.00    +0.000 OA
ATOM     24  C1* UNL     1      -0.885  12.457  19.843  0.00  0.00    +0.000 C 
ATOM     25  C2* UNL     1      -2.418  12.316  20.029  0.00  0.00    +0.000 C 
ATOM     26  C3* UNL     1      -2.746  13.350  21.121  0.00  0.00    +0.000 C 
BRANCH  25  27
ATOM     27  O2* UNL     1      -3.169  12.664  18.854  0.00  0.00    +0.000 OA
ATOM     28  H2* UNL     1      -3.158  11.859  18.286  0.00  0.00    +0.000 HD
ENDBRANCH  25  27
BRANCH  26  29
ATOM     29  O3* UNL     1      -3.067  14.594  20.448  0.00  0.00    +0.000 OA
ATOM     30  H3* UNL     1      -2.534  15.316  20.827  0.00  0.00    +0.000 HD
ENDBRANCH  26  29
BRANCH  22  31
ATOM     31  C5* UNL     1      -1.476  12.584  23.197  0.00  0.00    +0.000 C 
BRANCH  31  32
ATOM     32  O5* UNL     1      -0.456  11.593  23.156  0.00  0.00    +0.000 OA
ATOM     33  H5* UNL     1       0.105  11.794  22.386  0.00  0.00    +0.000 HD
ENDBRANCH  31  32
ENDBRANCH  22  31
ENDBRANCH   1  24
TORSDOF 6
ENDMDL
MODEL 3
REMARK VINA RESULT:      -7.4      1.638      2.633
REMARK  Name = 
REMARK  6 active torsions:
REMARK  status: ('A' for Active; 'I' for Inactive)
REMARK    1  A    between atoms: O5*_1  and  C5*_2
REMARK    2  A    between atoms: C5*_2  and  C4*_3
REMARK    3  A    between atoms: C1*_5  and  N_6
REMARK    4  A    between atoms: N_11  and  C_12
REMARK    5  A    between atoms: C2*_26  and  O2*_27
REMARK    6  A    between atoms: C3*_28  and  O3*_29
REMARK                            x       y       z     vdW  Elec       q    Type
REMARK                         _______ _______ _______ _____ _____    ______ ____
ROOT
ATOM      1  N   UNL     1       3.054   6.792  18.599  0.00  0.00    +0.000 N 
ATOM      2  C   UNL     1       3.167   7.563  17.447  0.00  0.00    +0.000 A 
ATOM      3  N   UNL     1       2.444   8.691  17.488  0.00  0.00    +0.000 NA
ATOM      4  C   UNL     1       1.833   8.710  18.764  0.00  0.00    +0.000 A 
ATOM      5  C   UNL     1       0.929   9.683  19.429  0.00  0.00    +0.000 A 
ATOM      6  N   UNL     1       0.247  10.887  18.906  0.00  0.00    +0.000 N 
ATOM      7  N   UNL     1       0.576   9.309  20.692  0.00  0.00    +0.000 NA
ATOM      8  C   UNL     1       1.010   8.123  21.200  0.00  0.00    +0.000 A 
ATOM      9  N   UNL     1       1.805   7.162  20.658  0.00  0.00    +0.000 NA
ATOM     10  C   UNL     1       2.208   7.516  19.432  0.00  0.00    +0.000 A 
ATOM     11  H   UNL     1       0.581  10.982  17.946  0.00  0.00    +0.000 HD
ENDROOT
BRANCH   6  12
ATOM     12  C   UNL     1       0.425  12.218  19.689  0.00  0.00    +0.000 C 
ATOM     13  C   UNL     1       0.387  13.308  18.596  0.00  0.00    +0.000 C 
ATOM     14  C   UNL     1       0.232  14.785  18.950  0.00  0.00    +0.000 C 
ATOM     15  C   UNL     1       0.059  15.174  20.386  0.00  0.00    +0.000 C 
ATOM     16  C   UNL     1      -0.366  14.080  21.312  0.00  0.00    +0.000 A 
ATOM     17  C   UNL     1      -0.745  14.577  22.593  0.00  0.00    +0.000 A 
ATOM     18  C   UNL     1      -1.441  13.780  23.465  0.00  0.00    +0.000 A 
ATOM     19  C   UNL     1      -1.750  12.495  23.066  0.00  0.00    +0.000 A 
ATOM     20  C   UNL     1      -1.239  11.940  21.833  0.00  0.00    +0.000 A 
ATOM     21  C   UNL     1      -0.482  12.703  20.923  0.00  0.00    +0.000 A 
ENDBRANCH   6  12
BRANCH   1  24
ATOM     22  C4* UNL     1       5.795   4.510  18.211  0.00  0.00    +0.000 C 
ATOM     23  O4* UNL     1       5.113   5.599  18.882  0.00  0.00    +0.000 OA
ATOM     24  C1* UNL     1       3.672   5.455  18.730  0.00  0.00    +0.000 C 
ATOM     25  C2* UNL     1       3.445   4.319  17.699  0.00  0.00    +0.000 C 
ATOM     26  C3* UNL     1       4.743   3.494  17.780  0.00  0.00    +0.000 C 
BRANCH  25  27
ATOM     27  O2* UNL     1       2.350   3.451  18.039  0.00  0.00    +0.000 OA
ATOM     28  H2* UNL     1       1.950   3.183  17.180  0.00  0.00    +0.000 HD
ENDBRANCH  25  27
BRANCH  26  29
ATOM     29  O3* UNL     1       4.531   2.463  18.778  0.00  0.00    +0.000 OA
ATOM     30  H3* UNL     1       4.748   2.816  19.660  0.00  0.00    +0.000 HD
ENDBRANCH  26  29
BRANCH  22  31
ATOM     31  C5* UNL     1       6.606   5.072  17.041  0.00  0.00    +0.000 C 
BRANCH  31  32
ATOM     32  O5* UNL     1       7.833   4.369  16.883  0.00  0.00    +0.000 OA
ATOM     33  H5* UNL     1       8.157   4.158  17.777  0.00  0.00    +0.000 HD
ENDBRANCH  31  32
ENDBRANCH  22  31
ENDBRANCH   1  24
TORSDOF 6
ENDMDL
MODEL 4
REMARK VINA RESULT:      -7.3      2.038      3.082
REMARK  Name = 
REMARK  6 active torsions:
REMARK  status: ('A' for Active; 'I' for Inactive)
REMARK    1  A    between atoms: O5*_1  and  C5*_2
REMARK    2  A    between atoms: C5*_2  and  C4*_3
REMARK    3  A    between atoms: C1*_5  and  N_6
REMARK    4  A    between atoms: N_11  and  C_12
REMARK    5  A    between atoms: C2*_26  and  O2*_27
REMARK    6  A    between atoms: C3*_28  and  O3*_29
REMARK                            x       y       z     vdW  Elec       q    Type
REMARK                         _______ _______ _______ _____ _____    ______ ____
ROOT
ATOM      1  N   UNL     1       2.212   7.424  18.673  0.00  0.00    +0.000 N 
ATOM      2  C   UNL     1       2.479   7.953  17.415  0.00  0.00    +0.000 A 
ATOM      3  N   UNL     1       2.165   9.251  17.306  0.00  0.00    +0.000 NA
ATOM      4  C   UNL     1       1.693   9.641  18.580  0.00  0.00    +0.000 A 
ATOM      5  C   UNL     1       1.205  10.938  19.116  0.00  0.00    +0.000 A 
ATOM      6  N   UNL     1       0.911  12.218  18.437  0.00  0.00    +0.000 N 
ATOM      7  N   UNL     1       0.848  10.875  20.431  0.00  0.00    +0.000 NA
ATOM      8  C   UNL     1       0.913   9.690  21.100  0.00  0.00    +0.000 A 
ATOM      9  N   UNL     1       1.311   8.457  20.687  0.00  0.00    +0.000 NA
ATOM     10  C   UNL     1       1.712   8.490  19.411  0.00  0.00    +0.000 A 
ATOM     11  H   UNL     1       1.183  12.069  17.464  0.00  0.00    +0.000 HD
ENDROOT
BRANCH   6  12
ATOM     12  C   UNL     1       1.569  13.508  19.004  0.00  0.00    +0.000 C 
ATOM     13  C   UNL     1       2.990  13.504  18.400  0.00  0.00    +0.000 C 
ATOM     14  C   UNL     1       3.883  14.741  18.458  0.00  0.00    +0.000 C 
ATOM     15  C   UNL     1       3.344  15.999  19.067  0.00  0.00    +0.000 C 
ATOM     16  C   UNL     1       1.856  16.079  19.189  0.00  0.00    +0.000 A 
ATOM     17  C   UNL     1       1.416  17.388  19.541  0.00  0.00    +0.000 A 
ATOM     18  C   UNL     1       0.095  17.732  19.406  0.00  0.00    +0.000 A 
ATOM     19  C   UNL     1      -0.781  16.777  18.930  0.00  0.00    +0.000 A 
ATOM     20  C   UNL     1      -0.367  15.409  18.715  0.00  0.00    +0.000 A 
ATOM     21  C   UNL     1       0.969  14.993  18.882  0.00  0.00    +0.000 A 
ENDBRANCH   6  12
BRANCH   1  24
ATOM     22  C4* UNL     1       4.192   4.581  19.606  0.00  0.00    +0.000 C 
ATOM     23  O4* UNL     1       3.491   5.814  19.904  0.00  0.00    +0.000 OA
ATOM     24  C1* UNL     1       2.373   5.988  18.987  0.00  0.00    +0.000 C 
ATOM     25  C2* UNL     1       2.524   4.899  17.893  0.00  0.00    +0.000 C 
ATOM     26  C3* UNL     1       3.368   3.811  18.581  0.00  0.00    +0.000 C 
BRANCH  25  27
ATOM     27  O2* UNL     1       1.273   4.306  17.504  0.00  0.00    +0.000 OA
ATOM     28  H2* UNL     1       1.002   3.740  18.263  0.00  0.00    +0.000 HD
ENDBRANCH  25  27
BRANCH  26  29
ATOM     29  O3* UNL     1       2.442   2.882  19.203  0.00  0.00    +0.000 OA
ATOM     30  H3* UNL     1       2.449   3.015  20.168  0.00  0.00    +0.000 HD
ENDBRANCH  26  29
BRANCH  22  31
ATOM     31  C5* UNL     1       5.604   4.914  19.118  0.00  0.00    +0.000 C 
BRANCH  31  32
ATOM     32  O5* UNL     1       6.171   3.821  18.405  0.00  0.00    +0.000 OA
ATOM     33  H5* UNL     1       6.405   3.142  19.063  0.00  0.00    +0.000 HD
ENDBRANCH  31  32
ENDBRANCH  22  31
ENDBRANCH   1  24
TORSDOF 6
ENDMDL
MODEL 5
REMARK VINA RESULT:      -7.3      4.095      9.003
REMARK  Name = 
REMARK  6 active torsions:
REMARK  status: ('A' for Active; 'I' for Inactive)
REMARK    1  A    between atoms: O5*_1  and  C5*_2
REMARK    2  A    between atoms: C5*_2  and  C4*_3
REMARK    3  A    between atoms: C1*_5  and  N_6
REMARK    4  A    between atoms: N_11  and  C_12
REMARK    5  A    between atoms: C2*_26  and  O2*_27
REMARK    6  A    between atoms: C3*_28  and  O3*_29
REMARK                            x       y       z     vdW  Elec       q    Type
REMARK                         _______ _______ _______ _____ _____    ______ ____
ROOT
ATOM      1  N   UNL     1       0.273   9.537  20.661  0.00  0.00    +0.000 N 
ATOM      2  C   UNL     1       0.549   8.473  21.512  0.00  0.00    +0.000 A 
ATOM      3  N   UNL     1       1.337   7.540  20.960  0.00  0.00    +0.000 NA
ATOM      4  C   UNL     1       1.652   8.019  19.667  0.00  0.00    +0.000 A 
ATOM      5  C   UNL     1       2.486   7.467  18.568  0.00  0.00    +0.000 A 
ATOM      6  N   UNL     1       3.139   6.149  18.416  0.00  0.00    +0.000 N 
ATOM      7  N   UNL     1       2.528   8.274  17.470  0.00  0.00    +0.000 NA
ATOM      8  C   UNL     1       1.809   9.431  17.445  0.00  0.00    +0.000 A 
ATOM      9  N   UNL     1       1.000   9.995  18.381  0.00  0.00    +0.000 NA
ATOM     10  C   UNL     1       0.969   9.250  19.492  0.00  0.00    +0.000 A 
ATOM     11  H   UNL     1       2.961   5.663  19.296  0.00  0.00    +0.000 HD
ENDROOT
BRANCH   6  12
ATOM     12  C   UNL     1       4.656   6.129  18.069  0.00  0.00    +0.000 C 
ATOM     13  C   UNL     1       5.338   5.687  19.382  0.00  0.00    +0.000 C 
ATOM     14  C   UNL     1       6.800   5.251  19.412  0.00  0.00    +0.000 C 
ATOM     15  C   UNL     1       7.570   5.201  18.128  0.00  0.00    +0.000 C 
ATOM     16  C   UNL     1       6.751   5.173  16.877  0.00  0.00    +0.000 A 
ATOM     17  C   UNL     1       7.538   4.877  15.726  0.00  0.00    +0.000 A 
ATOM     18  C   UNL     1       6.933   4.513  14.550  0.00  0.00    +0.000 A 
ATOM     19  C   UNL     1       5.554   4.452  14.521  0.00  0.00    +0.000 A 
ATOM     20  C   UNL     1       4.751   4.895  15.637  0.00  0.00    +0.000 A 
ATOM     21  C   UNL     1       5.323   5.320  16.852  0.00  0.00    +0.000 A 
ENDBRANCH   6  12
BRANCH   1  24
ATOM     22  C4* UNL     1      -1.477  12.584  19.937  0.00  0.00    +0.000 C 
ATOM     23  O4* UNL     1      -1.275  11.155  19.806  0.00  0.00    +0.000 OA
ATOM     24  C1* UNL     1      -0.664  10.624  21.017  0.00  0.00    +0.000 C 
ATOM     25  C2* UNL     1      -0.248  11.847  21.876  0.00  0.00    +0.000 C 
ATOM     26  C3* UNL     1      -1.178  12.969  21.380  0.00  0.00    +0.000 C 
BRANCH  25  27
ATOM     27  O2* UNL     1      -0.490  11.663  23.282  0.00  0.00    +0.000 OA
ATOM     28  H2* UNL     1       0.193  11.022  23.585  0.00  0.00    +0.000 HD
ENDBRANCH  25  27
BRANCH  26  29
ATOM     29  O3* UNL     1      -2.363  12.941  22.216  0.00  0.00    +0.000 OA
ATOM     30  H3* UNL     1      -2.109  13.097  23.144  0.00  0.00    +0.000 HD
ENDBRANCH  26  29
BRANCH  22  31
ATOM     31  C5* UNL     1      -0.590  13.310  18.921  0.00  0.00    +0.000 C 
BRANCH  31  32
ATOM     32  O5* UNL     1      -0.469  12.560  17.718  0.00  0.00    +0.000 OA
ATOM     33  H5* UNL     1      -0.216  13.187  17.017  0.00  0.00    +0.000 HD
ENDBRANCH  31  32
ENDBRANCH  22  31
ENDBRANCH   1  24
TORSDOF 6
ENDMDL
MODEL 6
REMARK VINA RESULT:      -7.3      2.043      3.170
REMARK  Name = 
REMARK  6 active torsions:
REMARK  status: ('A' for Active; 'I' for Inactive)
REMARK    1  A    between atoms: O5*_1  and  C5*_2
REMARK    2  A    between atoms: C5*_2  and  C4*_3
REMARK    3  A    between atoms: C1*_5  and  N_6
REMARK    4  A    between atoms: N_11  and  C_12
REMARK    5  A    between atoms: C2*_26  and  O2*_27
REMARK    6  A    between atoms: C3*_28  and  O3*_29
REMARK                            x       y       z     vdW  Elec       q    Type
REMARK                         _______ _______ _______ _____ _____    ______ ____
ROOT
ATOM      1  N   UNL     1       2.311   6.771  19.289  0.00  0.00    +0.000 N 
ATOM      2  C   UNL     1       1.765   6.615  20.558  0.00  0.00    +0.000 A 
ATOM      3  N   UNL     1       1.238   7.743  21.052  0.00  0.00    +0.000 NA
ATOM      4  C   UNL     1       1.396   8.718  20.040  0.00  0.00    +0.000 A 
ATOM      5  C   UNL     1       1.015  10.152  19.959  0.00  0.00    +0.000 A 
ATOM      6  N   UNL     1       0.475  11.071  20.984  0.00  0.00    +0.000 N 
ATOM      7  N   UNL     1       1.354  10.730  18.771  0.00  0.00    +0.000 NA
ATOM      8  C   UNL     1       2.019  10.009  17.826  0.00  0.00    +0.000 A 
ATOM      9  N   UNL     1       2.436   8.715  17.826  0.00  0.00    +0.000 NA
ATOM     10  C   UNL     1       2.080   8.102  18.960  0.00  0.00    +0.000 A 
ATOM     11  H   UNL     1       0.336  10.490  21.811  0.00  0.00    +0.000 HD
ENDROOT
BRANCH   6  12
ATOM     12  C   UNL     1      -0.818  11.862  20.639  0.00  0.00    +0.000 C 
ATOM     13  C   UNL     1      -1.297  11.242  19.308  0.00  0.00    +0.000 C 
ATOM     14  C   UNL     1      -2.694  11.518  18.758  0.00  0.00    +0.000 C 
ATOM     15  C   UNL     1      -3.635  12.367  19.557  0.00  0.00    +0.000 C 
ATOM     16  C   UNL     1      -3.298  12.530  21.005  0.00  0.00    +0.000 A 
ATOM     17  C   UNL     1      -4.359  13.134  21.739  0.00  0.00    +0.000 A 
ATOM     18  C   UNL     1      -4.362  13.091  23.110  0.00  0.00    +0.000 A 
ATOM     19  C   UNL     1      -3.312  12.458  23.744  0.00  0.00    +0.000 A 
ATOM     20  C   UNL     1      -2.163  11.977  23.011  0.00  0.00    +0.000 A 
ATOM     21  C   UNL     1      -2.090  12.037  21.605  0.00  0.00    +0.000 A 
ENDBRANCH   6  12
BRANCH   1  24
ATOM     22  C4* UNL     1       2.500   3.524  17.774  0.00  0.00    +0.000 C 
ATOM     23  O4* UNL     1       2.122   4.923  17.774  0.00  0.00    +0.000 OA
ATOM     24  C1* UNL     1       3.047   5.691  18.596  0.00  0.00    +0.000 C 
ATOM     25  C2* UNL     1       3.932   4.661  19.346  0.00  0.00    +0.000 C 
ATOM     26  C3* UNL     1       3.856   3.406  18.458  0.00  0.00    +0.000 C 
BRANCH  25  27
ATOM     27  O2* UNL     1       5.312   5.055  19.435  0.00  0.00    +0.000 OA
ATOM     28  H2* UNL     1       5.808   4.405  18.886  0.00  0.00    +0.000 HD
ENDBRANCH  25  27
BRANCH  26  29
ATOM     29  O3* UNL     1       4.958   3.482  17.517  0.00  0.00    +0.000 OA
ATOM     30  H3* UNL     1       4.997   2.660  16.996  0.00  0.00    +0.000 HD
ENDBRANCH  26  29
BRANCH  22  31
ATOM     31  C5* UNL     1       1.403   2.708  18.463  0.00  0.00    +0.000 C 
BRANCH  31  32
ATOM     32  O5* UNL     1       1.871   1.411  18.813  0.00  0.00    +0.000 OA
ATOM     33  H5* UNL     1       1.556   1.229  19.716  0.00  0.00    +0.000 HD
ENDBRANCH  31  32
ENDBRANCH  22  31
ENDBRANCH   1  24
TORSDOF 6
ENDMDL
MODEL 7
REMARK VINA RESULT:      -7.3      1.243      1.742
REMARK  Name = 
REMARK  6 active torsions:
REMARK  status: ('A' for Active; 'I' for Inactive)
REMARK    1  A    between atoms: O5*_1  and  C5*_2
REMARK    2  A    between atoms: C5*_2  and  C4*_3
REMARK    3  A    between atoms: C1*_5  and  N_6
REMARK    4  A    between atoms: N_11  and  C_12
REMARK    5  A    between atoms: C2*_26  and  O2*_27
REMARK    6  A    between atoms: C3*_28  and  O3*_29
REMARK                            x       y       z     vdW  Elec       q    Type
REMARK                         _______ _______ _______ _____ _____    ______ ____
ROOT
ATOM      1  N   UNL     1       2.684   7.153  18.676  0.00  0.00    +0.000 N 
ATOM      2  C   UNL     1       2.769   8.144  17.704  0.00  0.00    +0.000 A 
ATOM      3  N   UNL     1       2.077   9.250  18.010  0.00  0.00    +0.000 NA
ATOM      4  C   UNL     1       1.522   9.014  19.289  0.00  0.00    +0.000 A 
ATOM      5  C   UNL     1       0.671   9.843  20.182  0.00  0.00    +0.000 A 
ATOM      6  N   UNL     1      -0.001  11.140  19.951  0.00  0.00    +0.000 N 
ATOM      7  N   UNL     1       0.362   9.222  21.356  0.00  0.00    +0.000 NA
ATOM      8  C   UNL     1       0.787   7.949  21.588  0.00  0.00    +0.000 A 
ATOM      9  N   UNL     1       1.533   7.108  20.823  0.00  0.00    +0.000 NA
ATOM     10  C   UNL     1       1.894   7.701  19.679  0.00  0.00    +0.000 A 
ATOM     11  H   UNL     1       0.295  11.427  19.017  0.00  0.00    +0.000 HD
ENDROOT
BRANCH   6  12
ATOM     12  C   UNL     1       0.245  12.278  20.983  0.00  0.00    +0.000 C 
ATOM     13  C   UNL     1       0.928  13.393  20.162  0.00  0.00    +0.000 C 
ATOM     14  C   UNL     1       1.080  14.808  20.713  0.00  0.00    +0.000 C 
ATOM     15  C   UNL     1       0.504  15.130  22.057  0.00  0.00    +0.000 C 
ATOM     16  C   UNL     1      -0.528  14.177  22.571  0.00  0.00    +0.000 A 
ATOM     17  C   UNL     1      -1.198  14.681  23.723  0.00  0.00    +0.000 A 
ATOM     18  C   UNL     1      -2.365  14.101  24.152  0.00  0.00    +0.000 A 
ATOM     19  C   UNL     1      -2.855  13.024  23.442  0.00  0.00    +0.000 A 
ATOM     20  C   UNL     1      -2.103  12.419  22.366  0.00  0.00    +0.000 A 
ATOM     21  C   UNL     1      -0.878  12.949  21.915  0.00  0.00    +0.000 A 
ENDBRANCH   6  12
BRANCH   1  24
ATOM     22  C4* UNL     1       2.646   3.590  19.100  0.00  0.00    +0.000 C 
ATOM     23  O4* UNL     1       2.210   4.814  18.457  0.00  0.00    +0.000 OA
ATOM     24  C1* UNL     1       3.273   5.808  18.500  0.00  0.00    +0.000 C 
ATOM     25  C2* UNL     1       4.372   5.241  19.438  0.00  0.00    +0.000 C 
ATOM     26  C3* UNL     1       4.136   3.720  19.391  0.00  0.00    +0.000 C 
BRANCH  25  27
ATOM     27  O2* UNL     1       5.707   5.494  18.968  0.00  0.00    +0.000 OA
ATOM     28  H2* UNL     1       6.024   6.272  19.482  0.00  0.00    +0.000 HD
ENDBRANCH  25  27
BRANCH  26  29
ATOM     29  O3* UNL     1       4.956   3.194  18.316  0.00  0.00    +0.000 OA
ATOM     30  H3* UNL     1       5.666   2.642  18.690  0.00  0.00    +0.000 HD
ENDBRANCH  26  29
BRANCH  22  31
ATOM     31  C5* UNL     1       1.803   3.357  20.357  0.00  0.00    +0.000 C 
BRANCH  31  32
ATOM     32  O5* UNL     1       0.612   4.136  20.327  0.00  0.00    +0.000 OA
ATOM     33  H5* UNL     1      -0.053   3.619  19.838  0.00  0.00    +0.000 HD
ENDBRANCH  31  32
ENDBRANCH  22  31
ENDBRANCH   1  24
TORSDOF 6
ENDMDL
MODEL 8
REMARK VINA RESULT:      -7.2      1.072      1.088
REMARK  Name = 
REMARK  6 active torsions:
REMARK  status: ('A' for Active; 'I' for Inactive)
REMARK    1  A    between atoms: O5*_1  and  C5*_2
REMARK    2  A    between atoms: C5*_2  and  C4*_3
REMARK    3  A    between atoms: C1*_5  and  N_6
REMARK    4  A    between atoms: N_11  and  C_12
REMARK    5  A    between atoms: C2*_26  and  O2*_27
REMARK    6  A    between atoms: C3*_28  and  O3*_29
REMARK                            x       y       z     vdW  Elec       q    Type
REMARK                         _______ _______ _______ _____ _____    ______ ____
ROOT
ATOM      1  N   UNL     1       3.228   6.114  18.427  0.00  0.00    +0.000 N 
ATOM      2  C   UNL     1       3.573   6.767  17.249  0.00  0.00    +0.000 A 
ATOM      3  N   UNL     1       3.065   8.003  17.156  0.00  0.00    +0.000 NA
ATOM      4  C   UNL     1       2.365   8.223  18.365  0.00  0.00    +0.000 A 
ATOM      5  C   UNL     1       1.600   9.386  18.885  0.00  0.00    +0.000 A 
ATOM      6  N   UNL     1       1.192  10.648  18.231  0.00  0.00    +0.000 N 
ATOM      7  N   UNL     1       1.081   9.174  20.128  0.00  0.00    +0.000 NA
ATOM      8  C   UNL     1       1.251   7.970  20.742  0.00  0.00    +0.000 A 
ATOM      9  N   UNL     1       1.900   6.848  20.334  0.00  0.00    +0.000 NA
ATOM     10  C   UNL     1       2.461   7.034  19.134  0.00  0.00    +0.000 A 
ATOM     11  H   UNL     1       1.616  10.613  17.303  0.00  0.00    +0.000 HD
ENDROOT
BRANCH   6  12
ATOM     12  C   UNL     1       1.543  11.982  18.949  0.00  0.00    +0.000 C 
ATOM     13  C   UNL     1       2.613  12.630  18.043  0.00  0.00    +0.000 C 
ATOM     14  C   UNL     1       3.024  14.089  18.216  0.00  0.00    +0.000 C 
ATOM     15  C   UNL     1       2.334  14.921  19.253  0.00  0.00    +0.000 C 
ATOM     16  C   UNL     1       1.024  14.395  19.746  0.00  0.00    +0.000 A 
ATOM     17  C   UNL     1       0.323  15.353  20.533  0.00  0.00    +0.000 A 
ATOM     18  C   UNL     1      -1.007  15.173  20.818  0.00  0.00    +0.000 A 
ATOM     19  C   UNL     1      -1.630  14.043  20.326  0.00  0.00    +0.000 A 
ATOM     20  C   UNL     1      -0.888  12.999  19.658  0.00  0.00    +0.000 A 
ATOM     21  C   UNL     1       0.488  13.115  19.380  0.00  0.00    +0.000 A 
ENDBRANCH   6  12
BRANCH   1  24
ATOM     22  C4* UNL     1       2.772   2.998  20.145  0.00  0.00    +0.000 C 
ATOM     23  O4* UNL     1       2.400   3.985  19.152  0.00  0.00    +0.000 OA
ATOM     24  C1* UNL     1       3.581   4.703  18.694  0.00  0.00    +0.000 C 
ATOM     25  C2* UNL     1       4.743   4.290  19.634  0.00  0.00    +0.000 C 
ATOM     26  C3* UNL     1       4.294   2.924  20.185  0.00  0.00    +0.000 C 
BRANCH  25  27
ATOM     27  O2* UNL     1       5.991   4.099  18.946  0.00  0.00    +0.000 OA
ATOM     28  H2* UNL     1       6.303   5.002  18.709  0.00  0.00    +0.000 HD
ENDBRANCH  25  27
BRANCH  26  29
ATOM     29  O3* UNL     1       4.821   1.910  19.291  0.00  0.00    +0.000 OA
ATOM     30  H3* UNL     1       4.250   1.844  18.504  0.00  0.00    +0.000 HD
ENDBRANCH  26  29
BRANCH  22  31
ATOM     31  C5* UNL     1       2.151   3.382  21.491  0.00  0.00    +0.000 C 
BRANCH  31  32
ATOM     32  O5* UNL     1       1.773   2.227  22.230  0.00  0.00    +0.000 OA
ATOM     33  H5* UNL     1       0.944   1.897  21.838  0.00  0.00    +0.000 HD
ENDBRANCH  31  32
ENDBRANCH  22  31
ENDBRANCH   1  24
TORSDOF 6
ENDMDL
MODEL 9
REMARK VINA RESULT:      -7.2      1.739      2.751
REMARK  Name = 
REMARK  6 active torsions:
REMARK  status: ('A' for Active; 'I' for Inactive)
REMARK    1  A    between atoms: O5*_1  and  C5*_2
REMARK    2  A    between atoms: C5*_2  and  C4*_3
REMARK    3  A    between atoms: C1*_5  and  N_6
REMARK    4  A    between atoms: N_11  and  C_12
REMARK    5  A    between atoms: C2*_26  and  O2*_27
REMARK    6  A    between atoms: C3*_28  and  O3*_29
REMARK                            x       y       z     vdW  Elec       q    Type
REMARK                         _______ _______ _______ _____ _____    ______ ____
ROOT
ATOM      1  N   UNL     1       3.175   6.793  18.826  0.00  0.00    +0.000 N 
ATOM      2  C   UNL     1       3.322   7.505  17.641  0.00  0.00    +0.000 A 
ATOM      3  N   UNL     1       2.528   8.581  17.564  0.00  0.00    +0.000 NA
ATOM      4  C   UNL     1       1.826   8.630  18.791  0.00  0.00    +0.000 A 
ATOM      5  C   UNL     1       0.816   9.575  19.332  0.00  0.00    +0.000 A 
ATOM      6  N   UNL     1       0.098  10.698  18.692  0.00  0.00    +0.000 N 
ATOM      7  N   UNL     1       0.396   9.249  20.588  0.00  0.00    +0.000 NA
ATOM      8  C   UNL     1       0.868   8.125  21.196  0.00  0.00    +0.000 A 
ATOM      9  N   UNL     1       1.759   7.192  20.769  0.00  0.00    +0.000 NA
ATOM     10  C   UNL     1       2.227   7.503  19.555  0.00  0.00    +0.000 A 
ATOM     11  H   UNL     1       0.494  10.763  17.753  0.00  0.00    +0.000 HD
ENDROOT
BRANCH   6  12
ATOM     12  C   UNL     1       0.134  12.081  19.404  0.00  0.00    +0.000 C 
ATOM     13  C   UNL     1       1.070  12.936  18.523  0.00  0.00    +0.000 C 
ATOM     14  C   UNL     1       1.157  14.450  18.690  0.00  0.00    +0.000 C 
ATOM     15  C   UNL     1       0.272  15.123  19.694  0.00  0.00    +0.000 C 
ATOM     16  C   UNL     1      -0.912  14.333  20.154  0.00  0.00    +0.000 A 
ATOM     17  C   UNL     1      -1.826  15.125  20.906  0.00  0.00    +0.000 A 
ATOM     18  C   UNL     1      -3.096  14.667  21.152  0.00  0.00    +0.000 A 
ATOM     19  C   UNL     1      -3.448  13.428  20.656  0.00  0.00    +0.000 A 
ATOM     20  C   UNL     1      -2.480  12.561  20.024  0.00  0.00    +0.000 A 
ATOM     21  C   UNL     1      -1.151  12.966  19.787  0.00  0.00    +0.000 A 
ENDBRANCH   6  12
BRANCH   1  24
ATOM     22  C4* UNL     1       5.940   4.542  18.423  0.00  0.00    +0.000 C 
ATOM     23  O4* UNL     1       5.306   5.711  19.001  0.00  0.00    +0.000 OA
ATOM     24  C1* UNL     1       3.866   5.511  19.081  0.00  0.00    +0.000 C 
ATOM     25  C2* UNL     1       3.554   4.215  18.287  0.00  0.00    +0.000 C 
ATOM     26  C3* UNL     1       4.887   3.446  18.314  0.00  0.00    +0.000 C 
BRANCH  25  27
ATOM     27  O2* UNL     1       2.557   3.390  18.913  0.00  0.00    +0.000 OA
ATOM     28  H2* UNL     1       2.267   3.887  19.712  0.00  0.00    +0.000 HD
ENDBRANCH  25  27
BRANCH  26  29
ATOM     29  O3* UNL     1       4.861   2.588  19.484  0.00  0.00    +0.000 OA
ATOM     30  H3* UNL     1       4.338   3.015  20.186  0.00  0.00    +0.000 HD
ENDBRANCH  26  29
BRANCH  22  31
ATOM     31  C5* UNL     1       6.558   4.923  17.075  0.00  0.00    +0.000 C 
BRANCH  31  32
ATOM     32  O5* UNL     1       7.893   4.441  16.969  0.00  0.00    +0.000 OA
ATOM     33  H5* UNL     1       7.841   3.470  16.918  0.00  0.00    +0.000 HD
ENDBRANCH  31  32
ENDBRANCH  22  31
ENDBRANCH   1  24
TORSDOF 6
ENDMDL
