MODEL 1
REMARK VINA RESULT:      -5.9      0.000      0.000
REMARK  Name = 
REMARK  20 active torsions:
REMARK  status: ('A' for Active; 'I' for Inactive)
REMARK    1  A    between atoms: C_1  and  C_2
REMARK    2  A    between atoms: C_2  and  C_3
REMARK    3  A    between atoms: C_3  and  C_4
REMARK    4  A    between atoms: C_4  and  O_5
REMARK    5  A    between atoms: O_5  and  C_6
REMARK    6  A    between atoms: C_9  and  O_10
REMARK    7  A    between atoms: O_10  and  C_11
REMARK    8  A    between atoms: C_11  and  C_12
REMARK    9  A    between atoms: C_12  and  C_13
REMARK   10  A    between atoms: C_13  and  C_14
REMARK   11  A    between atoms: C_14  and  C_15
REMARK   12  A    between atoms: C_15  and  C_16
REMARK   13  A    between atoms: C_16  and  C_17
REMARK   14  A    between atoms: C_17  and  C_18
REMARK   15  A    between atoms: C_18  and  C_19
REMARK   16  A    between atoms: C_19  and  C_20
REMARK   17  A    between atoms: C_20  and  N_21
REMARK   18  A    between atoms: N_21  and  C_22
REMARK   19  A    between atoms: N_21  and  C_23
REMARK   20  A    between atoms: N_21  and  C_24
REMARK                            x       y       z     vdW  Elec       q    Type
REMARK                         _______ _______ _______ _____ _____    ______ ____
ROOT
ATOM      1  C   UNL     1       1.388   7.272  20.922  0.00  0.00    +0.000 C 
ENDROOT
BRANCH   1   2
ATOM      2  C   UNL     1       2.099   6.200  20.115  0.00  0.00    +0.000 C 
BRANCH   2   3
ATOM      3  C   UNL     1       2.122   4.892  20.884  0.00  0.00    +0.000 C 
BRANCH   3   4
ATOM      4  C   UNL     1       0.992   3.985  20.426  0.00  0.00    +0.000 C 
BRANCH   4   5
ATOM      5  C   UNL     1       1.550   2.632  20.016  0.00  0.00    +0.000 C 
BRANCH   5   6
ATOM      6  C   UNL     1       1.305   2.385  18.536  0.00  0.00    +0.000 C 
BRANCH   6   7
ATOM      7  C   UNL     1       2.637   2.271  17.816  0.00  0.00    +0.000 C 
BRANCH   7   8
ATOM      8  C   UNL     1       3.187   3.644  17.445  0.00  0.00    +0.000 C 
BRANCH   8   9
ATOM      9  C   UNL     1       4.569   3.886  18.051  0.00  0.00    +0.000 C 
BRANCH   9  10
ATOM     10  C   UNL     1       4.973   5.361  17.982  0.00  0.00    +0.000 C 
BRANCH  10  11
ATOM     11  N   UNL     1       6.003   5.668  16.888  0.00  0.00    +0.000 N 
ATOM     12  C   UNL     1       6.885   4.461  16.606  0.00  0.00    +0.000 C 
ATOM     13  C   UNL     1       5.321   6.131  15.605  0.00  0.00    +0.000 C 
ATOM     14  C   UNL     1       6.889   6.810  17.397  0.00  0.00    +0.000 C 
ENDBRANCH  10  11
ENDBRANCH   9  10
ENDBRANCH   8   9
ENDBRANCH   7   8
ENDBRANCH   6   7
ENDBRANCH   5   6
ENDBRANCH   4   5
ENDBRANCH   3   4
ENDBRANCH   2   3
ENDBRANCH   1   2
BRANCH   1  15
ATOM     15  O   UNL     1       1.866   8.526  20.452  0.00  0.00    +0.000 OA
BRANCH  15  19
ATOM     16  C   UNL     1      -0.975  10.993  18.697  0.00  0.00    +0.000 A 
ATOM     17  C   UNL     1      -0.839  10.882  20.083  0.00  0.00    +0.000 A 
ATOM     18  C   UNL     1       0.124  10.042  20.627  0.00  0.00    +0.000 A 
ATOM     19  C   UNL     1       0.943   9.286  19.796  0.00  0.00    +0.000 A 
ATOM     20  C   UNL     1       0.814   9.385  18.410  0.00  0.00    +0.000 A 
ATOM     21  C   UNL     1      -0.144  10.243  17.866  0.00  0.00    +0.000 A 
BRANCH  16  22
ATOM     22  O   UNL     1      -1.877  11.808  18.058  0.00  0.00    +0.000 OA
BRANCH  22  23
ATOM     23  C   UNL     1      -3.243  11.507  18.338  0.00  0.00    +0.000 C 
BRANCH  23  24
ATOM     24  C   UNL     1      -3.785  10.487  17.345  0.00  0.00    +0.000 C 
BRANCH  24  26
ATOM     25  C   UNL     1      -2.926  10.118  14.998  0.00  0.00    +0.000 C 
ATOM     26  C   UNL     1      -3.673  11.053  15.929  0.00  0.00    +0.000 C 
ENDBRANCH  24  26
ENDBRANCH  23  24
ENDBRANCH  22  23
ENDBRANCH  16  22
ENDBRANCH  15  19
ENDBRANCH   1  15
TORSDOF 16
ENDMDL
MODEL 2
REMARK VINA RESULT:      -5.7      3.320      8.388
REMARK  Name = 
REMARK  20 active torsions:
REMARK  status: ('A' for Active; 'I' for Inactive)
REMARK    1  A    between atoms: C_1  and  C_2
REMARK    2  A    between atoms: C_2  and  C_3
REMARK    3  A    between atoms: C_3  and  C_4
REMARK    4  A    between atoms: C_4  and  O_5
REMARK    5  A    between atoms: O_5  and  C_6
REMARK    6  A    between atoms: C_9  and  O_10
REMARK    7  A    between atoms: O_10  and  C_11
REMARK    8  A    between atoms: C_11  and  C_12
REMARK    9  A    between atoms: C_12  and  C_13
REMARK   10  A    between atoms: C_13  and  C_14
REMARK   11  A    between atoms: C_14  and  C_15
REMARK   12  A    between atoms: C_15  and  C_16
REMARK   13  A    between atoms: C_16  and  C_17
REMARK   14  A    between atoms: C_17  and  C_18
REMARK   15  A    between atoms: C_18  and  C_19
REMARK   16  A    between atoms: C_19  and  C_20
REMARK   17  A    between atoms: C_20  and  N_21
REMARK   18  A    between atoms: N_21  and  C_22
REMARK   19  A    between atoms: N_21  and  C_23
REMARK   20  A    between atoms: N_21  and  C_24
REMARK                            x       y       z     vdW  Elec       q    Type
REMARK                         _______ _______ _______ _____ _____    ______ ____
ROOT
ATOM      1  C   UNL     1       1.061   2.592  18.891  0.00  0.00    +0.000 C 
ENDROOT
BRANCH   1   2
ATOM      2  C   UNL     1       0.938   3.157  20.295  0.00  0.00    +0.000 C 
BRANCH   2   3
ATOM      3  C   UNL     1       0.690   4.653  20.239  0.00  0.00    +0.000 C 
BRANCH   3   4
ATOM      4  C   UNL     1       1.943   5.417  20.635  0.00  0.00    +0.000 C 
BRANCH   4   5
ATOM      5  C   UNL     1       2.385   6.313  19.490  0.00  0.00    +0.000 C 
BRANCH   5   6
ATOM      6  C   UNL     1       1.925   7.743  19.727  0.00  0.00    +0.000 C 
BRANCH   6   7
ATOM      7  C   UNL     1       1.418   7.879  21.152  0.00  0.00    +0.000 C 
BRANCH   7   8
ATOM      8  C   UNL     1       0.389   8.998  21.272  0.00  0.00    +0.000 C 
BRANCH   8   9
ATOM      9  C   UNL     1       0.309   9.836  19.996  0.00  0.00    +0.000 C 
BRANCH   9  10
ATOM     10  C   UNL     1      -0.419  11.162  20.229  0.00  0.00    +0.000 C 
BRANCH  10  11
ATOM     11  N   UNL     1      -1.219  11.648  19.014  0.00  0.00    +0.000 N 
ATOM     12  C   UNL     1      -1.294  10.577  17.937  0.00  0.00    +0.000 C 
ATOM     13  C   UNL     1      -2.623  12.085  19.419  0.00  0.00    +0.000 C 
ATOM     14  C   UNL     1      -0.488  12.866  18.439  0.00  0.00    +0.000 C 
ENDBRANCH  10  11
ENDBRANCH   9  10
ENDBRANCH   8   9
ENDBRANCH   7   8
ENDBRANCH   6   7
ENDBRANCH   5   6
ENDBRANCH   4   5
ENDBRANCH   3   4
ENDBRANCH   2   3
ENDBRANCH   1   2
BRANCH   1  15
ATOM     15  O   UNL     1       2.331   1.956  18.813  0.00  0.00    +0.000 OA
BRANCH  15  19
ATOM     16  C   UNL     1       5.373   4.624  17.882  0.00  0.00    +0.000 A 
ATOM     17  C   UNL     1       4.338   4.333  16.990  0.00  0.00    +0.000 A 
ATOM     18  C   UNL     1       3.342   3.431  17.342  0.00  0.00    +0.000 A 
ATOM     19  C   UNL     1       3.381   2.792  18.576  0.00  0.00    +0.000 A 
ATOM     20  C   UNL     1       4.413   3.071  19.475  0.00  0.00    +0.000 A 
ATOM     21  C   UNL     1       5.403   3.991  19.124  0.00  0.00    +0.000 A 
BRANCH  16  22
ATOM     22  O   UNL     1       6.392   5.512  17.642  0.00  0.00    +0.000 OA
BRANCH  22  23
ATOM     23  C   UNL     1       6.524   5.903  16.277  0.00  0.00    +0.000 C 
BRANCH  23  24
ATOM     24  C   UNL     1       7.254   4.831  15.477  0.00  0.00    +0.000 C 
BRANCH  24  26
ATOM     25  C   UNL     1       6.004   3.667  13.616  0.00  0.00    +0.000 C 
ATOM     26  C   UNL     1       6.800   4.892  14.019  0.00  0.00    +0.000 C 
ENDBRANCH  24  26
ENDBRANCH  23  24
ENDBRANCH  22  23
ENDBRANCH  16  22
ENDBRANCH  15  19
ENDBRANCH   1  15
TORSDOF 16
ENDMDL
MODEL 3
REMARK VINA RESULT:      -5.7      3.458      8.344
REMARK  Name = 
REMARK  20 active torsions:
REMARK  status: ('A' for Active; 'I' for Inactive)
REMARK    1  A    between atoms: C_1  and  C_2
REMARK    2  A    between atoms: C_2  and  C_3
REMARK    3  A    between atoms: C_3  and  C_4
REMARK    4  A    between atoms: C_4  and  O_5
REMARK    5  A    between atoms: O_5  and  C_6
REMARK    6  A    between atoms: C_9  and  O_10
REMARK    7  A    between atoms: O_10  and  C_11
REMARK    8  A    between atoms: C_11  and  C_12
REMARK    9  A    between atoms: C_12  and  C_13
REMARK   10  A    between atoms: C_13  and  C_14
REMARK   11  A    between atoms: C_14  and  C_15
REMARK   12  A    between atoms: C_15  and  C_16
REMARK   13  A    between atoms: C_16  and  C_17
REMARK   14  A    between atoms: C_17  and  C_18
REMARK   15  A    between atoms: C_18  and  C_19
REMARK   16  A    between atoms: C_19  and  C_20
REMARK   17  A    between atoms: C_20  and  N_21
REMARK   18  A    between atoms: N_21  and  C_22
REMARK   19  A    between atoms: N_21  and  C_23
REMARK   20  A    between atoms: N_21  and  C_24
REMARK                            x       y       z     vdW  Elec       q    Type
REMARK                         _______ _______ _______ _____ _____    ______ ____
ROOT
ATOM      1  C   UNL     1       1.116   3.273  19.094  0.00  0.00    +0.000 C 
ENDROOT
BRANCH   1   2
ATOM      2  C   UNL     1       0.896   3.693  20.536  0.00  0.00    +0.000 C 
BRANCH   2   3
ATOM      3  C   UNL     1       1.871   4.791  20.918  0.00  0.00    +0.000 C 
BRANCH   3   4
ATOM      4  C   UNL     1       1.429   6.124  20.335  0.00  0.00    +0.000 C 
BRANCH   4   5
ATOM      5  C   UNL     1       2.638   6.893  19.830  0.00  0.00    +0.000 C 
BRANCH   5   6
ATOM      6  C   UNL     1       2.611   6.984  18.312  0.00  0.00    +0.000 C 
BRANCH   6   7
ATOM      7  C   UNL     1       1.561   7.995  17.887  0.00  0.00    +0.000 C 
BRANCH   7   8
ATOM      8  C   UNL     1       1.827   9.365  18.501  0.00  0.00    +0.000 C 
BRANCH   8   9
ATOM      9  C   UNL     1       0.681   9.813  19.409  0.00  0.00    +0.000 C 
BRANCH   9  10
ATOM     10  C   UNL     1      -0.376  10.612  18.641  0.00  0.00    +0.000 C 
BRANCH  10  11
ATOM     11  N   UNL     1      -0.719  11.960  19.288  0.00  0.00    +0.000 N 
ATOM     12  C   UNL     1      -2.195  12.040  19.647  0.00  0.00    +0.000 C 
ATOM     13  C   UNL     1       0.136  12.211  20.525  0.00  0.00    +0.000 C 
ATOM     14  C   UNL     1      -0.408  13.055  18.263  0.00  0.00    +0.000 C 
ENDBRANCH  10  11
ENDBRANCH   9  10
ENDBRANCH   8   9
ENDBRANCH   7   8
ENDBRANCH   6   7
ENDBRANCH   5   6
ENDBRANCH   4   5
ENDBRANCH   3   4
ENDBRANCH   2   3
ENDBRANCH   1   2
BRANCH   1  15
ATOM     15  O   UNL     1       2.305   2.494  19.068  0.00  0.00    +0.000 OA
BRANCH  15  19
ATOM     16  C   UNL     1       5.494   4.574  17.413  0.00  0.00    +0.000 A 
ATOM     17  C   UNL     1       4.319   4.323  16.702  0.00  0.00    +0.000 A 
ATOM     18  C   UNL     1       3.278   3.620  17.294  0.00  0.00    +0.000 A 
ATOM     19  C   UNL     1       3.407   3.139  18.592  0.00  0.00    +0.000 A 
ATOM     20  C   UNL     1       4.579   3.379  19.312  0.00  0.00    +0.000 A 
ATOM     21  C   UNL     1       5.617   4.101  18.719  0.00  0.00    +0.000 A 
BRANCH  16  22
ATOM     22  O   UNL     1       6.571   5.274  16.930  0.00  0.00    +0.000 OA
BRANCH  22  23
ATOM     23  C   UNL     1       7.712   5.264  17.787  0.00  0.00    +0.000 C 
BRANCH  23  24
ATOM     24  C   UNL     1       7.856   6.599  18.508  0.00  0.00    +0.000 C 
BRANCH  24  26
ATOM     25  C   UNL     1       8.222   9.043  17.987  0.00  0.00    +0.000 C 
ATOM     26  C   UNL     1       7.615   7.736  17.516  0.00  0.00    +0.000 C 
ENDBRANCH  24  26
ENDBRANCH  23  24
ENDBRANCH  22  23
ENDBRANCH  16  22
ENDBRANCH  15  19
ENDBRANCH   1  15
TORSDOF 16
ENDMDL
MODEL 4
REMARK VINA RESULT:      -5.6      5.821      9.719
REMARK  Name = 
REMARK  20 active torsions:
REMARK  status: ('A' for Active; 'I' for Inactive)
REMARK    1  A    between atoms: C_1  and  C_2
REMARK    2  A    between atoms: C_2  and  C_3
REMARK    3  A    between atoms: C_3  and  C_4
REMARK    4  A    between atoms: C_4  and  O_5
REMARK    5  A    between atoms: O_5  and  C_6
REMARK    6  A    between atoms: C_9  and  O_10
REMARK    7  A    between atoms: O_10  and  C_11
REMARK    8  A    between atoms: C_11  and  C_12
REMARK    9  A    between atoms: C_12  and  C_13
REMARK   10  A    between atoms: C_13  and  C_14
REMARK   11  A    between atoms: C_14  and  C_15
REMARK   12  A    between atoms: C_15  and  C_16
REMARK   13  A    between atoms: C_16  and  C_17
REMARK   14  A    between atoms: C_17  and  C_18
REMARK   15  A    between atoms: C_18  and  C_19
REMARK   16  A    between atoms: C_19  and  C_20
REMARK   17  A    between atoms: C_20  and  N_21
REMARK   18  A    between atoms: N_21  and  C_22
REMARK   19  A    between atoms: N_21  and  C_23
REMARK   20  A    between atoms: N_21  and  C_24
REMARK                            x       y       z     vdW  Elec       q    Type
REMARK                         _______ _______ _______ _____ _____    ______ ____
ROOT
ATOM      1  C   UNL     1       7.034   6.923  17.764  0.00  0.00    +0.000 C 
ENDROOT
BRANCH   1   2
ATOM      2  C   UNL     1       8.094   7.896  17.280  0.00  0.00    +0.000 C 
BRANCH   2   3
ATOM      3  C   UNL     1       7.938   9.234  17.979  0.00  0.00    +0.000 C 
BRANCH   3   4
ATOM      4  C   UNL     1       9.093   9.473  18.937  0.00  0.00    +0.000 C 
BRANCH   4   5
ATOM      5  C   UNL     1       9.308  10.966  19.123  0.00  0.00    +0.000 C 
BRANCH   5   6
ATOM      6  C   UNL     1       9.905  11.576  17.865  0.00  0.00    +0.000 C 
BRANCH   6   7
ATOM      7  C   UNL     1      11.412  11.680  18.021  0.00  0.00    +0.000 C 
BRANCH   7   8
ATOM      8  C   UNL     1      11.962  12.907  17.303  0.00  0.00    +0.000 C 
BRANCH   8   9
ATOM      9  C   UNL     1      10.945  14.047  17.264  0.00  0.00    +0.000 C 
BRANCH   9  10
ATOM     10  C   UNL     1      11.131  15.019  18.431  0.00  0.00    +0.000 C 
BRANCH  10  11
ATOM     11  N   UNL     1      10.197  16.235  18.377  0.00  0.00    +0.000 N 
ATOM     12  C   UNL     1       8.738  15.808  18.320  0.00  0.00    +0.000 C 
ATOM     13  C   UNL     1      10.427  17.159  19.568  0.00  0.00    +0.000 C 
ATOM     14  C   UNL     1      10.527  17.012  17.099  0.00  0.00    +0.000 C 
ENDBRANCH  10  11
ENDBRANCH   9  10
ENDBRANCH   8   9
ENDBRANCH   7   8
ENDBRANCH   6   7
ENDBRANCH   5   6
ENDBRANCH   4   5
ENDBRANCH   3   4
ENDBRANCH   2   3
ENDBRANCH   1   2
BRANCH   1  15
ATOM     15  O   UNL     1       5.954   6.998  16.841  0.00  0.00    +0.000 OA
BRANCH  15  19
ATOM     16  C   UNL     1       2.472   4.979  17.858  0.00  0.00    +0.000 A 
ATOM     17  C   UNL     1       2.634   6.347  18.088  0.00  0.00    +0.000 A 
ATOM     18  C   UNL     1       3.818   6.981  17.734  0.00  0.00    +0.000 A 
ATOM     19  C   UNL     1       4.861   6.255  17.171  0.00  0.00    +0.000 A 
ATOM     20  C   UNL     1       4.713   4.885  16.940  0.00  0.00    +0.000 A 
ATOM     21  C   UNL     1       3.515   4.254  17.281  0.00  0.00    +0.000 A 
BRANCH  16  22
ATOM     22  O   UNL     1       1.339   4.261  18.149  0.00  0.00    +0.000 OA
BRANCH  22  23
ATOM     23  C   UNL     1       1.578   3.040  18.847  0.00  0.00    +0.000 C 
BRANCH  23  24
ATOM     24  C   UNL     1       0.890   3.051  20.205  0.00  0.00    +0.000 C 
BRANCH  24  26
ATOM     25  C   UNL     1       3.332   2.738  20.770  0.00  0.00    +0.000 C 
ATOM     26  C   UNL     1       1.949   3.047  21.308  0.00  0.00    +0.000 C 
ENDBRANCH  24  26
ENDBRANCH  23  24
ENDBRANCH  22  23
ENDBRANCH  16  22
ENDBRANCH  15  19
ENDBRANCH   1  15
TORSDOF 16
ENDMDL
MODEL 5
REMARK VINA RESULT:      -5.6      3.616      8.335
REMARK  Name = 
REMARK  20 active torsions:
REMARK  status: ('A' for Active; 'I' for Inactive)
REMARK    1  A    between atoms: C_1  and  C_2
REMARK    2  A    between atoms: C_2  and  C_3
REMARK    3  A    between atoms: C_3  and  C_4
REMARK    4  A    between atoms: C_4  and  O_5
REMARK    5  A    between atoms: O_5  and  C_6
REMARK    6  A    between atoms: C_9  and  O_10
REMARK    7  A    between atoms: O_10  and  C_11
REMARK    8  A    between atoms: C_11  and  C_12
REMARK    9  A    between atoms: C_12  and  C_13
REMARK   10  A    between atoms: C_13  and  C_14
REMARK   11  A    between atoms: C_14  and  C_15
REMARK   12  A    between atoms: C_15  and  C_16
REMARK   13  A    between atoms: C_16  and  C_17
REMARK   14  A    between atoms: C_17  and  C_18
REMARK   15  A    between atoms: C_18  and  C_19
REMARK   16  A    between atoms: C_19  and  C_20
REMARK   17  A    between atoms: C_20  and  N_21
REMARK   18  A    between atoms: N_21  and  C_22
REMARK   19  A    between atoms: N_21  and  C_23
REMARK   20  A    between atoms: N_21  and  C_24
REMARK                            x       y       z     vdW  Elec       q    Type
REMARK                         _______ _______ _______ _____ _____    ______ ____
ROOT
ATOM      1  C   UNL     1       1.545   3.590  21.019  0.00  0.00    +0.000 C 
ENDROOT
BRANCH   1   2
ATOM      2  C   UNL     1       1.142   4.852  20.276  0.00  0.00    +0.000 C 
BRANCH   2   3
ATOM      3  C   UNL     1       1.522   6.079  21.083  0.00  0.00    +0.000 C 
BRANCH   3   4
ATOM      4  C   UNL     1       1.995   7.195  20.166  0.00  0.00    +0.000 C 
BRANCH   4   5
ATOM      5  C   UNL     1       2.942   6.634  19.118  0.00  0.00    +0.000 C 
BRANCH   5   6
ATOM      6  C   UNL     1       3.039   7.581  17.931  0.00  0.00    +0.000 C 
BRANCH   6   7
ATOM      7  C   UNL     1       1.730   8.333  17.778  0.00  0.00    +0.000 C 
BRANCH   7   8
ATOM      8  C   UNL     1       1.927   9.834  17.958  0.00  0.00    +0.000 C 
BRANCH   8   9
ATOM      9  C   UNL     1       0.723  10.489  18.635  0.00  0.00    +0.000 C 
BRANCH   9  10
ATOM     10  C   UNL     1       1.055  10.966  20.052  0.00  0.00    +0.000 C 
BRANCH  10  11
ATOM     11  N   UNL     1       0.457  12.336  20.397  0.00  0.00    +0.000 N 
ATOM     12  C   UNL     1      -0.462  12.832  19.291  0.00  0.00    +0.000 C 
ATOM     13  C   UNL     1      -0.296  12.289  21.722  0.00  0.00    +0.000 C 
ATOM     14  C   UNL     1       1.620  13.322  20.543  0.00  0.00    +0.000 C 
ENDBRANCH  10  11
ENDBRANCH   9  10
ENDBRANCH   8   9
ENDBRANCH   7   8
ENDBRANCH   6   7
ENDBRANCH   5   6
ENDBRANCH   4   5
ENDBRANCH   3   4
ENDBRANCH   2   3
ENDBRANCH   1   2
BRANCH   1  15
ATOM     15  O   UNL     1       1.886   2.623  20.033  0.00  0.00    +0.000 OA
BRANCH  15  19
ATOM     16  C   UNL     1       4.761   3.822  17.289  0.00  0.00    +0.000 A 
ATOM     17  C   UNL     1       3.433   3.590  16.923  0.00  0.00    +0.000 A 
ATOM     18  C   UNL     1       2.505   3.187  17.874  0.00  0.00    +0.000 A 
ATOM     19  C   UNL     1       2.896   2.987  19.193  0.00  0.00    +0.000 A 
ATOM     20  C   UNL     1       4.221   3.211  19.570  0.00  0.00    +0.000 A 
ATOM     21  C   UNL     1       5.149   3.633  18.615  0.00  0.00    +0.000 A 
BRANCH  16  22
ATOM     22  O   UNL     1       5.751   4.242  16.435  0.00  0.00    +0.000 OA
BRANCH  22  23
ATOM     23  C   UNL     1       6.892   4.800  17.084  0.00  0.00    +0.000 C 
BRANCH  23  24
ATOM     24  C   UNL     1       6.957   6.305  16.860  0.00  0.00    +0.000 C 
BRANCH  24  26
ATOM     25  C   UNL     1       7.954   5.988  19.159  0.00  0.00    +0.000 C 
ATOM     26  C   UNL     1       7.716   6.955  18.016  0.00  0.00    +0.000 C 
ENDBRANCH  24  26
ENDBRANCH  23  24
ENDBRANCH  22  23
ENDBRANCH  16  22
ENDBRANCH  15  19
ENDBRANCH   1  15
TORSDOF 16
ENDMDL
MODEL 6
REMARK VINA RESULT:      -5.6      2.489      3.035
REMARK  Name = 
REMARK  20 active torsions:
REMARK  status: ('A' for Active; 'I' for Inactive)
REMARK    1  A    between atoms: C_1  and  C_2
REMARK    2  A    between atoms: C_2  and  C_3
REMARK    3  A    between atoms: C_3  and  C_4
REMARK    4  A    between atoms: C_4  and  O_5
REMARK    5  A    between atoms: O_5  and  C_6
REMARK    6  A    between atoms: C_9  and  O_10
REMARK    7  A    between atoms: O_10  and  C_11
REMARK    8  A    between atoms: C_11  and  C_12
REMARK    9  A    between atoms: C_12  and  C_13
REMARK   10  A    between atoms: C_13  and  C_14
REMARK   11  A    between atoms: C_14  and  C_15
REMARK   12  A    between atoms: C_15  and  C_16
REMARK   13  A    between atoms: C_16  and  C_17
REMARK   14  A    between atoms: C_17  and  C_18
REMARK   15  A    between atoms: C_18  and  C_19
REMARK   16  A    between atoms: C_19  and  C_20
REMARK   17  A    between atoms: C_20  and  N_21
REMARK   18  A    between atoms: N_21  and  C_22
REMARK   19  A    between atoms: N_21  and  C_23
REMARK   20  A    between atoms: N_21  and  C_24
REMARK                            x       y       z     vdW  Elec       q    Type
REMARK                         _______ _______ _______ _____ _____    ______ ____
ROOT
ATOM      1  C   UNL     1       1.608   5.373  20.539  0.00  0.00    +0.000 C 
ENDROOT
BRANCH   1   2
ATOM      2  C   UNL     1       2.387   4.366  21.366  0.00  0.00    +0.000 C 
BRANCH   2   3
ATOM      3  C   UNL     1       2.164   2.964  20.832  0.00  0.00    +0.000 C 
BRANCH   3   4
ATOM      4  C   UNL     1       0.766   2.831  20.249  0.00  0.00    +0.000 C 
BRANCH   4   5
ATOM      5  C   UNL     1       0.853   2.395  18.796  0.00  0.00    +0.000 C 
BRANCH   5   6
ATOM      6  C   UNL     1       2.302   2.375  18.335  0.00  0.00    +0.000 C 
BRANCH   6   7
ATOM      7  C   UNL     1       2.544   3.532  17.382  0.00  0.00    +0.000 C 
BRANCH   7   8
ATOM      8  C   UNL     1       4.027   3.690  17.064  0.00  0.00    +0.000 C 
BRANCH   8   9
ATOM      9  C   UNL     1       4.827   4.138  18.288  0.00  0.00    +0.000 C 
BRANCH   9  10
ATOM     10  C   UNL     1       5.323   5.580  18.149  0.00  0.00    +0.000 C 
BRANCH  10  11
ATOM     11  N   UNL     1       6.851   5.702  18.085  0.00  0.00    +0.000 N 
ATOM     12  C   UNL     1       7.462   4.572  17.269  0.00  0.00    +0.000 C 
ATOM     13  C   UNL     1       7.271   7.050  17.510  0.00  0.00    +0.000 C 
ATOM     14  C   UNL     1       7.381   5.608  19.519  0.00  0.00    +0.000 C 
ENDBRANCH  10  11
ENDBRANCH   9  10
ENDBRANCH   8   9
ENDBRANCH   7   8
ENDBRANCH   6   7
ENDBRANCH   5   6
ENDBRANCH   4   5
ENDBRANCH   3   4
ENDBRANCH   2   3
ENDBRANCH   1   2
BRANCH   1  15
ATOM     15  O   UNL     1       2.565   6.188  19.874  0.00  0.00    +0.000 OA
BRANCH  15  19
ATOM     16  C   UNL     1       1.184  10.020  19.071  0.00  0.00    +0.000 A 
ATOM     17  C   UNL     1       0.972   9.394  20.301  0.00  0.00    +0.000 A 
ATOM     18  C   UNL     1       1.450   8.110  20.525  0.00  0.00    +0.000 A 
ATOM     19  C   UNL     1       2.121   7.426  19.518  0.00  0.00    +0.000 A 
ATOM     20  C   UNL     1       2.335   8.039  18.282  0.00  0.00    +0.000 A 
ATOM     21  C   UNL     1       1.868   9.337  18.065  0.00  0.00    +0.000 A 
BRANCH  16  22
ATOM     22  O   UNL     1       0.773  11.291  18.753  0.00  0.00    +0.000 OA
BRANCH  22  23
ATOM     23  C   UNL     1       1.802  12.128  18.228  0.00  0.00    +0.000 C 
BRANCH  23  24
ATOM     24  C   UNL     1       1.698  13.535  18.803  0.00  0.00    +0.000 C 
BRANCH  24  26
ATOM     25  C   UNL     1      -0.019  15.229  19.555  0.00  0.00    +0.000 C 
ATOM     26  C   UNL     1       0.282  13.760  19.333  0.00  0.00    +0.000 C 
ENDBRANCH  24  26
ENDBRANCH  23  24
ENDBRANCH  22  23
ENDBRANCH  16  22
ENDBRANCH  15  19
ENDBRANCH   1  15
TORSDOF 16
ENDMDL
MODEL 7
REMARK VINA RESULT:      -5.6      1.299      1.976
REMARK  Name = 
REMARK  20 active torsions:
REMARK  status: ('A' for Active; 'I' for Inactive)
REMARK    1  A    between atoms: C_1  and  C_2
REMARK    2  A    between atoms: C_2  and  C_3
REMARK    3  A    between atoms: C_3  and  C_4
REMARK    4  A    between atoms: C_4  and  O_5
REMARK    5  A    between atoms: O_5  and  C_6
REMARK    6  A    between atoms: C_9  and  O_10
REMARK    7  A    between atoms: O_10  and  C_11
REMARK    8  A    between atoms: C_11  and  C_12
REMARK    9  A    between atoms: C_12  and  C_13
REMARK   10  A    between atoms: C_13  and  C_14
REMARK   11  A    between atoms: C_14  and  C_15
REMARK   12  A    between atoms: C_15  and  C_16
REMARK   13  A    between atoms: C_16  and  C_17
REMARK   14  A    between atoms: C_17  and  C_18
REMARK   15  A    between atoms: C_18  and  C_19
REMARK   16  A    between atoms: C_19  and  C_20
REMARK   17  A    between atoms: C_20  and  N_21
REMARK   18  A    between atoms: N_21  and  C_22
REMARK   19  A    between atoms: N_21  and  C_23
REMARK   20  A    between atoms: N_21  and  C_24
REMARK                            x       y       z     vdW  Elec       q    Type
REMARK                         _______ _______ _______ _____ _____    ______ ____
ROOT
ATOM      1  C   UNL     1       1.586   5.478  20.446  0.00  0.00    +0.000 C 
ENDROOT
BRANCH   1   2
ATOM      2  C   UNL     1       2.389   4.350  21.070  0.00  0.00    +0.000 C 
BRANCH   2   3
ATOM      3  C   UNL     1       1.637   3.038  20.942  0.00  0.00    +0.000 C 
BRANCH   3   4
ATOM      4  C   UNL     1       0.589   3.128  19.844  0.00  0.00    +0.000 C 
BRANCH   4   5
ATOM      5  C   UNL     1       1.207   2.745  18.509  0.00  0.00    +0.000 C 
BRANCH   5   6
ATOM      6  C   UNL     1       2.407   1.835  18.722  0.00  0.00    +0.000 C 
BRANCH   6   7
ATOM      7  C   UNL     1       3.509   2.218  17.751  0.00  0.00    +0.000 C 
BRANCH   7   8
ATOM      8  C   UNL     1       3.276   3.606  17.165  0.00  0.00    +0.000 C 
BRANCH   8   9
ATOM      9  C   UNL     1       4.125   4.669  17.864  0.00  0.00    +0.000 C 
BRANCH   9  10
ATOM     10  C   UNL     1       5.620   4.465  17.607  0.00  0.00    +0.000 C 
BRANCH  10  11
ATOM     11  N   UNL     1       6.244   5.543  16.712  0.00  0.00    +0.000 N 
ATOM     12  C   UNL     1       5.193   6.520  16.209  0.00  0.00    +0.000 C 
ATOM     13  C   UNL     1       7.350   6.294  17.446  0.00  0.00    +0.000 C 
ATOM     14  C   UNL     1       6.868   4.834  15.505  0.00  0.00    +0.000 C 
ENDBRANCH  10  11
ENDBRANCH   9  10
ENDBRANCH   8   9
ENDBRANCH   7   8
ENDBRANCH   6   7
ENDBRANCH   5   6
ENDBRANCH   4   5
ENDBRANCH   3   4
ENDBRANCH   2   3
ENDBRANCH   1   2
BRANCH   1  15
ATOM     15  O   UNL     1       2.148   6.695  20.922  0.00  0.00    +0.000 OA
BRANCH  15  19
ATOM     16  C   UNL     1       0.981  10.222  19.069  0.00  0.00    +0.000 A 
ATOM     17  C   UNL     1       0.671   9.943  20.402  0.00  0.00    +0.000 A 
ATOM     18  C   UNL     1       1.079   8.748  20.981  0.00  0.00    +0.000 A 
ATOM     19  C   UNL     1       1.779   7.810  20.231  0.00  0.00    +0.000 A 
ATOM     20  C   UNL     1       2.091   8.075  18.896  0.00  0.00    +0.000 A 
ATOM     21  C   UNL     1       1.694   9.285  18.322  0.00  0.00    +0.000 A 
BRANCH  16  22
ATOM     22  O   UNL     1       0.645  11.378  18.408  0.00  0.00    +0.000 OA
BRANCH  22  23
ATOM     23  C   UNL     1      -0.594  11.952  18.819  0.00  0.00    +0.000 C 
BRANCH  23  24
ATOM     24  C   UNL     1      -1.683  11.676  17.790  0.00  0.00    +0.000 C 
BRANCH  24  26
ATOM     25  C   UNL     1      -3.286   9.737  17.553  0.00  0.00    +0.000 C 
ATOM     26  C   UNL     1      -1.833  10.166  17.606  0.00  0.00    +0.000 C 
ENDBRANCH  24  26
ENDBRANCH  23  24
ENDBRANCH  22  23
ENDBRANCH  16  22
ENDBRANCH  15  19
ENDBRANCH   1  15
TORSDOF 16
ENDMDL
MODEL 8
REMARK VINA RESULT:      -5.6      5.036      8.972
REMARK  Name = 
REMARK  20 active torsions:
REMARK  status: ('A' for Active; 'I' for Inactive)
REMARK    1  A    between atoms: C_1  and  C_2
REMARK    2  A    between atoms: C_2  and  C_3
REMARK    3  A    between atoms: C_3  and  C_4
REMARK    4  A    between atoms: C_4  and  O_5
REMARK    5  A    between atoms: O_5  and  C_6
REMARK    6  A    between atoms: C_9  and  O_10
REMARK    7  A    between atoms: O_10  and  C_11
REMARK    8  A    between atoms: C_11  and  C_12
REMARK    9  A    between atoms: C_12  and  C_13
REMARK   10  A    between atoms: C_13  and  C_14
REMARK   11  A    between atoms: C_14  and  C_15
REMARK   12  A    between atoms: C_15  and  C_16
REMARK   13  A    between atoms: C_16  and  C_17
REMARK   14  A    between atoms: C_17  and  C_18
REMARK   15  A    between atoms: C_18  and  C_19
REMARK   16  A    between atoms: C_19  and  C_20
REMARK   17  A    between atoms: C_20  and  N_21
REMARK   18  A    between atoms: N_21  and  C_22
REMARK   19  A    between atoms: N_21  and  C_23
REMARK   20  A    between atoms: N_21  and  C_24
REMARK                            x       y       z     vdW  Elec       q    Type
REMARK                         _______ _______ _______ _____ _____    ______ ____
ROOT
ATOM      1  C   UNL     1       5.373   5.824  16.108  0.00  0.00    +0.000 C 
ENDROOT
BRANCH   1   2
ATOM      2  C   UNL     1       6.551   6.758  16.321  0.00  0.00    +0.000 C 
BRANCH   2   3
ATOM      3  C   UNL     1       6.657   7.143  17.785  0.00  0.00    +0.000 C 
BRANCH   3   4
ATOM      4  C   UNL     1       8.045   7.679  18.097  0.00  0.00    +0.000 C 
BRANCH   4   5
ATOM      5  C   UNL     1       8.068   9.188  17.918  0.00  0.00    +0.000 C 
BRANCH   5   6
ATOM      6  C   UNL     1       9.119   9.812  18.823  0.00  0.00    +0.000 C 
BRANCH   6   7
ATOM      7  C   UNL     1       9.628  11.096  18.192  0.00  0.00    +0.000 C 
BRANCH   7   8
ATOM      8  C   UNL     1      10.974  11.508  18.778  0.00  0.00    +0.000 C 
BRANCH   8   9
ATOM      9  C   UNL     1      10.893  11.731  20.289  0.00  0.00    +0.000 C 
BRANCH   9  10
ATOM     10  C   UNL     1      10.600  13.193  20.635  0.00  0.00    +0.000 C 
BRANCH  10  11
ATOM     11  N   UNL     1       9.194  13.421  21.205  0.00  0.00    +0.000 N 
ATOM     12  C   UNL     1       8.258  13.997  20.154  0.00  0.00    +0.000 C 
ATOM     13  C   UNL     1       8.615  12.129  21.773  0.00  0.00    +0.000 C 
ATOM     14  C   UNL     1       9.321  14.430  22.351  0.00  0.00    +0.000 C 
ENDBRANCH  10  11
ENDBRANCH   9  10
ENDBRANCH   8   9
ENDBRANCH   7   8
ENDBRANCH   6   7
ENDBRANCH   5   6
ENDBRANCH   4   5
ENDBRANCH   3   4
ENDBRANCH   2   3
ENDBRANCH   1   2
BRANCH   1  15
ATOM     15  O   UNL     1       5.754   4.555  16.626  0.00  0.00    +0.000 OA
BRANCH  15  19
ATOM     16  C   UNL     1       2.947   2.675  19.038  0.00  0.00    +0.000 A 
ATOM     17  C   UNL     1       4.209   3.041  19.511  0.00  0.00    +0.000 A 
ATOM     18  C   UNL     1       5.118   3.666  18.667  0.00  0.00    +0.000 A 
ATOM     19  C   UNL     1       4.789   3.909  17.339  0.00  0.00    +0.000 A 
ATOM     20  C   UNL     1       3.532   3.543  16.853  0.00  0.00    +0.000 A 
ATOM     21  C   UNL     1       2.613   2.931  17.708  0.00  0.00    +0.000 A 
BRANCH  16  22
ATOM     22  O   UNL     1       1.969   2.073  19.791  0.00  0.00    +0.000 OA
BRANCH  22  23
ATOM     23  C   UNL     1       1.503   2.858  20.887  0.00  0.00    +0.000 C 
BRANCH  23  24
ATOM     24  C   UNL     1       0.894   4.165  20.394  0.00  0.00    +0.000 C 
BRANCH  24  26
ATOM     25  C   UNL     1       2.271   6.207  19.836  0.00  0.00    +0.000 C 
ATOM     26  C   UNL     1       1.706   5.338  20.941  0.00  0.00    +0.000 C 
ENDBRANCH  24  26
ENDBRANCH  23  24
ENDBRANCH  22  23
ENDBRANCH  16  22
ENDBRANCH  15  19
ENDBRANCH   1  15
TORSDOF 16
ENDMDL
MODEL 9
REMARK VINA RESULT:      -5.6      0.984      1.612
REMARK  Name = 
REMARK  20 active torsions:
REMARK  status: ('A' for Active; 'I' for Inactive)
REMARK    1  A    between atoms: C_1  and  C_2
REMARK    2  A    between atoms: C_2  and  C_3
REMARK    3  A    between atoms: C_3  and  C_4
REMARK    4  A    between atoms: C_4  and  O_5
REMARK    5  A    between atoms: O_5  and  C_6
REMARK    6  A    between atoms: C_9  and  O_10
REMARK    7  A    between atoms: O_10  and  C_11
REMARK    8  A    between atoms: C_11  and  C_12
REMARK    9  A    between atoms: C_12  and  C_13
REMARK   10  A    between atoms: C_13  and  C_14
REMARK   11  A    between atoms: C_14  and  C_15
REMARK   12  A    between atoms: C_15  and  C_16
REMARK   13  A    between atoms: C_16  and  C_17
REMARK   14  A    between atoms: C_17  and  C_18
REMARK   15  A    between atoms: C_18  and  C_19
REMARK   16  A    between atoms: C_19  and  C_20
REMARK   17  A    between atoms: C_20  and  N_21
REMARK   18  A    between atoms: N_21  and  C_22
REMARK   19  A    between atoms: N_21  and  C_23
REMARK   20  A    between atoms: N_21  and  C_24
REMARK                            x       y       z     vdW  Elec       q    Type
REMARK                         _______ _______ _______ _____ _____    ______ ____
ROOT
ATOM      1  C   UNL     1       2.205   5.924  19.443  0.00  0.00    +0.000 C 
ENDROOT
BRANCH   1   2
ATOM      2  C   UNL     1       1.999   5.059  20.673  0.00  0.00    +0.000 C 
BRANCH   2   3
ATOM      3  C   UNL     1       0.863   4.079  20.442  0.00  0.00    +0.000 C 
BRANCH   3   4
ATOM      4  C   UNL     1       1.406   2.675  20.230  0.00  0.00    +0.000 C 
BRANCH   4   5
ATOM      5  C   UNL     1       1.418   2.346  18.746  0.00  0.00    +0.000 C 
BRANCH   5   6
ATOM      6  C   UNL     1       2.682   1.582  18.383  0.00  0.00    +0.000 C 
BRANCH   6   7
ATOM      7  C   UNL     1       3.888   2.304  18.956  0.00  0.00    +0.000 C 
BRANCH   7   8
ATOM      8  C   UNL     1       4.293   3.488  18.085  0.00  0.00    +0.000 C 
BRANCH   8   9
ATOM      9  C   UNL     1       5.607   4.116  18.552  0.00  0.00    +0.000 C 
BRANCH   9  10
ATOM     10  C   UNL     1       5.604   5.637  18.384  0.00  0.00    +0.000 C 
BRANCH  10  11
ATOM     11  N   UNL     1       6.285   6.116  17.095  0.00  0.00    +0.000 N 
ATOM     12  C   UNL     1       7.223   7.282  17.367  0.00  0.00    +0.000 C 
ATOM     13  C   UNL     1       7.043   4.979  16.418  0.00  0.00    +0.000 C 
ATOM     14  C   UNL     1       5.183   6.590  16.142  0.00  0.00    +0.000 C 
ENDBRANCH  10  11
ENDBRANCH   9  10
ENDBRANCH   8   9
ENDBRANCH   7   8
ENDBRANCH   6   7
ENDBRANCH   5   6
ENDBRANCH   4   5
ENDBRANCH   3   4
ENDBRANCH   2   3
ENDBRANCH   1   2
BRANCH   1  15
ATOM     15  O   UNL     1       2.612   7.207  19.904  0.00  0.00    +0.000 OA
BRANCH  15  19
ATOM     16  C   UNL     1      -0.034  10.349  19.303  0.00  0.00    +0.000 A 
ATOM     17  C   UNL     1       0.068   9.685  20.528  0.00  0.00    +0.000 A 
ATOM     18  C   UNL     1       0.966   8.637  20.683  0.00  0.00    +0.000 A 
ATOM     19  C   UNL     1       1.752   8.223  19.614  0.00  0.00    +0.000 A 
ATOM     20  C   UNL     1       1.655   8.876  18.383  0.00  0.00    +0.000 A 
ATOM     21  C   UNL     1       0.764   9.941  18.235  0.00  0.00    +0.000 A 
BRANCH  16  22
ATOM     22  O   UNL     1      -0.870  11.408  19.050  0.00  0.00    +0.000 OA
BRANCH  22  23
ATOM     23  C   UNL     1      -1.625  11.287  17.845  0.00  0.00    +0.000 C 
BRANCH  23  24
ATOM     24  C   UNL     1      -2.629  10.146  17.950  0.00  0.00    +0.000 C 
BRANCH  24  26
ATOM     25  C   UNL     1      -4.331  11.393  16.561  0.00  0.00    +0.000 C 
ATOM     26  C   UNL     1      -3.505  10.129  16.698  0.00  0.00    +0.000 C 
ENDBRANCH  24  26
ENDBRANCH  23  24
ENDBRANCH  22  23
ENDBRANCH  16  22
ENDBRANCH  15  19
ENDBRANCH   1  15
TORSDOF 16
ENDMDL
