MODEL 1
REMARK VINA RESULT:      -8.4      0.000      0.000
REMARK  Name = 
REMARK  13 active torsions:
REMARK  status: ('A' for Active; 'I' for Inactive)
REMARK    1  A    between atoms: C_1  and  C_2
REMARK    2  A    between atoms: C_2  and  C_3
REMARK    3  A    between atoms: C_2  and  C_31
REMARK    4  A    between atoms: C_3  and  C_4
REMARK    5  A    between atoms: C_4  and  C_5
REMARK    6  A    between atoms: C_5  and  C_6
REMARK    7  A    between atoms: C_6  and  C_7
REMARK    8  A    between atoms: C_6  and  C_8
REMARK    9  A    between atoms: C_11  and  C_12
REMARK   10  A    between atoms: C_17  and  C_18
REMARK   11  A    between atoms: C_17  and  C_19
REMARK   12  A    between atoms: C_29  and  C_30
REMARK   13  A    between atoms: C_31  and  O_33
REMARK                            x       y       z     vdW  Elec       q    Type
REMARK                         _______ _______ _______ _____ _____    ______ ____
ROOT
ATOM      1  C   UNL     1       0.872  10.136  18.676  0.00  0.00    +0.000 C 
ATOM      2  C   UNL     1      -0.367   9.736  17.833  0.00  0.00    +0.000 C 
ATOM      3  C   UNL     1      -1.584  10.424  18.466  0.00  0.00    +0.000 C 
ATOM      4  C   UNL     1      -1.001  11.506  19.392  0.00  0.00    +0.000 C 
ATOM      5  C   UNL     1      -0.709  12.747  18.493  0.00  0.00    +0.000 C 
ATOM      6  C   UNL     1      -1.912  11.871  20.587  0.00  0.00    +0.000 C 
ATOM      7  C   UNL     1      -3.184  12.633  20.224  0.00  0.00    +0.000 C 
ATOM      8  C   UNL     1      -4.041  12.804  21.477  0.00  0.00    +0.000 C 
ATOM      9  C   UNL     1      -3.362  13.780  22.447  0.00  0.00    +0.000 C 
ATOM     10  C   UNL     1      -4.142  14.049  23.767  0.00  0.00    +0.000 C 
ATOM     11  C   UNL     1      -4.273  12.825  24.686  0.00  0.00    +0.000 C 
ATOM     12  C   UNL     1      -5.559  14.561  23.448  0.00  0.00    +0.000 C 
ATOM     13  C   UNL     1      -3.377  15.140  24.534  0.00  0.00    +0.000 C 
ATOM     14  O   UNL     1      -3.938  16.107  25.046  0.00  0.00    +0.000 OA
ATOM     15  C   UNL     1      -1.885  14.940  24.741  0.00  0.00    +0.000 C 
ATOM     16  C   UNL     1      -1.189  14.586  23.437  0.00  0.00    +0.000 C 
ATOM     17  C   UNL     1      -1.896  13.438  22.738  0.00  0.00    +0.000 C 
ATOM     18  C   UNL     1      -1.486  12.047  23.135  0.00  0.00    +0.000 C 
ATOM     19  C   UNL     1      -1.127  12.548  21.742  0.00  0.00    +0.000 C 
ATOM     20  C   UNL     1       0.348  12.867  21.493  0.00  0.00    +0.000 C 
ATOM     21  C   UNL     1       1.143  11.858  20.648  0.00  0.00    +0.000 C 
ATOM     22  C   UNL     1       0.275  10.790  19.961  0.00  0.00    +0.000 C 
ATOM     23  C   UNL     1      -0.032   9.688  21.015  0.00  0.00    +0.000 C 
ENDROOT
BRANCH   1  24
ATOM     24  C   UNL     1       1.953   9.021  18.777  0.00  0.00    +0.000 C 
ATOM     25  C   UNL     1       2.411   8.380  17.453  0.00  0.00    +0.000 C 
BRANCH  24  26
ATOM     26  C   UNL     1       1.522   7.961  19.814  0.00  0.00    +0.000 C 
BRANCH  26  27
ATOM     27  C   UNL     1       2.427   6.740  19.839  0.00  0.00    +0.000 C 
BRANCH  27  28
ATOM     28  C   UNL     1       1.881   5.645  20.759  0.00  0.00    +0.000 C 
BRANCH  28  30
ATOM     29  C   UNL     1       2.395   4.073  18.826  0.00  0.00    +0.000 C 
ATOM     30  C   UNL     1       2.397   4.258  20.346  0.00  0.00    +0.000 C 
BRANCH  30  31
ATOM     31  C   UNL     1       1.552   3.170  20.985  0.00  0.00    +0.000 C 
ATOM     32  O   UNL     1       1.881   2.513  21.956  0.00  0.00    +0.000 OA
BRANCH  31  33
ATOM     33  O   UNL     1       0.365   2.980  20.360  0.00  0.00    +0.000 OA
ATOM     34  H   UNL     1      -0.338   2.615  20.930  0.00  0.00    +0.000 HD
ENDBRANCH  31  33
ENDBRANCH  30  31
ENDBRANCH  28  30
ENDBRANCH  27  28
ENDBRANCH  26  27
ENDBRANCH  24  26
ENDBRANCH   1  24
TORSDOF 7
ENDMDL
MODEL 2
REMARK VINA RESULT:      -8.1      0.962      1.115
REMARK  Name = 
REMARK  13 active torsions:
REMARK  status: ('A' for Active; 'I' for Inactive)
REMARK    1  A    between atoms: C_1  and  C_2
REMARK    2  A    between atoms: C_2  and  C_3
REMARK    3  A    between atoms: C_2  and  C_31
REMARK    4  A    between atoms: C_3  and  C_4
REMARK    5  A    between atoms: C_4  and  C_5
REMARK    6  A    between atoms: C_5  and  C_6
REMARK    7  A    between atoms: C_6  and  C_7
REMARK    8  A    between atoms: C_6  and  C_8
REMARK    9  A    between atoms: C_11  and  C_12
REMARK   10  A    between atoms: C_17  and  C_18
REMARK   11  A    between atoms: C_17  and  C_19
REMARK   12  A    between atoms: C_29  and  C_30
REMARK   13  A    between atoms: C_31  and  O_33
REMARK                            x       y       z     vdW  Elec       q    Type
REMARK                         _______ _______ _______ _____ _____    ______ ____
ROOT
ATOM      1  C   UNL     1       0.879  10.157  18.703  0.00  0.00    +0.000 C 
ATOM      2  C   UNL     1      -0.356   9.739  17.864  0.00  0.00    +0.000 C 
ATOM      3  C   UNL     1      -1.580  10.415  18.496  0.00  0.00    +0.000 C 
ATOM      4  C   UNL     1      -1.009  11.507  19.417  0.00  0.00    +0.000 C 
ATOM      5  C   UNL     1      -0.733  12.748  18.512  0.00  0.00    +0.000 C 
ATOM      6  C   UNL     1      -1.923  11.867  20.611  0.00  0.00    +0.000 C 
ATOM      7  C   UNL     1      -3.204  12.612  20.247  0.00  0.00    +0.000 C 
ATOM      8  C   UNL     1      -4.062  12.778  21.501  0.00  0.00    +0.000 C 
ATOM      9  C   UNL     1      -3.392  13.767  22.466  0.00  0.00    +0.000 C 
ATOM     10  C   UNL     1      -4.174  14.032  23.785  0.00  0.00    +0.000 C 
ATOM     11  C   UNL     1      -4.289  12.810  24.710  0.00  0.00    +0.000 C 
ATOM     12  C   UNL     1      -5.598  14.526  23.466  0.00  0.00    +0.000 C 
ATOM     13  C   UNL     1      -3.421  15.135  24.547  0.00  0.00    +0.000 C 
ATOM     14  O   UNL     1      -3.993  16.097  25.056  0.00  0.00    +0.000 OA
ATOM     15  C   UNL     1      -1.926  14.953  24.752  0.00  0.00    +0.000 C 
ATOM     16  C   UNL     1      -1.228  14.603  23.449  0.00  0.00    +0.000 C 
ATOM     17  C   UNL     1      -1.922  13.443  22.755  0.00  0.00    +0.000 C 
ATOM     18  C   UNL     1      -1.495  12.058  23.158  0.00  0.00    +0.000 C 
ATOM     19  C   UNL     1      -1.144  12.557  21.762  0.00  0.00    +0.000 C 
ATOM     20  C   UNL     1       0.326  12.893  21.510  0.00  0.00    +0.000 C 
ATOM     21  C   UNL     1       1.132  11.890  20.668  0.00  0.00    +0.000 C 
ATOM     22  C   UNL     1       0.276  10.809  19.986  0.00  0.00    +0.000 C 
ATOM     23  C   UNL     1      -0.017   9.708  21.046  0.00  0.00    +0.000 C 
ENDROOT
BRANCH   1  24
ATOM     24  C   UNL     1       1.973   9.055  18.808  0.00  0.00    +0.000 C 
ATOM     25  C   UNL     1       2.436   8.414  17.486  0.00  0.00    +0.000 C 
BRANCH  24  26
ATOM     26  C   UNL     1       1.557   7.995  19.850  0.00  0.00    +0.000 C 
BRANCH  26  27
ATOM     27  C   UNL     1       2.478   6.786  19.881  0.00  0.00    +0.000 C 
BRANCH  27  28
ATOM     28  C   UNL     1       1.794   5.565  20.502  0.00  0.00    +0.000 C 
BRANCH  28  30
ATOM     29  C   UNL     1       0.905   3.221  20.067  0.00  0.00    +0.000 C 
ATOM     30  C   UNL     1       1.579   4.455  19.461  0.00  0.00    +0.000 C 
BRANCH  30  31
ATOM     31  C   UNL     1       2.905   4.049  18.842  0.00  0.00    +0.000 C 
ATOM     32  O   UNL     1       3.865   3.633  19.464  0.00  0.00    +0.000 OA
BRANCH  31  33
ATOM     33  O   UNL     1       2.934   4.200  17.496  0.00  0.00    +0.000 OA
ATOM     34  H   UNL     1       3.696   3.777  17.058  0.00  0.00    +0.000 HD
ENDBRANCH  31  33
ENDBRANCH  30  31
ENDBRANCH  28  30
ENDBRANCH  27  28
ENDBRANCH  26  27
ENDBRANCH  24  26
ENDBRANCH   1  24
TORSDOF 7
ENDMDL
MODEL 3
REMARK VINA RESULT:      -8.1      0.825      1.119
REMARK  Name = 
REMARK  13 active torsions:
REMARK  status: ('A' for Active; 'I' for Inactive)
REMARK    1  A    between atoms: C_1  and  C_2
REMARK    2  A    between atoms: C_2  and  C_3
REMARK    3  A    between atoms: C_2  and  C_31
REMARK    4  A    between atoms: C_3  and  C_4
REMARK    5  A    between atoms: C_4  and  C_5
REMARK    6  A    between atoms: C_5  and  C_6
REMARK    7  A    between atoms: C_6  and  C_7
REMARK    8  A    between atoms: C_6  and  C_8
REMARK    9  A    between atoms: C_11  and  C_12
REMARK   10  A    between atoms: C_17  and  C_18
REMARK   11  A    between atoms: C_17  and  C_19
REMARK   12  A    between atoms: C_29  and  C_30
REMARK   13  A    between atoms: C_31  and  O_33
REMARK                            x       y       z     vdW  Elec       q    Type
REMARK                         _______ _______ _______ _____ _____    ______ ____
ROOT
ATOM      1  C   UNL     1       0.866  10.036  18.712  0.00  0.00    +0.000 C 
ATOM      2  C   UNL     1      -0.374   9.645  17.867  0.00  0.00    +0.000 C 
ATOM      3  C   UNL     1      -1.586  10.349  18.493  0.00  0.00    +0.000 C 
ATOM      4  C   UNL     1      -0.995  11.429  19.415  0.00  0.00    +0.000 C 
ATOM      5  C   UNL     1      -0.686  12.662  18.511  0.00  0.00    +0.000 C 
ATOM      6  C   UNL     1      -1.906  11.811  20.604  0.00  0.00    +0.000 C 
ATOM      7  C   UNL     1      -3.168  12.584  20.233  0.00  0.00    +0.000 C 
ATOM      8  C   UNL     1      -4.028  12.770  21.482  0.00  0.00    +0.000 C 
ATOM      9  C   UNL     1      -3.342  13.745  22.450  0.00  0.00    +0.000 C 
ATOM     10  C   UNL     1      -4.124  14.029  23.765  0.00  0.00    +0.000 C 
ATOM     11  C   UNL     1      -4.271  12.811  24.690  0.00  0.00    +0.000 C 
ATOM     12  C   UNL     1      -5.535  14.555  23.438  0.00  0.00    +0.000 C 
ATOM     13  C   UNL     1      -3.350  15.116  24.529  0.00  0.00    +0.000 C 
ATOM     14  O   UNL     1      -3.903  16.091  25.034  0.00  0.00    +0.000 OA
ATOM     15  C   UNL     1      -1.861  14.902  24.742  0.00  0.00    +0.000 C 
ATOM     16  C   UNL     1      -1.164  14.534  23.442  0.00  0.00    +0.000 C 
ATOM     17  C   UNL     1      -1.881  13.389  22.747  0.00  0.00    +0.000 C 
ATOM     18  C   UNL     1      -1.487  11.996  23.153  0.00  0.00    +0.000 C 
ATOM     19  C   UNL     1      -1.118  12.485  21.758  0.00  0.00    +0.000 C 
ATOM     20  C   UNL     1       0.361  12.788  21.513  0.00  0.00    +0.000 C 
ATOM     21  C   UNL     1       1.148  11.766  20.677  0.00  0.00    +0.000 C 
ATOM     22  C   UNL     1       0.272  10.703  19.992  0.00  0.00    +0.000 C 
ATOM     23  C   UNL     1      -0.051   9.610  21.051  0.00  0.00    +0.000 C 
ENDROOT
BRANCH   1  24
ATOM     24  C   UNL     1       1.935   8.911  18.824  0.00  0.00    +0.000 C 
ATOM     25  C   UNL     1       2.668   8.524  17.525  0.00  0.00    +0.000 C 
BRANCH  24  26
ATOM     26  C   UNL     1       1.334   7.681  19.537  0.00  0.00    +0.000 C 
BRANCH  26  27
ATOM     27  C   UNL     1       2.384   6.709  20.051  0.00  0.00    +0.000 C 
BRANCH  27  28
ATOM     28  C   UNL     1       1.815   5.300  20.235  0.00  0.00    +0.000 C 
BRANCH  28  30
ATOM     29  C   UNL     1       3.612   4.936  18.471  0.00  0.00    +0.000 C 
ATOM     30  C   UNL     1       2.460   4.305  19.257  0.00  0.00    +0.000 C 
BRANCH  30  31
ATOM     31  C   UNL     1       1.421   3.773  18.285  0.00  0.00    +0.000 C 
ATOM     32  O   UNL     1       1.080   4.330  17.257  0.00  0.00    +0.000 OA
BRANCH  31  33
ATOM     33  O   UNL     1       0.883   2.592  18.672  0.00  0.00    +0.000 OA
ATOM     34  H   UNL     1       0.898   1.897  17.988  0.00  0.00    +0.000 HD
ENDBRANCH  31  33
ENDBRANCH  30  31
ENDBRANCH  28  30
ENDBRANCH  27  28
ENDBRANCH  26  27
ENDBRANCH  24  26
ENDBRANCH   1  24
TORSDOF 7
ENDMDL
MODEL 4
REMARK VINA RESULT:      -7.9      1.416      1.656
REMARK  Name = 
REMARK  13 active torsions:
REMARK  status: ('A' for Active; 'I' for Inactive)
REMARK    1  A    between atoms: C_1  and  C_2
REMARK    2  A    between atoms: C_2  and  C_3
REMARK    3  A    between atoms: C_2  and  C_31
REMARK    4  A    between atoms: C_3  and  C_4
REMARK    5  A    between atoms: C_4  and  C_5
REMARK    6  A    between atoms: C_5  and  C_6
REMARK    7  A    between atoms: C_6  and  C_7
REMARK    8  A    between atoms: C_6  and  C_8
REMARK    9  A    between atoms: C_11  and  C_12
REMARK   10  A    between atoms: C_17  and  C_18
REMARK   11  A    between atoms: C_17  and  C_19
REMARK   12  A    between atoms: C_29  and  C_30
REMARK   13  A    between atoms: C_31  and  O_33
REMARK                            x       y       z     vdW  Elec       q    Type
REMARK                         _______ _______ _______ _____ _____    ______ ____
ROOT
ATOM      1  C   UNL     1       0.502   9.827  18.751  0.00  0.00    +0.000 C 
ATOM      2  C   UNL     1      -0.699   9.669  17.784  0.00  0.00    +0.000 C 
ATOM      3  C   UNL     1      -1.851  10.507  18.354  0.00  0.00    +0.000 C 
ATOM      4  C   UNL     1      -1.198  11.437  19.392  0.00  0.00    +0.000 C 
ATOM      5  C   UNL     1      -0.639  12.659  18.601  0.00  0.00    +0.000 C 
ATOM      6  C   UNL     1      -2.150  11.883  20.526  0.00  0.00    +0.000 C 
ATOM      7  C   UNL     1      -3.252  12.852  20.107  0.00  0.00    +0.000 C 
ATOM      8  C   UNL     1      -4.186  13.094  21.291  0.00  0.00    +0.000 C 
ATOM      9  C   UNL     1      -3.458  13.903  22.374  0.00  0.00    +0.000 C 
ATOM     10  C   UNL     1      -4.308  14.226  23.638  0.00  0.00    +0.000 C 
ATOM     11  C   UNL     1      -4.709  12.994  24.464  0.00  0.00    +0.000 C 
ATOM     12  C   UNL     1      -5.595  14.970  23.233  0.00  0.00    +0.000 C 
ATOM     13  C   UNL     1      -3.460  15.145  24.534  0.00  0.00    +0.000 C 
ATOM     14  O   UNL     1      -3.913  16.161  25.056  0.00  0.00    +0.000 OA
ATOM     15  C   UNL     1      -2.042  14.703  24.852  0.00  0.00    +0.000 C 
ATOM     16  C   UNL     1      -1.290  14.308  23.591  0.00  0.00    +0.000 C 
ATOM     17  C   UNL     1      -2.095  13.321  22.765  0.00  0.00    +0.000 C 
ATOM     18  C   UNL     1      -1.941  11.864  23.107  0.00  0.00    +0.000 C 
ATOM     19  C   UNL     1      -1.382  12.370  21.783  0.00  0.00    +0.000 C 
ATOM     20  C   UNL     1       0.141  12.466  21.680  0.00  0.00    +0.000 C 
ATOM     21  C   UNL     1       0.848  11.387  20.844  0.00  0.00    +0.000 C 
ATOM     22  C   UNL     1      -0.104  10.503  20.020  0.00  0.00    +0.000 C 
ATOM     23  C   UNL     1      -0.673   9.413  20.974  0.00  0.00    +0.000 C 
ENDROOT
BRANCH   1  24
ATOM     24  C   UNL     1       1.387   8.553  18.873  0.00  0.00    +0.000 C 
ATOM     25  C   UNL     1       1.948   8.233  20.272  0.00  0.00    +0.000 C 
BRANCH  24  26
ATOM     26  C   UNL     1       2.494   8.574  17.797  0.00  0.00    +0.000 C 
BRANCH  26  27
ATOM     27  C   UNL     1       3.319   7.297  17.757  0.00  0.00    +0.000 C 
BRANCH  27  28
ATOM     28  C   UNL     1       2.442   6.048  17.868  0.00  0.00    +0.000 C 
BRANCH  28  30
ATOM     29  C   UNL     1       4.481   4.829  16.958  0.00  0.00    +0.000 C 
ATOM     30  C   UNL     1       3.292   4.770  17.921  0.00  0.00    +0.000 C 
BRANCH  30  31
ATOM     31  C   UNL     1       2.440   3.556  17.593  0.00  0.00    +0.000 C 
ATOM     32  O   UNL     1       2.867   2.423  17.455  0.00  0.00    +0.000 OA
BRANCH  31  33
ATOM     33  O   UNL     1       1.125   3.847  17.457  0.00  0.00    +0.000 OA
ATOM     34  H   UNL     1       0.569   3.091  17.193  0.00  0.00    +0.000 HD
ENDBRANCH  31  33
ENDBRANCH  30  31
ENDBRANCH  28  30
ENDBRANCH  27  28
ENDBRANCH  26  27
ENDBRANCH  24  26
ENDBRANCH   1  24
TORSDOF 7
ENDMDL
MODEL 5
REMARK VINA RESULT:      -7.9      1.615      1.848
REMARK  Name = 
REMARK  13 active torsions:
REMARK  status: ('A' for Active; 'I' for Inactive)
REMARK    1  A    between atoms: C_1  and  C_2
REMARK    2  A    between atoms: C_2  and  C_3
REMARK    3  A    between atoms: C_2  and  C_31
REMARK    4  A    between atoms: C_3  and  C_4
REMARK    5  A    between atoms: C_4  and  C_5
REMARK    6  A    between atoms: C_5  and  C_6
REMARK    7  A    between atoms: C_6  and  C_7
REMARK    8  A    between atoms: C_6  and  C_8
REMARK    9  A    between atoms: C_11  and  C_12
REMARK   10  A    between atoms: C_17  and  C_18
REMARK   11  A    between atoms: C_17  and  C_19
REMARK   12  A    between atoms: C_29  and  C_30
REMARK   13  A    between atoms: C_31  and  O_33
REMARK                            x       y       z     vdW  Elec       q    Type
REMARK                         _______ _______ _______ _____ _____    ______ ____
ROOT
ATOM      1  C   UNL     1       0.872  10.085  18.438  0.00  0.00    +0.000 C 
ATOM      2  C   UNL     1      -0.388   9.641  17.651  0.00  0.00    +0.000 C 
ATOM      3  C   UNL     1      -1.599  10.290  18.334  0.00  0.00    +0.000 C 
ATOM      4  C   UNL     1      -1.013  11.395  19.231  0.00  0.00    +0.000 C 
ATOM      5  C   UNL     1      -0.801  12.641  18.318  0.00  0.00    +0.000 C 
ATOM      6  C   UNL     1      -1.883  11.735  20.463  0.00  0.00    +0.000 C 
ATOM      7  C   UNL     1      -3.194  12.453  20.154  0.00  0.00    +0.000 C 
ATOM      8  C   UNL     1      -4.002  12.600  21.442  0.00  0.00    +0.000 C 
ATOM      9  C   UNL     1      -3.314  13.602  22.379  0.00  0.00    +0.000 C 
ATOM     10  C   UNL     1      -4.046  13.850  23.731  0.00  0.00    +0.000 C 
ATOM     11  C   UNL     1      -4.097  12.626  24.658  0.00  0.00    +0.000 C 
ATOM     12  C   UNL     1      -5.492  14.314  23.471  0.00  0.00    +0.000 C 
ATOM     13  C   UNL     1      -3.285  14.969  24.461  0.00  0.00    +0.000 C 
ATOM     14  O   UNL     1      -3.855  15.918  24.995  0.00  0.00    +0.000 OA
ATOM     15  C   UNL     1      -1.780  14.819  24.604  0.00  0.00    +0.000 C 
ATOM     16  C   UNL     1      -1.129  14.483  23.272  0.00  0.00    +0.000 C 
ATOM     17  C   UNL     1      -1.827  13.309  22.607  0.00  0.00    +0.000 C 
ATOM     18  C   UNL     1      -1.355  11.934  22.990  0.00  0.00    +0.000 C 
ATOM     19  C   UNL     1      -1.072  12.441  21.581  0.00  0.00    +0.000 C 
ATOM     20  C   UNL     1       0.379  12.808  21.269  0.00  0.00    +0.000 C 
ATOM     21  C   UNL     1       1.170  11.822  20.393  0.00  0.00    +0.000 C 
ATOM     22  C   UNL     1       0.310  10.723  19.746  0.00  0.00    +0.000 C 
ATOM     23  C   UNL     1       0.084   9.616  20.816  0.00  0.00    +0.000 C 
ENDROOT
BRANCH   1  24
ATOM     24  C   UNL     1       1.992   9.006  18.496  0.00  0.00    +0.000 C 
ATOM     25  C   UNL     1       3.254   9.275  17.652  0.00  0.00    +0.000 C 
BRANCH  24  26
ATOM     26  C   UNL     1       1.396   7.610  18.217  0.00  0.00    +0.000 C 
BRANCH  26  27
ATOM     27  C   UNL     1       2.127   6.488  18.936  0.00  0.00    +0.000 C 
BRANCH  27  28
ATOM     28  C   UNL     1       2.803   5.527  17.955  0.00  0.00    +0.000 C 
BRANCH  28  30
ATOM     29  C   UNL     1       4.863   6.077  16.567  0.00  0.00    +0.000 C 
ATOM     30  C   UNL     1       4.328   5.709  17.954  0.00  0.00    +0.000 C 
BRANCH  30  31
ATOM     31  C   UNL     1       5.011   4.441  18.435  0.00  0.00    +0.000 C 
ATOM     32  O   UNL     1       5.938   4.406  19.224  0.00  0.00    +0.000 OA
BRANCH  31  33
ATOM     33  O   UNL     1       4.492   3.315  17.890  0.00  0.00    +0.000 OA
ATOM     34  H   UNL     1       4.405   2.568  18.510  0.00  0.00    +0.000 HD
ENDBRANCH  31  33
ENDBRANCH  30  31
ENDBRANCH  28  30
ENDBRANCH  27  28
ENDBRANCH  26  27
ENDBRANCH  24  26
ENDBRANCH   1  24
TORSDOF 7
ENDMDL
MODEL 6
REMARK VINA RESULT:      -7.8      2.539      2.950
REMARK  Name = 
REMARK  13 active torsions:
REMARK  status: ('A' for Active; 'I' for Inactive)
REMARK    1  A    between atoms: C_1  and  C_2
REMARK    2  A    between atoms: C_2  and  C_3
REMARK    3  A    between atoms: C_2  and  C_31
REMARK    4  A    between atoms: C_3  and  C_4
REMARK    5  A    between atoms: C_4  and  C_5
REMARK    6  A    between atoms: C_5  and  C_6
REMARK    7  A    between atoms: C_6  and  C_7
REMARK    8  A    between atoms: C_6  and  C_8
REMARK    9  A    between atoms: C_11  and  C_12
REMARK   10  A    between atoms: C_17  and  C_18
REMARK   11  A    between atoms: C_17  and  C_19
REMARK   12  A    between atoms: C_29  and  C_30
REMARK   13  A    between atoms: C_31  and  O_33
REMARK                            x       y       z     vdW  Elec       q    Type
REMARK                         _______ _______ _______ _____ _____    ______ ____
ROOT
ATOM      1  C   UNL     1       0.703   9.698  18.653  0.00  0.00    +0.000 C 
ATOM      2  C   UNL     1      -0.485   9.557  17.665  0.00  0.00    +0.000 C 
ATOM      3  C   UNL     1      -1.632  10.415  18.214  0.00  0.00    +0.000 C 
ATOM      4  C   UNL     1      -0.982  11.337  19.261  0.00  0.00    +0.000 C 
ATOM      5  C   UNL     1      -0.389  12.548  18.477  0.00  0.00    +0.000 C 
ATOM      6  C   UNL     1      -1.945  11.801  20.378  0.00  0.00    +0.000 C 
ATOM      7  C   UNL     1      -3.024  12.787  19.938  0.00  0.00    +0.000 C 
ATOM      8  C   UNL     1      -3.974  13.047  21.106  0.00  0.00    +0.000 C 
ATOM      9  C   UNL     1      -3.252  13.846  22.199  0.00  0.00    +0.000 C 
ATOM     10  C   UNL     1      -4.117  14.186  23.447  0.00  0.00    +0.000 C 
ATOM     11  C   UNL     1      -4.552  12.963  24.270  0.00  0.00    +0.000 C 
ATOM     12  C   UNL     1      -5.385  14.950  23.019  0.00  0.00    +0.000 C 
ATOM     13  C   UNL     1      -3.270  15.093  24.356  0.00  0.00    +0.000 C 
ATOM     14  O   UNL     1      -3.715  16.118  24.869  0.00  0.00    +0.000 OA
ATOM     15  C   UNL     1      -1.865  14.628  24.699  0.00  0.00    +0.000 C 
ATOM     16  C   UNL     1      -1.098  14.219  23.452  0.00  0.00    +0.000 C 
ATOM     17  C   UNL     1      -1.905  13.243  22.614  0.00  0.00    +0.000 C 
ATOM     18  C   UNL     1      -1.780  11.785  22.962  0.00  0.00    +0.000 C 
ATOM     19  C   UNL     1      -1.191  12.278  21.647  0.00  0.00    +0.000 C 
ATOM     20  C   UNL     1       0.335  12.349  21.569  0.00  0.00    +0.000 C 
ATOM     21  C   UNL     1       1.038  11.256  20.748  0.00  0.00    +0.000 C 
ATOM     22  C   UNL     1       0.086  10.386  19.909  0.00  0.00    +0.000 C 
ATOM     23  C   UNL     1      -0.517   9.308  20.856  0.00  0.00    +0.000 C 
ENDROOT
BRANCH   1  24
ATOM     24  C   UNL     1       1.564   8.409  18.792  0.00  0.00    +0.000 C 
ATOM     25  C   UNL     1       2.047   8.052  20.212  0.00  0.00    +0.000 C 
BRANCH  24  26
ATOM     26  C   UNL     1       2.726   8.439  17.777  0.00  0.00    +0.000 C 
BRANCH  26  27
ATOM     27  C   UNL     1       3.283   7.060  17.458  0.00  0.00    +0.000 C 
BRANCH  27  28
ATOM     28  C   UNL     1       4.814   7.049  17.463  0.00  0.00    +0.000 C 
BRANCH  28  30
ATOM     29  C   UNL     1       4.773   4.649  16.619  0.00  0.00    +0.000 C 
ATOM     30  C   UNL     1       5.369   6.048  16.438  0.00  0.00    +0.000 C 
BRANCH  30  31
ATOM     31  C   UNL     1       6.882   5.966  16.547  0.00  0.00    +0.000 C 
ATOM     32  O   UNL     1       7.623   6.925  16.669  0.00  0.00    +0.000 OA
BRANCH  31  33
ATOM     33  O   UNL     1       7.354   4.699  16.490  0.00  0.00    +0.000 OA
ATOM     34  H   UNL     1       6.817   4.091  15.948  0.00  0.00    +0.000 HD
ENDBRANCH  31  33
ENDBRANCH  30  31
ENDBRANCH  28  30
ENDBRANCH  27  28
ENDBRANCH  26  27
ENDBRANCH  24  26
ENDBRANCH   1  24
TORSDOF 7
ENDMDL
MODEL 7
REMARK VINA RESULT:      -7.7      3.226      9.123
REMARK  Name = 
REMARK  13 active torsions:
REMARK  status: ('A' for Active; 'I' for Inactive)
REMARK    1  A    between atoms: C_1  and  C_2
REMARK    2  A    between atoms: C_2  and  C_3
REMARK    3  A    between atoms: C_2  and  C_31
REMARK    4  A    between atoms: C_3  and  C_4
REMARK    5  A    between atoms: C_4  and  C_5
REMARK    6  A    between atoms: C_5  and  C_6
REMARK    7  A    between atoms: C_6  and  C_7
REMARK    8  A    between atoms: C_6  and  C_8
REMARK    9  A    between atoms: C_11  and  C_12
REMARK   10  A    between atoms: C_17  and  C_18
REMARK   11  A    between atoms: C_17  and  C_19
REMARK   12  A    between atoms: C_29  and  C_30
REMARK   13  A    between atoms: C_31  and  O_33
REMARK                            x       y       z     vdW  Elec       q    Type
REMARK                         _______ _______ _______ _____ _____    ______ ____
ROOT
ATOM      1  C   UNL     1      -0.447  11.618  20.414  0.00  0.00    +0.000 C 
ATOM      2  C   UNL     1      -1.039  10.907  21.658  0.00  0.00    +0.000 C 
ATOM      3  C   UNL     1      -0.443   9.494  21.697  0.00  0.00    +0.000 C 
ATOM      4  C   UNL     1       0.761   9.536  20.739  0.00  0.00    +0.000 C 
ATOM      5  C   UNL     1       1.956  10.114  21.558  0.00  0.00    +0.000 C 
ATOM      6  C   UNL     1       1.112   8.170  20.107  0.00  0.00    +0.000 C 
ATOM      7  C   UNL     1       1.703   7.142  21.068  0.00  0.00    +0.000 C 
ATOM      8  C   UNL     1       1.871   5.811  20.338  0.00  0.00    +0.000 C 
ATOM      9  C   UNL     1       2.985   5.927  19.288  0.00  0.00    +0.000 C 
ATOM     10  C   UNL     1       3.264   4.629  18.476  0.00  0.00    +0.000 C 
ATOM     11  C   UNL     1       2.103   4.185  17.572  0.00  0.00    +0.000 C 
ATOM     12  C   UNL     1       3.594   3.468  19.434  0.00  0.00    +0.000 C 
ATOM     13  C   UNL     1       4.485   4.904  17.583  0.00  0.00    +0.000 C 
ATOM     14  O   UNL     1       5.420   4.112  17.478  0.00  0.00    +0.000 OA
ATOM     15  C   UNL     1       4.463   6.160  16.730  0.00  0.00    +0.000 C 
ATOM     16  C   UNL     1       4.092   7.382  17.555  0.00  0.00    +0.000 C 
ATOM     17  C   UNL     1       2.825   7.133  18.355  0.00  0.00    +0.000 C 
ATOM     18  C   UNL     1       1.520   7.415  17.664  0.00  0.00    +0.000 C 
ATOM     19  C   UNL     1       1.953   8.319  18.812  0.00  0.00    +0.000 C 
ATOM     20  C   UNL     1       2.411   9.727  18.432  0.00  0.00    +0.000 C 
ATOM     21  C   UNL     1       1.435  10.877  18.728  0.00  0.00    +0.000 C 
ATOM     22  C   UNL     1       0.231  10.474  19.597  0.00  0.00    +0.000 C 
ATOM     23  C   UNL     1      -0.817   9.805  18.662  0.00  0.00    +0.000 C 
ENDROOT
BRANCH   1  24
ATOM     24  C   UNL     1      -1.427  12.613  19.728  0.00  0.00    +0.000 C 
ATOM     25  C   UNL     1      -0.845  13.975  19.304  0.00  0.00    +0.000 C 
BRANCH  24  26
ATOM     26  C   UNL     1      -2.703  12.771  20.584  0.00  0.00    +0.000 C 
BRANCH  26  27
ATOM     27  C   UNL     1      -3.987  12.617  19.785  0.00  0.00    +0.000 C 
BRANCH  27  28
ATOM     28  C   UNL     1      -3.917  11.434  18.816  0.00  0.00    +0.000 C 
BRANCH  28  30
ATOM     29  C   UNL     1      -5.775  11.933  17.151  0.00  0.00    +0.000 C 
ATOM     30  C   UNL     1      -4.263  11.864  17.382  0.00  0.00    +0.000 C 
BRANCH  30  31
ATOM     31  C   UNL     1      -3.646  10.903  16.380  0.00  0.00    +0.000 C 
ATOM     32  O   UNL     1      -3.506   9.706  16.559  0.00  0.00    +0.000 OA
BRANCH  31  33
ATOM     33  O   UNL     1      -3.245  11.508  15.237  0.00  0.00    +0.000 OA
ATOM     34  H   UNL     1      -3.524  12.439  15.153  0.00  0.00    +0.000 HD
ENDBRANCH  31  33
ENDBRANCH  30  31
ENDBRANCH  28  30
ENDBRANCH  27  28
ENDBRANCH  26  27
ENDBRANCH  24  26
ENDBRANCH   1  24
TORSDOF 7
ENDMDL
MODEL 8
REMARK VINA RESULT:      -7.7      1.193      1.615
REMARK  Name = 
REMARK  13 active torsions:
REMARK  status: ('A' for Active; 'I' for Inactive)
REMARK    1  A    between atoms: C_1  and  C_2
REMARK    2  A    between atoms: C_2  and  C_3
REMARK    3  A    between atoms: C_2  and  C_31
REMARK    4  A    between atoms: C_3  and  C_4
REMARK    5  A    between atoms: C_4  and  C_5
REMARK    6  A    between atoms: C_5  and  C_6
REMARK    7  A    between atoms: C_6  and  C_7
REMARK    8  A    between atoms: C_6  and  C_8
REMARK    9  A    between atoms: C_11  and  C_12
REMARK   10  A    between atoms: C_17  and  C_18
REMARK   11  A    between atoms: C_17  and  C_19
REMARK   12  A    between atoms: C_29  and  C_30
REMARK   13  A    between atoms: C_31  and  O_33
REMARK                            x       y       z     vdW  Elec       q    Type
REMARK                         _______ _______ _______ _____ _____    ______ ____
ROOT
ATOM      1  C   UNL     1       0.506   9.915  18.698  0.00  0.00    +0.000 C 
ATOM      2  C   UNL     1      -0.710   9.737  17.752  0.00  0.00    +0.000 C 
ATOM      3  C   UNL     1      -1.866  10.554  18.345  0.00  0.00    +0.000 C 
ATOM      4  C   UNL     1      -1.211  11.494  19.372  0.00  0.00    +0.000 C 
ATOM      5  C   UNL     1      -0.687  12.727  18.573  0.00  0.00    +0.000 C 
ATOM      6  C   UNL     1      -2.150  11.921  20.524  0.00  0.00    +0.000 C 
ATOM      7  C   UNL     1      -3.276  12.871  20.126  0.00  0.00    +0.000 C 
ATOM      8  C   UNL     1      -4.193  13.094  21.328  0.00  0.00    +0.000 C 
ATOM      9  C   UNL     1      -3.460  13.914  22.399  0.00  0.00    +0.000 C 
ATOM     10  C   UNL     1      -4.292  14.220  23.679  0.00  0.00    +0.000 C 
ATOM     11  C   UNL     1      -4.657  12.980  24.510  0.00  0.00    +0.000 C 
ATOM     12  C   UNL     1      -5.600  14.942  23.298  0.00  0.00    +0.000 C 
ATOM     13  C   UNL     1      -3.445  15.152  24.561  0.00  0.00    +0.000 C 
ATOM     14  O   UNL     1      -3.906  16.160  25.094  0.00  0.00    +0.000 OA
ATOM     15  C   UNL     1      -2.014  14.734  24.853  0.00  0.00    +0.000 C 
ATOM     16  C   UNL     1      -1.278  14.355  23.578  0.00  0.00    +0.000 C 
ATOM     17  C   UNL     1      -2.080  13.355  22.764  0.00  0.00    +0.000 C 
ATOM     18  C   UNL     1      -1.894  11.902  23.101  0.00  0.00    +0.000 C 
ATOM     19  C   UNL     1      -1.368  12.419  21.768  0.00  0.00    +0.000 C 
ATOM     20  C   UNL     1       0.150  12.542  21.638  0.00  0.00    +0.000 C 
ATOM     21  C   UNL     1       0.861  11.477  20.787  0.00  0.00    +0.000 C 
ATOM     22  C   UNL     1      -0.090  10.578  19.978  0.00  0.00    +0.000 C 
ATOM     23  C   UNL     1      -0.622   9.476  20.940  0.00  0.00    +0.000 C 
ENDROOT
BRANCH   1  24
ATOM     24  C   UNL     1       1.414   8.656  18.801  0.00  0.00    +0.000 C 
ATOM     25  C   UNL     1       1.920   8.283  20.209  0.00  0.00    +0.000 C 
BRANCH  24  26
ATOM     26  C   UNL     1       2.568   8.752  17.779  0.00  0.00    +0.000 C 
BRANCH  26  27
ATOM     27  C   UNL     1       3.332   7.449  17.609  0.00  0.00    +0.000 C 
BRANCH  27  28
ATOM     28  C   UNL     1       2.431   6.229  17.815  0.00  0.00    +0.000 C 
BRANCH  28  30
ATOM     29  C   UNL     1       2.452   3.704  17.504  0.00  0.00    +0.000 C 
ATOM     30  C   UNL     1       3.255   4.937  17.925  0.00  0.00    +0.000 C 
BRANCH  30  31
ATOM     31  C   UNL     1       3.754   4.749  19.348  0.00  0.00    +0.000 C 
ATOM     32  O   UNL     1       3.087   4.310  20.267  0.00  0.00    +0.000 OA
BRANCH  31  33
ATOM     33  O   UNL     1       5.043   5.129  19.516  0.00  0.00    +0.000 OA
ATOM     34  H   UNL     1       5.605   4.467  19.959  0.00  0.00    +0.000 HD
ENDBRANCH  31  33
ENDBRANCH  30  31
ENDBRANCH  28  30
ENDBRANCH  27  28
ENDBRANCH  26  27
ENDBRANCH  24  26
ENDBRANCH   1  24
TORSDOF 7
ENDMDL
MODEL 9
REMARK VINA RESULT:      -7.7      2.918      9.356
REMARK  Name = 
REMARK  13 active torsions:
REMARK  status: ('A' for Active; 'I' for Inactive)
REMARK    1  A    between atoms: C_1  and  C_2
REMARK    2  A    between atoms: C_2  and  C_3
REMARK    3  A    between atoms: C_2  and  C_31
REMARK    4  A    between atoms: C_3  and  C_4
REMARK    5  A    between atoms: C_4  and  C_5
REMARK    6  A    between atoms: C_5  and  C_6
REMARK    7  A    between atoms: C_6  and  C_7
REMARK    8  A    between atoms: C_6  and  C_8
REMARK    9  A    between atoms: C_11  and  C_12
REMARK   10  A    between atoms: C_17  and  C_18
REMARK   11  A    between atoms: C_17  and  C_19
REMARK   12  A    between atoms: C_29  and  C_30
REMARK   13  A    between atoms: C_31  and  O_33
REMARK                            x       y       z     vdW  Elec       q    Type
REMARK                         _______ _______ _______ _____ _____    ______ ____
ROOT
ATOM      1  C   UNL     1      -0.467  11.774  20.216  0.00  0.00    +0.000 C 
ATOM      2  C   UNL     1      -1.084  11.112  21.475  0.00  0.00    +0.000 C 
ATOM      3  C   UNL     1      -0.507   9.693  21.567  0.00  0.00    +0.000 C 
ATOM      4  C   UNL     1       0.709   9.689  20.624  0.00  0.00    +0.000 C 
ATOM      5  C   UNL     1       1.902  10.277  21.439  0.00  0.00    +0.000 C 
ATOM      6  C   UNL     1       1.051   8.298  20.041  0.00  0.00    +0.000 C 
ATOM      7  C   UNL     1       1.615   7.295  21.043  0.00  0.00    +0.000 C 
ATOM      8  C   UNL     1       1.775   5.938  20.359  0.00  0.00    +0.000 C 
ATOM      9  C   UNL     1       2.903   6.006  19.320  0.00  0.00    +0.000 C 
ATOM     10  C   UNL     1       3.175   4.678  18.555  0.00  0.00    +0.000 C 
ATOM     11  C   UNL     1       2.020   4.220  17.650  0.00  0.00    +0.000 C 
ATOM     12  C   UNL     1       3.478   3.545  19.554  0.00  0.00    +0.000 C 
ATOM     13  C   UNL     1       4.411   4.908  17.669  0.00  0.00    +0.000 C 
ATOM     14  O   UNL     1       5.337   4.102  17.602  0.00  0.00    +0.000 OA
ATOM     15  C   UNL     1       4.417   6.137  16.775  0.00  0.00    +0.000 C 
ATOM     16  C   UNL     1       4.052   7.389  17.555  0.00  0.00    +0.000 C 
ATOM     17  C   UNL     1       2.772   7.183  18.346  0.00  0.00    +0.000 C 
ATOM     18  C   UNL     1       1.479   7.459  17.630  0.00  0.00    +0.000 C 
ATOM     19  C   UNL     1       1.909   8.394  18.753  0.00  0.00    +0.000 C 
ATOM     20  C   UNL     1       2.391   9.783  18.334  0.00  0.00    +0.000 C 
ATOM     21  C   UNL     1       1.427  10.955  18.580  0.00  0.00    +0.000 C 
ATOM     22  C   UNL     1       0.206  10.596  19.446  0.00  0.00    +0.000 C 
ATOM     23  C   UNL     1      -0.838   9.910  18.519  0.00  0.00    +0.000 C 
ENDROOT
BRANCH   1  24
ATOM     24  C   UNL     1      -1.425  12.759  19.485  0.00  0.00    +0.000 C 
ATOM     25  C   UNL     1      -0.818  14.097  19.022  0.00  0.00    +0.000 C 
BRANCH  24  26
ATOM     26  C   UNL     1      -2.707  12.964  20.320  0.00  0.00    +0.000 C 
BRANCH  26  27
ATOM     27  C   UNL     1      -3.961  12.441  19.637  0.00  0.00    +0.000 C 
BRANCH  27  28
ATOM     28  C   UNL     1      -5.204  12.617  20.513  0.00  0.00    +0.000 C 
BRANCH  28  30
ATOM     29  C   UNL     1      -7.633  13.273  20.136  0.00  0.00    +0.000 C 
ATOM     30  C   UNL     1      -6.491  12.340  19.722  0.00  0.00    +0.000 C 
BRANCH  30  31
ATOM     31  C   UNL     1      -6.926  10.898  19.912  0.00  0.00    +0.000 C 
ATOM     32  O   UNL     1      -7.130  10.369  20.990  0.00  0.00    +0.000 OA
BRANCH  31  33
ATOM     33  O   UNL     1      -7.068  10.225  18.746  0.00  0.00    +0.000 OA
ATOM     34  H   UNL     1      -6.412  10.457  18.063  0.00  0.00    +0.000 HD
ENDBRANCH  31  33
ENDBRANCH  30  31
ENDBRANCH  28  30
ENDBRANCH  27  28
ENDBRANCH  26  27
ENDBRANCH  24  26
ENDBRANCH   1  24
TORSDOF 7
ENDMDL
