MODEL 1
REMARK VINA RESULT:      -7.3      0.000      0.000
REMARK  Name = 
REMARK  5 active torsions:
REMARK  status: ('A' for Active; 'I' for Inactive)
REMARK    1  A    between atoms: C_1  and  C_2
REMARK    2  A    between atoms: C_3  and  C_4
REMARK    3  A    between atoms: C_11  and  N_12
REMARK    4  A    between atoms: C_13  and  C_14
REMARK    5  A    between atoms: C_16  and  C_17
REMARK                            x       y       z     vdW  Elec       q    Type
REMARK                         _______ _______ _______ _____ _____    ______ ____
ROOT
ATOM      1  C   UNL     1       3.701   7.437  17.495  0.00  0.00    +0.000 C 
ATOM      2  C   UNL     1       3.341   6.440  18.572  0.00  0.00    +0.000 A 
ATOM      3  C   UNL     1       2.394   6.760  19.572  0.00  0.00    +0.000 A 
ATOM      4  N   UNL     1       2.022   5.853  20.512  0.00  0.00    +0.000 NA
ATOM      5  C   UNL     1       2.571   4.627  20.520  0.00  0.00    +0.000 A 
ATOM      6  C   UNL     1       3.528   4.219  19.588  0.00  0.00    +0.000 A 
ATOM      7  C   UNL     1       3.949   5.139  18.588  0.00  0.00    +0.000 A 
ENDROOT
BRANCH   3   8
ATOM      8  C   UNL     1       1.709   8.075  19.745  0.00  0.00    +0.000 A 
ATOM      9  C   UNL     1       1.273   8.506  21.018  0.00  0.00    +0.000 A 
ATOM     10  C   UNL     1       0.639   9.739  21.199  0.00  0.00    +0.000 A 
ATOM     11  C   UNL     1       0.394  10.572  20.109  0.00  0.00    +0.000 A 
ATOM     12  C   UNL     1       0.821  10.182  18.845  0.00  0.00    +0.000 A 
ATOM     13  C   UNL     1       1.512   8.976  18.683  0.00  0.00    +0.000 A 
ENDBRANCH   3   8
BRANCH   7  14
ATOM     14  C   UNL     1       5.001   4.771  17.579  0.00  0.00    +0.000 A 
ATOM     15  C   UNL     1       4.879   4.203  16.317  0.00  0.00    +0.000 A 
ATOM     16  C   UNL     1       6.113   4.050  15.623  0.00  0.00    +0.000 A 
ATOM     17  C   UNL     1       7.179   4.411  16.407  0.00  0.00    +0.000 A 
ATOM     18  S   UNL     1       6.671   5.122  17.870  0.00  0.00    +0.000 S 
ENDBRANCH   7  14
BRANCH   5  19
ATOM     19  N   UNL     1       2.166   3.832  21.589  0.00  0.00    +0.000 N 
ATOM     20  H   UNL     1       1.623   3.054  21.224  0.00  0.00    +0.000 HD
ATOM     21  H   UNL     1       2.909   3.534  22.211  0.00  0.00    +0.000 HD
ENDBRANCH   5  19
BRANCH   6  22
ATOM     22  C   UNL     1       3.984   2.860  19.666  0.00  0.00    +0.000 C 
ATOM     23  N   UNL     1       4.392   1.772  19.777  0.00  0.00    +0.000 NA
ENDBRANCH   6  22
TORSDOF 4
ENDMDL
MODEL 2
REMARK VINA RESULT:      -7.3      0.748      1.412
REMARK  Name = 
REMARK  5 active torsions:
REMARK  status: ('A' for Active; 'I' for Inactive)
REMARK    1  A    between atoms: C_1  and  C_2
REMARK    2  A    between atoms: C_3  and  C_4
REMARK    3  A    between atoms: C_11  and  N_12
REMARK    4  A    between atoms: C_13  and  C_14
REMARK    5  A    between atoms: C_16  and  C_17
REMARK                            x       y       z     vdW  Elec       q    Type
REMARK                         _______ _______ _______ _____ _____    ______ ____
ROOT
ATOM      1  C   UNL     1       3.913   7.502  17.486  0.00  0.00    +0.000 C 
ATOM      2  C   UNL     1       3.501   6.514  18.553  0.00  0.00    +0.000 A 
ATOM      3  C   UNL     1       2.447   6.808  19.449  0.00  0.00    +0.000 A 
ATOM      4  N   UNL     1       2.032   5.906  20.374  0.00  0.00    +0.000 NA
ATOM      5  C   UNL     1       2.637   4.710  20.469  0.00  0.00    +0.000 A 
ATOM      6  C   UNL     1       3.698   4.329  19.644  0.00  0.00    +0.000 A 
ATOM      7  C   UNL     1       4.168   5.246  18.663  0.00  0.00    +0.000 A 
ENDROOT
BRANCH   3   8
ATOM      8  C   UNL     1       1.686   8.089  19.519  0.00  0.00    +0.000 A 
ATOM      9  C   UNL     1       1.390   8.824  18.350  0.00  0.00    +0.000 A 
ATOM     10  C   UNL     1       0.669  10.021  18.397  0.00  0.00    +0.000 A 
ATOM     11  C   UNL     1       0.243  10.539  19.618  0.00  0.00    +0.000 A 
ATOM     12  C   UNL     1       0.508   9.834  20.786  0.00  0.00    +0.000 A 
ATOM     13  C   UNL     1       1.173   8.606  20.724  0.00  0.00    +0.000 A 
ENDBRANCH   3   8
BRANCH   7  14
ATOM     14  C   UNL     1       5.328   4.909  17.768  0.00  0.00    +0.000 A 
ATOM     15  C   UNL     1       6.695   5.024  17.987  0.00  0.00    +0.000 A 
ATOM     16  C   UNL     1       7.500   4.548  16.912  0.00  0.00    +0.000 A 
ATOM     17  C   UNL     1       6.734   4.170  15.839  0.00  0.00    +0.000 A 
ATOM     18  S   UNL     1       5.072   4.189  16.215  0.00  0.00    +0.000 S 
ENDBRANCH   7  14
BRANCH   5  19
ATOM     19  N   UNL     1       2.171   3.920  21.518  0.00  0.00    +0.000 N 
ATOM     20  H   UNL     1       1.811   3.051  21.131  0.00  0.00    +0.000 HD
ATOM     21  H   UNL     1       2.832   3.770  22.271  0.00  0.00    +0.000 HD
ENDBRANCH   5  19
BRANCH   6  22
ATOM     22  C   UNL     1       4.211   2.998  19.803  0.00  0.00    +0.000 C 
ATOM     23  N   UNL     1       4.661   1.936  19.981  0.00  0.00    +0.000 NA
ENDBRANCH   6  22
TORSDOF 4
ENDMDL
MODEL 3
REMARK VINA RESULT:      -7.2      0.678      1.242
REMARK  Name = 
REMARK  5 active torsions:
REMARK  status: ('A' for Active; 'I' for Inactive)
REMARK    1  A    between atoms: C_1  and  C_2
REMARK    2  A    between atoms: C_3  and  C_4
REMARK    3  A    between atoms: C_11  and  N_12
REMARK    4  A    between atoms: C_13  and  C_14
REMARK    5  A    between atoms: C_16  and  C_17
REMARK                            x       y       z     vdW  Elec       q    Type
REMARK                         _______ _______ _______ _____ _____    ______ ____
ROOT
ATOM      1  C   UNL     1       3.852   7.423  17.626  0.00  0.00    +0.000 C 
ATOM      2  C   UNL     1       3.314   6.262  18.430  0.00  0.00    +0.000 A 
ATOM      3  C   UNL     1       2.330   6.461  19.427  0.00  0.00    +0.000 A 
ATOM      4  N   UNL     1       1.800   5.418  20.116  0.00  0.00    +0.000 NA
ATOM      5  C   UNL     1       2.222   4.166  19.875  0.00  0.00    +0.000 A 
ATOM      6  C   UNL     1       3.202   3.866  18.926  0.00  0.00    +0.000 A 
ATOM      7  C   UNL     1       3.787   4.928  18.183  0.00  0.00    +0.000 A 
ENDROOT
BRANCH   3   8
ATOM      8  C   UNL     1       1.768   7.775  19.857  0.00  0.00    +0.000 A 
ATOM      9  C   UNL     1       1.462   8.779  18.912  0.00  0.00    +0.000 A 
ATOM     10  C   UNL     1       0.926  10.011  19.296  0.00  0.00    +0.000 A 
ATOM     11  C   UNL     1       0.703  10.293  20.643  0.00  0.00    +0.000 A 
ATOM     12  C   UNL     1       0.983   9.322  21.596  0.00  0.00    +0.000 A 
ATOM     13  C   UNL     1       1.458   8.069  21.197  0.00  0.00    +0.000 A 
ENDBRANCH   3   8
BRANCH   7  14
ATOM     14  C   UNL     1       4.871   4.674  17.172  0.00  0.00    +0.000 A 
ATOM     15  C   UNL     1       4.786   4.342  15.826  0.00  0.00    +0.000 A 
ATOM     16  C   UNL     1       6.047   4.232  15.172  0.00  0.00    +0.000 A 
ATOM     17  C   UNL     1       7.086   4.380  16.053  0.00  0.00    +0.000 A 
ATOM     18  S   UNL     1       6.539   4.858  17.595  0.00  0.00    +0.000 S 
ENDBRANCH   7  14
BRANCH   5  19
ATOM     19  N   UNL     1       1.661   3.208  20.715  0.00  0.00    +0.000 N 
ATOM     20  H   UNL     1       1.439   2.384  20.161  0.00  0.00    +0.000 HD
ATOM     21  H   UNL     1       2.204   2.988  21.543  0.00  0.00    +0.000 HD
ENDBRANCH   5  19
BRANCH   6  22
ATOM     22  C   UNL     1       3.514   2.480  18.718  0.00  0.00    +0.000 C 
ATOM     23  N   UNL     1       3.708   1.339  18.567  0.00  0.00    +0.000 NA
ENDBRANCH   6  22
TORSDOF 4
ENDMDL
MODEL 4
REMARK VINA RESULT:      -6.7      2.347      3.674
REMARK  Name = 
REMARK  5 active torsions:
REMARK  status: ('A' for Active; 'I' for Inactive)
REMARK    1  A    between atoms: C_1  and  C_2
REMARK    2  A    between atoms: C_3  and  C_4
REMARK    3  A    between atoms: C_11  and  N_12
REMARK    4  A    between atoms: C_13  and  C_14
REMARK    5  A    between atoms: C_16  and  C_17
REMARK                            x       y       z     vdW  Elec       q    Type
REMARK                         _______ _______ _______ _____ _____    ______ ____
ROOT
ATOM      1  C   UNL     1       2.136   5.411  20.003  0.00  0.00    +0.000 C 
ATOM      2  C   UNL     1       2.962   5.833  18.810  0.00  0.00    +0.000 A 
ATOM      3  C   UNL     1       2.887   7.152  18.303  0.00  0.00    +0.000 A 
ATOM      4  N   UNL     1       3.665   7.557  17.267  0.00  0.00    +0.000 NA
ATOM      5  C   UNL     1       4.515   6.696  16.685  0.00  0.00    +0.000 A 
ATOM      6  C   UNL     1       4.651   5.369  17.098  0.00  0.00    +0.000 A 
ATOM      7  C   UNL     1       3.853   4.900  18.178  0.00  0.00    +0.000 A 
ENDROOT
BRANCH   3   8
ATOM      8  C   UNL     1       1.980   8.231  18.793  0.00  0.00    +0.000 A 
ATOM      9  C   UNL     1       1.369   9.132  17.893  0.00  0.00    +0.000 A 
ATOM     10  C   UNL     1       0.509  10.142  18.335  0.00  0.00    +0.000 A 
ATOM     11  C   UNL     1       0.252  10.304  19.695  0.00  0.00    +0.000 A 
ATOM     12  C   UNL     1       0.829   9.427  20.605  0.00  0.00    +0.000 A 
ATOM     13  C   UNL     1       1.636   8.379  20.149  0.00  0.00    +0.000 A 
ENDBRANCH   3   8
BRANCH   7  14
ATOM     14  C   UNL     1       3.927   3.474  18.646  0.00  0.00    +0.000 A 
ATOM     15  C   UNL     1       4.639   2.907  19.696  0.00  0.00    +0.000 A 
ATOM     16  C   UNL     1       4.414   1.511  19.868  0.00  0.00    +0.000 A 
ATOM     17  C   UNL     1       3.609   1.006  18.880  0.00  0.00    +0.000 A 
ATOM     18  S   UNL     1       2.969   2.242  17.897  0.00  0.00    +0.000 S 
ENDBRANCH   7  14
BRANCH   5  19
ATOM     19  N   UNL     1       5.183   7.219  15.580  0.00  0.00    +0.000 N 
ATOM     20  H   UNL     1       5.582   6.448  15.051  0.00  0.00    +0.000 HD
ATOM     21  H   UNL     1       4.636   7.848  15.003  0.00  0.00    +0.000 HD
ENDBRANCH   5  19
BRANCH   6  22
ATOM     22  C   UNL     1       5.645   4.572  16.437  0.00  0.00    +0.000 C 
ATOM     23  N   UNL     1       6.470   3.976  15.865  0.00  0.00    +0.000 NA
ENDBRANCH   6  22
TORSDOF 4
ENDMDL
MODEL 5
REMARK VINA RESULT:      -6.7      2.345      3.525
REMARK  Name = 
REMARK  5 active torsions:
REMARK  status: ('A' for Active; 'I' for Inactive)
REMARK    1  A    between atoms: C_1  and  C_2
REMARK    2  A    between atoms: C_3  and  C_4
REMARK    3  A    between atoms: C_11  and  N_12
REMARK    4  A    between atoms: C_13  and  C_14
REMARK    5  A    between atoms: C_16  and  C_17
REMARK                            x       y       z     vdW  Elec       q    Type
REMARK                         _______ _______ _______ _____ _____    ______ ____
ROOT
ATOM      1  C   UNL     1       2.109   5.404  19.984  0.00  0.00    +0.000 C 
ATOM      2  C   UNL     1       2.944   5.832  18.800  0.00  0.00    +0.000 A 
ATOM      3  C   UNL     1       2.865   7.150  18.293  0.00  0.00    +0.000 A 
ATOM      4  N   UNL     1       3.651   7.562  17.266  0.00  0.00    +0.000 NA
ATOM      5  C   UNL     1       4.515   6.707  16.693  0.00  0.00    +0.000 A 
ATOM      6  C   UNL     1       4.656   5.380  17.107  0.00  0.00    +0.000 A 
ATOM      7  C   UNL     1       3.848   4.906  18.178  0.00  0.00    +0.000 A 
ENDROOT
BRANCH   3   8
ATOM      8  C   UNL     1       1.946   8.223  18.774  0.00  0.00    +0.000 A 
ATOM      9  C   UNL     1       1.673   8.384  20.150  0.00  0.00    +0.000 A 
ATOM     10  C   UNL     1       0.822   9.389  20.618  0.00  0.00    +0.000 A 
ATOM     11  C   UNL     1       0.192  10.252  19.723  0.00  0.00    +0.000 A 
ATOM     12  C   UNL     1       0.449  10.127  18.363  0.00  0.00    +0.000 A 
ATOM     13  C   UNL     1       1.351   9.160  17.909  0.00  0.00    +0.000 A 
ENDBRANCH   3   8
BRANCH   7  14
ATOM     14  C   UNL     1       3.928   3.479  18.647  0.00  0.00    +0.000 A 
ATOM     15  C   UNL     1       4.639   2.916  19.699  0.00  0.00    +0.000 A 
ATOM     16  C   UNL     1       4.420   1.519  19.870  0.00  0.00    +0.000 A 
ATOM     17  C   UNL     1       3.621   1.010  18.879  0.00  0.00    +0.000 A 
ATOM     18  S   UNL     1       2.979   2.243  17.893  0.00  0.00    +0.000 S 
ENDBRANCH   7  14
BRANCH   5  19
ATOM     19  N   UNL     1       5.191   7.235  15.595  0.00  0.00    +0.000 N 
ATOM     20  H   UNL     1       4.519   7.390  14.848  0.00  0.00    +0.000 HD
ATOM     21  H   UNL     1       5.756   8.054  15.790  0.00  0.00    +0.000 HD
ENDBRANCH   5  19
BRANCH   6  22
ATOM     22  C   UNL     1       5.662   4.591  16.456  0.00  0.00    +0.000 C 
ATOM     23  N   UNL     1       6.515   4.002  15.919  0.00  0.00    +0.000 NA
ENDBRANCH   6  22
TORSDOF 4
ENDMDL
MODEL 6
REMARK VINA RESULT:      -6.4      2.687      6.446
REMARK  Name = 
REMARK  5 active torsions:
REMARK  status: ('A' for Active; 'I' for Inactive)
REMARK    1  A    between atoms: C_1  and  C_2
REMARK    2  A    between atoms: C_3  and  C_4
REMARK    3  A    between atoms: C_11  and  N_12
REMARK    4  A    between atoms: C_13  and  C_14
REMARK    5  A    between atoms: C_16  and  C_17
REMARK                            x       y       z     vdW  Elec       q    Type
REMARK                         _______ _______ _______ _____ _____    ______ ____
ROOT
ATOM      1  C   UNL     1       4.102   3.062  17.653  0.00  0.00    +0.000 C 
ATOM      2  C   UNL     1       3.889   4.556  17.745  0.00  0.00    +0.000 A 
ATOM      3  C   UNL     1       4.444   5.430  16.781  0.00  0.00    +0.000 A 
ATOM      4  N   UNL     1       4.213   6.767  16.823  0.00  0.00    +0.000 NA
ATOM      5  C   UNL     1       3.461   7.292  17.804  0.00  0.00    +0.000 A 
ATOM      6  C   UNL     1       2.883   6.517  18.813  0.00  0.00    +0.000 A 
ATOM      7  C   UNL     1       3.102   5.112  18.810  0.00  0.00    +0.000 A 
ENDROOT
BRANCH   3   8
ATOM      8  C   UNL     1       5.331   5.038  15.646  0.00  0.00    +0.000 A 
ATOM      9  C   UNL     1       6.710   5.342  15.663  0.00  0.00    +0.000 A 
ATOM     10  C   UNL     1       7.556   4.973  14.613  0.00  0.00    +0.000 A 
ATOM     11  C   UNL     1       7.048   4.313  13.497  0.00  0.00    +0.000 A 
ATOM     12  C   UNL     1       5.697   3.989  13.456  0.00  0.00    +0.000 A 
ATOM     13  C   UNL     1       4.870   4.304  14.538  0.00  0.00    +0.000 A 
ENDBRANCH   3   8
BRANCH   7  14
ATOM     14  C   UNL     1       2.537   4.229  19.888  0.00  0.00    +0.000 A 
ATOM     15  C   UNL     1       3.027   3.925  21.151  0.00  0.00    +0.000 A 
ATOM     16  C   UNL     1       2.176   3.081  21.920  0.00  0.00    +0.000 A 
ATOM     17  C   UNL     1       1.089   2.666  21.194  0.00  0.00    +0.000 A 
ATOM     18  S   UNL     1       0.999   3.459  19.689  0.00  0.00    +0.000 S 
ENDBRANCH   7  14
BRANCH   5  19
ATOM     19  N   UNL     1       3.381   8.682  17.775  0.00  0.00    +0.000 N 
ATOM     20  H   UNL     1       2.481   8.945  17.382  0.00  0.00    +0.000 HD
ATOM     21  H   UNL     1       3.573   9.143  18.658  0.00  0.00    +0.000 HD
ENDBRANCH   5  19
BRANCH   6  22
ATOM     22  C   UNL     1       2.045   7.192  19.762  0.00  0.00    +0.000 C 
ATOM     23  N   UNL     1       1.416   7.761  20.565  0.00  0.00    +0.000 NA
ENDBRANCH   6  22
TORSDOF 4
ENDMDL
MODEL 7
REMARK VINA RESULT:      -6.4      2.687      6.470
REMARK  Name = 
REMARK  5 active torsions:
REMARK  status: ('A' for Active; 'I' for Inactive)
REMARK    1  A    between atoms: C_1  and  C_2
REMARK    2  A    between atoms: C_3  and  C_4
REMARK    3  A    between atoms: C_11  and  N_12
REMARK    4  A    between atoms: C_13  and  C_14
REMARK    5  A    between atoms: C_16  and  C_17
REMARK                            x       y       z     vdW  Elec       q    Type
REMARK                         _______ _______ _______ _____ _____    ______ ____
ROOT
ATOM      1  C   UNL     1       4.112   3.079  17.683  0.00  0.00    +0.000 C 
ATOM      2  C   UNL     1       3.894   4.572  17.767  0.00  0.00    +0.000 A 
ATOM      3  C   UNL     1       4.450   5.444  16.801  0.00  0.00    +0.000 A 
ATOM      4  N   UNL     1       4.215   6.780  16.835  0.00  0.00    +0.000 NA
ATOM      5  C   UNL     1       3.457   7.307  17.811  0.00  0.00    +0.000 A 
ATOM      6  C   UNL     1       2.877   6.535  18.821  0.00  0.00    +0.000 A 
ATOM      7  C   UNL     1       3.101   5.130  18.826  0.00  0.00    +0.000 A 
ENDROOT
BRANCH   3   8
ATOM      8  C   UNL     1       5.343   5.049  15.672  0.00  0.00    +0.000 A 
ATOM      9  C   UNL     1       4.836   4.347  14.556  0.00  0.00    +0.000 A 
ATOM     10  C   UNL     1       5.656   3.980  13.485  0.00  0.00    +0.000 A 
ATOM     11  C   UNL     1       7.018   4.276  13.506  0.00  0.00    +0.000 A 
ATOM     12  C   UNL     1       7.545   4.975  14.585  0.00  0.00    +0.000 A 
ATOM     13  C   UNL     1       6.705   5.396  15.621  0.00  0.00    +0.000 A 
ENDBRANCH   3   8
BRANCH   7  14
ATOM     14  C   UNL     1       2.534   4.250  19.905  0.00  0.00    +0.000 A 
ATOM     15  C   UNL     1       3.014   3.963  21.176  0.00  0.00    +0.000 A 
ATOM     16  C   UNL     1       2.164   3.117  21.944  0.00  0.00    +0.000 A 
ATOM     17  C   UNL     1       1.089   2.684  21.210  0.00  0.00    +0.000 A 
ATOM     18  S   UNL     1       1.006   3.463  19.697  0.00  0.00    +0.000 S 
ENDBRANCH   7  14
BRANCH   5  19
ATOM     19  N   UNL     1       3.373   8.697  17.776  0.00  0.00    +0.000 N 
ATOM     20  H   UNL     1       3.934   9.072  18.537  0.00  0.00    +0.000 HD
ATOM     21  H   UNL     1       3.595   9.120  16.881  0.00  0.00    +0.000 HD
ENDBRANCH   5  19
BRANCH   6  22
ATOM     22  C   UNL     1       2.034   7.212  19.764  0.00  0.00    +0.000 C 
ATOM     23  N   UNL     1       1.396   7.801  20.545  0.00  0.00    +0.000 NA
ENDBRANCH   6  22
TORSDOF 4
ENDMDL
MODEL 8
REMARK VINA RESULT:      -6.3      2.053      6.208
REMARK  Name = 
REMARK  5 active torsions:
REMARK  status: ('A' for Active; 'I' for Inactive)
REMARK    1  A    between atoms: C_1  and  C_2
REMARK    2  A    between atoms: C_3  and  C_4
REMARK    3  A    between atoms: C_11  and  N_12
REMARK    4  A    between atoms: C_13  and  C_14
REMARK    5  A    between atoms: C_16  and  C_17
REMARK                            x       y       z     vdW  Elec       q    Type
REMARK                         _______ _______ _______ _____ _____    ______ ____
ROOT
ATOM      1  C   UNL     1       4.488   7.096  17.123  0.00  0.00    +0.000 C 
ATOM      2  C   UNL     1       3.901   5.728  17.385  0.00  0.00    +0.000 A 
ATOM      3  C   UNL     1       4.372   4.589  16.692  0.00  0.00    +0.000 A 
ATOM      4  N   UNL     1       3.891   3.348  16.959  0.00  0.00    +0.000 NA
ATOM      5  C   UNL     1       2.932   3.181  17.885  0.00  0.00    +0.000 A 
ATOM      6  C   UNL     1       2.387   4.243  18.611  0.00  0.00    +0.000 A 
ATOM      7  C   UNL     1       2.859   5.561  18.360  0.00  0.00    +0.000 A 
ENDROOT
BRANCH   3   8
ATOM      8  C   UNL     1       5.401   4.582  15.610  0.00  0.00    +0.000 A 
ATOM      9  C   UNL     1       6.695   5.103  15.835  0.00  0.00    +0.000 A 
ATOM     10  C   UNL     1       7.673   5.095  14.836  0.00  0.00    +0.000 A 
ATOM     11  C   UNL     1       7.384   4.591  13.570  0.00  0.00    +0.000 A 
ATOM     12  C   UNL     1       6.123   4.061  13.321  0.00  0.00    +0.000 A 
ATOM     13  C   UNL     1       5.171   4.014  14.344  0.00  0.00    +0.000 A 
ENDBRANCH   3   8
BRANCH   7  14
ATOM     14  C   UNL     1       2.288   6.749  19.083  0.00  0.00    +0.000 A 
ATOM     15  C   UNL     1       2.035   6.943  20.435  0.00  0.00    +0.000 A 
ATOM     16  C   UNL     1       1.534   8.237  20.756  0.00  0.00    +0.000 A 
ATOM     17  C   UNL     1       1.312   8.984  19.628  0.00  0.00    +0.000 A 
ATOM     18  S   UNL     1       1.905   8.206  18.232  0.00  0.00    +0.000 S 
ENDBRANCH   7  14
BRANCH   5  19
ATOM     19  N   UNL     1       2.470   1.872  17.992  0.00  0.00    +0.000 N 
ATOM     20  H   UNL     1       2.790   1.350  17.180  0.00  0.00    +0.000 HD
ATOM     21  H   UNL     1       2.688   1.408  18.867  0.00  0.00    +0.000 HD
ENDBRANCH   5  19
BRANCH   6  22
ATOM     22  C   UNL     1       1.417   3.921  19.618  0.00  0.00    +0.000 C 
ATOM     23  N   UNL     1       0.623   3.601  20.413  0.00  0.00    +0.000 NA
ENDBRANCH   6  22
TORSDOF 4
ENDMDL
MODEL 9
REMARK VINA RESULT:      -6.3      2.070      6.253
REMARK  Name = 
REMARK  5 active torsions:
REMARK  status: ('A' for Active; 'I' for Inactive)
REMARK    1  A    between atoms: C_1  and  C_2
REMARK    2  A    between atoms: C_3  and  C_4
REMARK    3  A    between atoms: C_11  and  N_12
REMARK    4  A    between atoms: C_13  and  C_14
REMARK    5  A    between atoms: C_16  and  C_17
REMARK                            x       y       z     vdW  Elec       q    Type
REMARK                         _______ _______ _______ _____ _____    ______ ____
ROOT
ATOM      1  C   UNL     1       4.500   7.118  17.116  0.00  0.00    +0.000 C 
ATOM      2  C   UNL     1       3.906   5.752  17.374  0.00  0.00    +0.000 A 
ATOM      3  C   UNL     1       4.378   4.611  16.682  0.00  0.00    +0.000 A 
ATOM      4  N   UNL     1       3.890   3.372  16.945  0.00  0.00    +0.000 NA
ATOM      5  C   UNL     1       2.925   3.209  17.865  0.00  0.00    +0.000 A 
ATOM      6  C   UNL     1       2.379   4.272  18.589  0.00  0.00    +0.000 A 
ATOM      7  C   UNL     1       2.858   5.588  18.342  0.00  0.00    +0.000 A 
ENDROOT
BRANCH   3   8
ATOM      8  C   UNL     1       5.413   4.602  15.608  0.00  0.00    +0.000 A 
ATOM      9  C   UNL     1       5.136   4.054  14.336  0.00  0.00    +0.000 A 
ATOM     10  C   UNL     1       6.092   4.046  13.315  0.00  0.00    +0.000 A 
ATOM     11  C   UNL     1       7.367   4.560  13.540  0.00  0.00    +0.000 A 
ATOM     12  C   UNL     1       7.667   5.117  14.777  0.00  0.00    +0.000 A 
ATOM     13  C   UNL     1       6.686   5.180  15.771  0.00  0.00    +0.000 A 
ENDBRANCH   3   8
BRANCH   7  14
ATOM     14  C   UNL     1       2.286   6.777  19.063  0.00  0.00    +0.000 A 
ATOM     15  C   UNL     1       2.065   6.987  20.418  0.00  0.00    +0.000 A 
ATOM     16  C   UNL     1       1.552   8.278  20.732  0.00  0.00    +0.000 A 
ATOM     17  C   UNL     1       1.289   9.005  19.600  0.00  0.00    +0.000 A 
ATOM     18  S   UNL     1       1.859   8.216  18.200  0.00  0.00    +0.000 S 
ENDBRANCH   7  14
BRANCH   5  19
ATOM     19  N   UNL     1       2.457   1.901  17.968  0.00  0.00    +0.000 N 
ATOM     20  H   UNL     1       3.166   1.275  17.593  0.00  0.00    +0.000 HD
ATOM     21  H   UNL     1       2.142   1.627  18.892  0.00  0.00    +0.000 HD
ENDBRANCH   5  19
BRANCH   6  22
ATOM     22  C   UNL     1       1.401   3.952  19.589  0.00  0.00    +0.000 C 
ATOM     23  N   UNL     1       0.632   3.636  20.409  0.00  0.00    +0.000 NA
ENDBRANCH   6  22
TORSDOF 4
ENDMDL
