MODEL 1
REMARK VINA RESULT:      -6.8      0.000      0.000
REMARK  Name = 
REMARK  5 active torsions:
REMARK  status: ('A' for Active; 'I' for Inactive)
REMARK    1  A    between atoms: C_1  and  O_2
REMARK    2  A    between atoms: O_2  and  C_3
REMARK    3  A    between atoms: C_8  and  C_9
REMARK    4  A    between atoms: C_11  and  C_12
REMARK    5  A    between atoms: C_15  and  C_16
REMARK                            x       y       z     vdW  Elec       q    Type
REMARK                         _______ _______ _______ _____ _____    ______ ____
ROOT
ATOM      1  C   UNL     1       4.185   6.028  17.642  0.00  0.00    +0.000 A 
ATOM      2  N   UNL     1       3.538   7.190  17.346  0.00  0.00    +0.000 NA
ATOM      3  C   UNL     1       2.663   7.726  18.228  0.00  0.00    +0.000 A 
ATOM      4  C   UNL     1       2.099   9.076  17.902  0.00  0.00    +0.000 C 
ATOM      5  C   UNL     1       2.324   7.091  19.409  0.00  0.00    +0.000 A 
ATOM      6  C   UNL     1       2.939   5.881  19.708  0.00  0.00    +0.000 A 
ATOM      7  C   UNL     1       3.896   5.345  18.834  0.00  0.00    +0.000 A 
ENDROOT
BRANCH   1  13
ATOM      8  C   UNL     1       6.529   6.062  16.622  0.00  0.00    +0.000 A 
ATOM      9  N   UNL     1       7.490   5.617  15.766  0.00  0.00    +0.000 NA
ATOM     10  C   UNL     1       7.131   4.712  14.841  0.00  0.00    +0.000 A 
ATOM     11  C   UNL     1       5.844   4.244  14.706  0.00  0.00    +0.000 A 
ATOM     12  C   UNL     1       4.877   4.715  15.590  0.00  0.00    +0.000 A 
ATOM     13  C   UNL     1       5.197   5.609  16.632  0.00  0.00    +0.000 A 
BRANCH   8  15
ATOM     14  C   UNL     1       7.755   6.382  18.568  0.00  0.00    +0.000 C 
ATOM     15  O   UNL     1       6.947   6.985  17.559  0.00  0.00    +0.000 OA
ENDBRANCH   8  15
ENDBRANCH   1  13
BRANCH   7  16
ATOM     16  C   UNL     1       4.542   4.128  19.233  0.00  0.00    +0.000 C 
ATOM     17  N   UNL     1       5.054   3.152  19.591  0.00  0.00    +0.000 NA
ENDBRANCH   7  16
TORSDOF 3
ENDMDL
MODEL 2
REMARK VINA RESULT:      -6.7      2.352      4.994
REMARK  Name = 
REMARK  5 active torsions:
REMARK  status: ('A' for Active; 'I' for Inactive)
REMARK    1  A    between atoms: C_1  and  O_2
REMARK    2  A    between atoms: O_2  and  C_3
REMARK    3  A    between atoms: C_8  and  C_9
REMARK    4  A    between atoms: C_11  and  C_12
REMARK    5  A    between atoms: C_15  and  C_16
REMARK                            x       y       z     vdW  Elec       q    Type
REMARK                         _______ _______ _______ _____ _____    ______ ____
ROOT
ATOM      1  C   UNL     1       4.973   4.147  16.702  0.00  0.00    +0.000 A 
ATOM      2  N   UNL     1       4.913   3.900  15.364  0.00  0.00    +0.000 NA
ATOM      3  C   UNL     1       5.981   4.159  14.575  0.00  0.00    +0.000 A 
ATOM      4  C   UNL     1       5.897   3.728  13.141  0.00  0.00    +0.000 C 
ATOM      5  C   UNL     1       7.131   4.754  15.062  0.00  0.00    +0.000 A 
ATOM      6  C   UNL     1       7.194   5.057  16.417  0.00  0.00    +0.000 A 
ATOM      7  C   UNL     1       6.120   4.736  17.259  0.00  0.00    +0.000 A 
ENDROOT
BRANCH   1  13
ATOM      8  C   UNL     1       2.770   4.600  17.917  0.00  0.00    +0.000 A 
ATOM      9  N   UNL     1       1.618   4.215  18.532  0.00  0.00    +0.000 NA
ATOM     10  C   UNL     1       1.440   2.903  18.759  0.00  0.00    +0.000 A 
ATOM     11  C   UNL     1       2.375   1.949  18.428  0.00  0.00    +0.000 A 
ATOM     12  C   UNL     1       3.548   2.366  17.802  0.00  0.00    +0.000 A 
ATOM     13  C   UNL     1       3.769   3.717  17.466  0.00  0.00    +0.000 A 
BRANCH   8  15
ATOM     14  C   UNL     1       2.855   6.695  18.918  0.00  0.00    +0.000 C 
ATOM     15  O   UNL     1       2.904   5.956  17.698  0.00  0.00    +0.000 OA
ENDBRANCH   8  15
ENDBRANCH   1  13
BRANCH   7  16
ATOM     16  C   UNL     1       6.276   5.013  18.658  0.00  0.00    +0.000 C 
ATOM     17  N   UNL     1       6.432   5.213  19.789  0.00  0.00    +0.000 NA
ENDBRANCH   7  16
TORSDOF 3
ENDMDL
MODEL 3
REMARK VINA RESULT:      -6.6      1.702      3.227
REMARK  Name = 
REMARK  5 active torsions:
REMARK  status: ('A' for Active; 'I' for Inactive)
REMARK    1  A    between atoms: C_1  and  O_2
REMARK    2  A    between atoms: O_2  and  C_3
REMARK    3  A    between atoms: C_8  and  C_9
REMARK    4  A    between atoms: C_11  and  C_12
REMARK    5  A    between atoms: C_15  and  C_16
REMARK                            x       y       z     vdW  Elec       q    Type
REMARK                         _______ _______ _______ _____ _____    ______ ____
ROOT
ATOM      1  C   UNL     1       3.750   4.833  18.971  0.00  0.00    +0.000 A 
ATOM      2  N   UNL     1       3.600   3.755  19.790  0.00  0.00    +0.000 NA
ATOM      3  C   UNL     1       2.620   3.741  20.723  0.00  0.00    +0.000 A 
ATOM      4  C   UNL     1       2.418   2.468  21.489  0.00  0.00    +0.000 C 
ATOM      5  C   UNL     1       1.796   4.830  20.945  0.00  0.00    +0.000 A 
ATOM      6  C   UNL     1       1.965   5.958  20.151  0.00  0.00    +0.000 A 
ATOM      7  C   UNL     1       2.934   5.963  19.137  0.00  0.00    +0.000 A 
ENDROOT
BRANCH   1  13
ATOM      8  C   UNL     1       6.177   4.782  18.169  0.00  0.00    +0.000 A 
ATOM      9  N   UNL     1       7.148   4.544  17.245  0.00  0.00    +0.000 NA
ATOM     10  C   UNL     1       6.760   4.222  16.000  0.00  0.00    +0.000 A 
ATOM     11  C   UNL     1       5.439   4.152  15.618  0.00  0.00    +0.000 A 
ATOM     12  C   UNL     1       4.463   4.401  16.580  0.00  0.00    +0.000 A 
ATOM     13  C   UNL     1       4.796   4.672  17.922  0.00  0.00    +0.000 A 
BRANCH   8  15
ATOM     14  C   UNL     1       7.857   5.819  19.393  0.00  0.00    +0.000 C 
ATOM     15  O   UNL     1       6.624   5.101  19.435  0.00  0.00    +0.000 OA
ENDBRANCH   8  15
ENDBRANCH   1  13
BRANCH   7  16
ATOM     16  C   UNL     1       3.012   7.133  18.309  0.00  0.00    +0.000 C 
ATOM     17  N   UNL     1       3.038   8.071  17.629  0.00  0.00    +0.000 NA
ENDBRANCH   7  16
TORSDOF 3
ENDMDL
MODEL 4
REMARK VINA RESULT:      -6.6      1.630      1.920
REMARK  Name = 
REMARK  5 active torsions:
REMARK  status: ('A' for Active; 'I' for Inactive)
REMARK    1  A    between atoms: C_1  and  O_2
REMARK    2  A    between atoms: O_2  and  C_3
REMARK    3  A    between atoms: C_8  and  C_9
REMARK    4  A    between atoms: C_11  and  C_12
REMARK    5  A    between atoms: C_15  and  C_16
REMARK                            x       y       z     vdW  Elec       q    Type
REMARK                         _______ _______ _______ _____ _____    ______ ____
ROOT
ATOM      1  C   UNL     1       3.794   4.659  18.437  0.00  0.00    +0.000 A 
ATOM      2  N   UNL     1       3.369   5.913  18.759  0.00  0.00    +0.000 NA
ATOM      3  C   UNL     1       2.399   6.085  19.687  0.00  0.00    +0.000 A 
ATOM      4  C   UNL     1       2.084   7.492  20.098  0.00  0.00    +0.000 C 
ATOM      5  C   UNL     1       1.746   5.019  20.278  0.00  0.00    +0.000 A 
ATOM      6  C   UNL     1       2.133   3.731  19.927  0.00  0.00    +0.000 A 
ATOM      7  C   UNL     1       3.180   3.537  19.015  0.00  0.00    +0.000 A 
ENDROOT
BRANCH   1  13
ATOM      8  C   UNL     1       6.287   4.690  17.872  0.00  0.00    +0.000 A 
ATOM      9  N   UNL     1       7.344   4.559  17.024  0.00  0.00    +0.000 NA
ATOM     10  C   UNL     1       7.079   4.392  15.718  0.00  0.00    +0.000 A 
ATOM     11  C   UNL     1       5.803   4.377  15.205  0.00  0.00    +0.000 A 
ATOM     12  C   UNL     1       4.736   4.515  16.091  0.00  0.00    +0.000 A 
ATOM     13  C   UNL     1       4.937   4.620  17.482  0.00  0.00    +0.000 A 
BRANCH   8  15
ATOM     14  C   UNL     1       7.707   5.744  19.377  0.00  0.00    +0.000 C 
ATOM     15  O   UNL     1       6.608   4.851  19.205  0.00  0.00    +0.000 OA
ENDBRANCH   8  15
ENDBRANCH   1  13
BRANCH   7  16
ATOM     16  C   UNL     1       3.576   2.184  18.747  0.00  0.00    +0.000 C 
ATOM     17  N   UNL     1       3.896   1.100  18.493  0.00  0.00    +0.000 NA
ENDBRANCH   7  16
TORSDOF 3
ENDMDL
MODEL 5
REMARK VINA RESULT:      -6.5      2.147      5.126
REMARK  Name = 
REMARK  5 active torsions:
REMARK  status: ('A' for Active; 'I' for Inactive)
REMARK    1  A    between atoms: C_1  and  O_2
REMARK    2  A    between atoms: O_2  and  C_3
REMARK    3  A    between atoms: C_8  and  C_9
REMARK    4  A    between atoms: C_11  and  C_12
REMARK    5  A    between atoms: C_15  and  C_16
REMARK                            x       y       z     vdW  Elec       q    Type
REMARK                         _______ _______ _______ _____ _____    ______ ____
ROOT
ATOM      1  C   UNL     1       5.208   4.873  17.473  0.00  0.00    +0.000 A 
ATOM      2  N   UNL     1       4.813   4.619  16.194  0.00  0.00    +0.000 NA
ATOM      3  C   UNL     1       5.736   4.421  15.223  0.00  0.00    +0.000 A 
ATOM      4  C   UNL     1       5.234   4.002  13.874  0.00  0.00    +0.000 C 
ATOM      5  C   UNL     1       7.093   4.551  15.458  0.00  0.00    +0.000 A 
ATOM      6  C   UNL     1       7.513   4.857  16.747  0.00  0.00    +0.000 A 
ATOM      7  C   UNL     1       6.572   5.001  17.776  0.00  0.00    +0.000 A 
ENDROOT
BRANCH   1  13
ATOM      8  C   UNL     1       3.655   3.884  19.246  0.00  0.00    +0.000 A 
ATOM      9  N   UNL     1       2.704   3.973  20.217  0.00  0.00    +0.000 NA
ATOM     10  C   UNL     1       2.116   5.165  20.408  0.00  0.00    +0.000 A 
ATOM     11  C   UNL     1       2.410   6.278  19.654  0.00  0.00    +0.000 A 
ATOM     12  C   UNL     1       3.383   6.163  18.664  0.00  0.00    +0.000 A 
ATOM     13  C   UNL     1       4.094   4.964  18.458  0.00  0.00    +0.000 A 
BRANCH   8  15
ATOM     14  C   UNL     1       3.379   1.742  18.391  0.00  0.00    +0.000 C 
ATOM     15  O   UNL     1       4.236   2.642  19.092  0.00  0.00    +0.000 OA
ENDBRANCH   8  15
ENDBRANCH   1  13
BRANCH   7  16
ATOM     16  C   UNL     1       7.076   5.249  19.097  0.00  0.00    +0.000 C 
ATOM     17  N   UNL     1       7.500   5.482  20.150  0.00  0.00    +0.000 NA
ENDBRANCH   7  16
TORSDOF 3
ENDMDL
MODEL 6
REMARK VINA RESULT:      -6.3      1.054      3.024
REMARK  Name = 
REMARK  5 active torsions:
REMARK  status: ('A' for Active; 'I' for Inactive)
REMARK    1  A    between atoms: C_1  and  O_2
REMARK    2  A    between atoms: O_2  and  C_3
REMARK    3  A    between atoms: C_8  and  C_9
REMARK    4  A    between atoms: C_11  and  C_12
REMARK    5  A    between atoms: C_15  and  C_16
REMARK                            x       y       z     vdW  Elec       q    Type
REMARK                         _______ _______ _______ _____ _____    ______ ____
ROOT
ATOM      1  C   UNL     1       4.586   4.892  17.970  0.00  0.00    +0.000 A 
ATOM      2  N   UNL     1       4.713   3.737  18.682  0.00  0.00    +0.000 NA
ATOM      3  C   UNL     1       3.933   3.516  19.765  0.00  0.00    +0.000 A 
ATOM      4  C   UNL     1       4.022   2.167  20.412  0.00  0.00    +0.000 C 
ATOM      5  C   UNL     1       3.049   4.466  20.244  0.00  0.00    +0.000 A 
ATOM      6  C   UNL     1       2.939   5.671  19.559  0.00  0.00    +0.000 A 
ATOM      7  C   UNL     1       3.694   5.888  18.398  0.00  0.00    +0.000 A 
ENDROOT
BRANCH   1  13
ATOM      8  C   UNL     1       6.686   5.588  16.689  0.00  0.00    +0.000 A 
ATOM      9  N   UNL     1       7.510   5.575  15.605  0.00  0.00    +0.000 NA
ATOM     10  C   UNL     1       7.075   4.954  14.497  0.00  0.00    +0.000 A 
ATOM     11  C   UNL     1       5.835   4.363  14.404  0.00  0.00    +0.000 A 
ATOM     12  C   UNL     1       5.008   4.390  15.524  0.00  0.00    +0.000 A 
ATOM     13  C   UNL     1       5.429   4.959  16.743  0.00  0.00    +0.000 A 
BRANCH   8  15
ATOM     14  C   UNL     1       7.531   7.584  17.522  0.00  0.00    +0.000 C 
ATOM     15  O   UNL     1       7.181   6.231  17.806  0.00  0.00    +0.000 OA
ENDBRANCH   8  15
ENDBRANCH   1  13
BRANCH   7  16
ATOM     16  C   UNL     1       3.485   7.125  17.700  0.00  0.00    +0.000 C 
ATOM     17  N   UNL     1       3.316   8.141  17.170  0.00  0.00    +0.000 NA
ENDBRANCH   7  16
TORSDOF 3
ENDMDL
MODEL 7
REMARK VINA RESULT:      -6.2      1.664      3.154
REMARK  Name = 
REMARK  5 active torsions:
REMARK  status: ('A' for Active; 'I' for Inactive)
REMARK    1  A    between atoms: C_1  and  O_2
REMARK    2  A    between atoms: O_2  and  C_3
REMARK    3  A    between atoms: C_8  and  C_9
REMARK    4  A    between atoms: C_11  and  C_12
REMARK    5  A    between atoms: C_15  and  C_16
REMARK                            x       y       z     vdW  Elec       q    Type
REMARK                         _______ _______ _______ _____ _____    ______ ____
ROOT
ATOM      1  C   UNL     1       3.856   4.468  17.942  0.00  0.00    +0.000 A 
ATOM      2  N   UNL     1       3.558   3.202  18.350  0.00  0.00    +0.000 NA
ATOM      3  C   UNL     1       2.459   2.972  19.106  0.00  0.00    +0.000 A 
ATOM      4  C   UNL     1       2.111   1.543  19.395  0.00  0.00    +0.000 C 
ATOM      5  C   UNL     1       1.651   3.997  19.564  0.00  0.00    +0.000 A 
ATOM      6  C   UNL     1       1.966   5.300  19.197  0.00  0.00    +0.000 A 
ATOM      7  C   UNL     1       3.064   5.548  18.361  0.00  0.00    +0.000 A 
ENDROOT
BRANCH   1  13
ATOM      8  C   UNL     1       6.362   4.654  17.472  0.00  0.00    +0.000 A 
ATOM      9  N   UNL     1       7.451   4.645  16.655  0.00  0.00    +0.000 NA
ATOM     10  C   UNL     1       7.236   4.586  15.330  0.00  0.00    +0.000 A 
ATOM     11  C   UNL     1       5.978   4.565  14.772  0.00  0.00    +0.000 A 
ATOM     12  C   UNL     1       4.879   4.576  15.628  0.00  0.00    +0.000 A 
ATOM     13  C   UNL     1       5.030   4.563  17.029  0.00  0.00    +0.000 A 
BRANCH   8  15
ATOM     14  C   UNL     1       7.546   5.758  19.139  0.00  0.00    +0.000 C 
ATOM     15  O   UNL     1       6.633   4.707  18.825  0.00  0.00    +0.000 OA
ENDBRANCH   8  15
ENDBRANCH   1  13
BRANCH   7  16
ATOM     16  C   UNL     1       3.295   6.908  17.965  0.00  0.00    +0.000 C 
ATOM     17  N   UNL     1       3.461   7.999  17.613  0.00  0.00    +0.000 NA
ENDBRANCH   7  16
TORSDOF 3
ENDMDL
MODEL 8
REMARK VINA RESULT:      -6.2      2.547      5.134
REMARK  Name = 
REMARK  5 active torsions:
REMARK  status: ('A' for Active; 'I' for Inactive)
REMARK    1  A    between atoms: C_1  and  O_2
REMARK    2  A    between atoms: O_2  and  C_3
REMARK    3  A    between atoms: C_8  and  C_9
REMARK    4  A    between atoms: C_11  and  C_12
REMARK    5  A    between atoms: C_15  and  C_16
REMARK                            x       y       z     vdW  Elec       q    Type
REMARK                         _______ _______ _______ _____ _____    ______ ____
ROOT
ATOM      1  C   UNL     1       3.662   4.692  17.439  0.00  0.00    +0.000 A 
ATOM      2  N   UNL     1       4.417   4.036  16.515  0.00  0.00    +0.000 NA
ATOM      3  C   UNL     1       5.334   4.710  15.782  0.00  0.00    +0.000 A 
ATOM      4  C   UNL     1       6.230   3.903  14.891  0.00  0.00    +0.000 C 
ATOM      5  C   UNL     1       5.485   6.082  15.871  0.00  0.00    +0.000 A 
ATOM      6  C   UNL     1       4.689   6.776  16.775  0.00  0.00    +0.000 A 
ATOM      7  C   UNL     1       3.781   6.083  17.587  0.00  0.00    +0.000 A 
ENDROOT
BRANCH   1  13
ATOM      8  C   UNL     1       3.210   3.049  19.345  0.00  0.00    +0.000 A 
ATOM      9  N   UNL     1       2.394   2.316  20.152  0.00  0.00    +0.000 NA
ATOM     10  C   UNL     1       1.085   2.287  19.855  0.00  0.00    +0.000 A 
ATOM     11  C   UNL     1       0.546   2.935  18.767  0.00  0.00    +0.000 A 
ATOM     12  C   UNL     1       1.399   3.677  17.954  0.00  0.00    +0.000 A 
ATOM     13  C   UNL     1       2.771   3.812  18.247  0.00  0.00    +0.000 A 
BRANCH   8  15
ATOM     14  C   UNL     1       4.887   1.919  20.488  0.00  0.00    +0.000 C 
ATOM     15  O   UNL     1       4.545   3.055  19.695  0.00  0.00    +0.000 OA
ENDBRANCH   8  15
ENDBRANCH   1  13
BRANCH   7  16
ATOM     16  C   UNL     1       3.039   6.849  18.547  0.00  0.00    +0.000 C 
ATOM     17  N   UNL     1       2.407   7.453  19.308  0.00  0.00    +0.000 NA
ENDBRANCH   7  16
TORSDOF 3
ENDMDL
MODEL 9
REMARK VINA RESULT:      -6.1      1.726      3.900
REMARK  Name = 
REMARK  5 active torsions:
REMARK  status: ('A' for Active; 'I' for Inactive)
REMARK    1  A    between atoms: C_1  and  O_2
REMARK    2  A    between atoms: O_2  and  C_3
REMARK    3  A    between atoms: C_8  and  C_9
REMARK    4  A    between atoms: C_11  and  C_12
REMARK    5  A    between atoms: C_15  and  C_16
REMARK                            x       y       z     vdW  Elec       q    Type
REMARK                         _______ _______ _______ _____ _____    ______ ____
ROOT
ATOM      1  C   UNL     1       4.293   4.910  18.180  0.00  0.00    +0.000 A 
ATOM      2  N   UNL     1       4.387   3.554  18.264  0.00  0.00    +0.000 NA
ATOM      3  C   UNL     1       3.267   2.795  18.299  0.00  0.00    +0.000 A 
ATOM      4  C   UNL     1       3.443   1.307  18.243  0.00  0.00    +0.000 C 
ATOM      5  C   UNL     1       2.000   3.350  18.339  0.00  0.00    +0.000 A 
ATOM      6  C   UNL     1       1.885   4.734  18.302  0.00  0.00    +0.000 A 
ATOM      7  C   UNL     1       3.034   5.532  18.200  0.00  0.00    +0.000 A 
ENDROOT
BRANCH   1  13
ATOM      8  C   UNL     1       6.009   6.281  16.873  0.00  0.00    +0.000 A 
ATOM      9  N   UNL     1       7.155   7.009  16.760  0.00  0.00    +0.000 NA
ATOM     10  C   UNL     1       7.969   7.059  17.827  0.00  0.00    +0.000 A 
ATOM     11  C   UNL     1       7.712   6.391  19.002  0.00  0.00    +0.000 A 
ATOM     12  C   UNL     1       6.535   5.651  19.094  0.00  0.00    +0.000 A 
ATOM     13  C   UNL     1       5.599   5.614  18.041  0.00  0.00    +0.000 A 
BRANCH   8  15
ATOM     14  C   UNL     1       5.594   5.249  14.833  0.00  0.00    +0.000 C 
ATOM     15  O   UNL     1       5.201   6.266  15.754  0.00  0.00    +0.000 OA
ENDBRANCH   8  15
ENDBRANCH   1  13
BRANCH   7  16
ATOM     16  C   UNL     1       2.843   6.950  18.099  0.00  0.00    +0.000 C 
ATOM     17  N   UNL     1       2.701   8.099  18.052  0.00  0.00    +0.000 NA
ENDBRANCH   7  16
TORSDOF 3
ENDMDL
