MODEL 1
REMARK VINA RESULT:      -6.0      0.000      0.000
REMARK  Name = 
REMARK  6 active torsions:
REMARK  status: ('A' for Active; 'I' for Inactive)
REMARK    1  A    between atoms: C_1  and  N_2
REMARK    2  A    between atoms: N_2  and  C_3
REMARK    3  A    between atoms: C_3  and  C_4
REMARK    4  A    between atoms: C_4  and  O_5
REMARK    5  A    between atoms: C_4  and  C_6
REMARK    6  A    between atoms: C_9  and  N_10
REMARK                            x       y       z     vdW  Elec       q    Type
REMARK                         _______ _______ _______ _____ _____    ______ ____
ROOT
ATOM      1  C   UNL     1       3.265   3.880  18.289  0.00  0.00    +0.000 A 
ATOM      2  C   UNL     1       3.966   4.503  19.336  0.00  0.00    +0.000 A 
ATOM      3  C   UNL     1       5.302   4.881  19.175  0.00  0.00    +0.000 A 
ATOM      4  C   UNL     1       5.944   4.630  17.954  0.00  0.00    +0.000 A 
ATOM      5  C   UNL     1       5.274   3.988  16.913  0.00  0.00    +0.000 A 
ATOM      6  C   UNL     1       3.937   3.616  17.083  0.00  0.00    +0.000 A 
ENDROOT
BRANCH   4   7
ATOM      7  N   UNL     1       7.330   5.071  17.756  0.00  0.00    +0.000 N 
ATOM      8  O   UNL     1       8.050   4.395  17.005  0.00  0.00    +0.000 OA
ATOM      9  O   UNL     1       7.704   6.086  18.359  0.00  0.00    +0.000 OA
ENDBRANCH   4   7
BRANCH   1  10
ATOM     10  C   UNL     1       1.773   3.632  18.429  0.00  0.00    +0.000 C 
BRANCH  10  11
ATOM     11  O   UNL     1       1.066   4.245  17.346  0.00  0.00    +0.000 OA
ATOM     12  H   UNL     1       1.101   3.640  16.590  0.00  0.00    +0.000 HD
ENDBRANCH  10  11
BRANCH  10  13
ATOM     13  C   UNL     1       1.301   4.185  19.800  0.00  0.00    +0.000 C 
BRANCH  13  15
ATOM     14  C   UNL     1       1.657   2.641  21.606  0.00  0.00    +0.000 C 
ATOM     15  N   UNL     1       0.686   3.161  20.653  0.00  0.00    +0.000 NA
ATOM     16  H   UNL     1      -0.117   3.560  21.142  0.00  0.00    +0.000 HD
ENDBRANCH  13  15
ENDBRANCH  10  13
ENDBRANCH   1  10
TORSDOF 5
ENDMDL
MODEL 2
REMARK VINA RESULT:      -5.9      1.316      1.829
REMARK  Name = 
REMARK  6 active torsions:
REMARK  status: ('A' for Active; 'I' for Inactive)
REMARK    1  A    between atoms: C_1  and  N_2
REMARK    2  A    between atoms: N_2  and  C_3
REMARK    3  A    between atoms: C_3  and  C_4
REMARK    4  A    between atoms: C_4  and  O_5
REMARK    5  A    between atoms: C_4  and  C_6
REMARK    6  A    between atoms: C_9  and  N_10
REMARK                            x       y       z     vdW  Elec       q    Type
REMARK                         _______ _______ _______ _____ _____    ______ ____
ROOT
ATOM      1  C   UNL     1       3.793   3.757  18.329  0.00  0.00    +0.000 A 
ATOM      2  C   UNL     1       3.919   3.790  16.929  0.00  0.00    +0.000 A 
ATOM      3  C   UNL     1       4.943   4.525  16.323  0.00  0.00    +0.000 A 
ATOM      4  C   UNL     1       5.845   5.236  17.126  0.00  0.00    +0.000 A 
ATOM      5  C   UNL     1       5.719   5.238  18.515  0.00  0.00    +0.000 A 
ATOM      6  C   UNL     1       4.694   4.498  19.111  0.00  0.00    +0.000 A 
ENDROOT
BRANCH   4   7
ATOM      7  N   UNL     1       6.955   5.967  16.502  0.00  0.00    +0.000 N 
ATOM      8  O   UNL     1       7.530   5.435  15.540  0.00  0.00    +0.000 OA
ATOM      9  O   UNL     1       7.262   7.068  16.981  0.00  0.00    +0.000 OA
ENDBRANCH   4   7
BRANCH   1  10
ATOM     10  C   UNL     1       2.781   2.820  18.967  0.00  0.00    +0.000 C 
BRANCH  10  11
ATOM     11  O   UNL     1       2.531   1.703  18.109  0.00  0.00    +0.000 OA
ATOM     12  H   UNL     1       1.933   1.998  17.405  0.00  0.00    +0.000 HD
ENDBRANCH  10  11
BRANCH  10  13
ATOM     13  C   UNL     1       1.480   3.614  19.259  0.00  0.00    +0.000 C 
BRANCH  13  15
ATOM     14  C   UNL     1       1.595   2.824  21.525  0.00  0.00    +0.000 C 
ATOM     15  N   UNL     1       0.717   3.074  20.390  0.00  0.00    +0.000 NA
ATOM     16  H   UNL     1      -0.023   3.729  20.648  0.00  0.00    +0.000 HD
ENDBRANCH  13  15
ENDBRANCH  10  13
ENDBRANCH   1  10
TORSDOF 5
ENDMDL
MODEL 3
REMARK VINA RESULT:      -5.9      1.665      2.033
REMARK  Name = 
REMARK  6 active torsions:
REMARK  status: ('A' for Active; 'I' for Inactive)
REMARK    1  A    between atoms: C_1  and  N_2
REMARK    2  A    between atoms: N_2  and  C_3
REMARK    3  A    between atoms: C_3  and  C_4
REMARK    4  A    between atoms: C_4  and  O_5
REMARK    5  A    between atoms: C_4  and  C_6
REMARK    6  A    between atoms: C_9  and  N_10
REMARK                            x       y       z     vdW  Elec       q    Type
REMARK                         _______ _______ _______ _____ _____    ______ ____
ROOT
ATOM      1  C   UNL     1       3.597   5.552  18.861  0.00  0.00    +0.000 A 
ATOM      2  C   UNL     1       3.923   6.449  17.828  0.00  0.00    +0.000 A 
ATOM      3  C   UNL     1       5.141   6.343  17.149  0.00  0.00    +0.000 A 
ATOM      4  C   UNL     1       6.042   5.332  17.510  0.00  0.00    +0.000 A 
ATOM      5  C   UNL     1       5.749   4.451  18.551  0.00  0.00    +0.000 A 
ATOM      6  C   UNL     1       4.528   4.563  19.222  0.00  0.00    +0.000 A 
ENDROOT
BRANCH   4   7
ATOM      7  N   UNL     1       7.300   5.179  16.769  0.00  0.00    +0.000 N 
ATOM      8  O   UNL     1       7.508   5.948  15.818  0.00  0.00    +0.000 OA
ATOM      9  O   UNL     1       8.075   4.281  17.128  0.00  0.00    +0.000 OA
ENDBRANCH   4   7
BRANCH   1  10
ATOM     10  C   UNL     1       2.205   5.582  19.467  0.00  0.00    +0.000 C 
BRANCH  10  11
ATOM     11  O   UNL     1       2.265   6.039  20.821  0.00  0.00    +0.000 OA
ATOM     12  H   UNL     1       2.634   5.322  21.360  0.00  0.00    +0.000 HD
ENDBRANCH  10  11
BRANCH  10  13
ATOM     13  C   UNL     1       1.589   4.160  19.375  0.00  0.00    +0.000 C 
BRANCH  13  15
ATOM     14  C   UNL     1       1.390   2.757  21.315  0.00  0.00    +0.000 C 
ATOM     15  N   UNL     1       0.761   3.815  20.536  0.00  0.00    +0.000 NA
ATOM     16  H   UNL     1       0.616   4.645  21.112  0.00  0.00    +0.000 HD
ENDBRANCH  13  15
ENDBRANCH  10  13
ENDBRANCH   1  10
TORSDOF 5
ENDMDL
MODEL 4
REMARK VINA RESULT:      -5.9      1.310      1.576
REMARK  Name = 
REMARK  6 active torsions:
REMARK  status: ('A' for Active; 'I' for Inactive)
REMARK    1  A    between atoms: C_1  and  N_2
REMARK    2  A    between atoms: N_2  and  C_3
REMARK    3  A    between atoms: C_3  and  C_4
REMARK    4  A    between atoms: C_4  and  O_5
REMARK    5  A    between atoms: C_4  and  C_6
REMARK    6  A    between atoms: C_9  and  N_10
REMARK                            x       y       z     vdW  Elec       q    Type
REMARK                         _______ _______ _______ _____ _____    ______ ____
ROOT
ATOM      1  C   UNL     1       3.954   3.475  18.306  0.00  0.00    +0.000 A 
ATOM      2  C   UNL     1       4.962   4.075  19.080  0.00  0.00    +0.000 A 
ATOM      3  C   UNL     1       5.954   4.857  18.479  0.00  0.00    +0.000 A 
ATOM      4  C   UNL     1       5.937   5.037  17.089  0.00  0.00    +0.000 A 
ATOM      5  C   UNL     1       4.961   4.427  16.301  0.00  0.00    +0.000 A 
ATOM      6  C   UNL     1       3.972   3.649  16.912  0.00  0.00    +0.000 A 
ENDROOT
BRANCH   4   7
ATOM      7  N   UNL     1       6.941   5.899  16.454  0.00  0.00    +0.000 N 
ATOM      8  O   UNL     1       7.194   6.986  16.994  0.00  0.00    +0.000 OA
ATOM      9  O   UNL     1       7.468   5.495  15.408  0.00  0.00    +0.000 OA
ENDBRANCH   4   7
BRANCH   1  10
ATOM     10  C   UNL     1       2.797   2.773  18.996  0.00  0.00    +0.000 C 
BRANCH  10  11
ATOM     11  O   UNL     1       2.282   1.732  18.161  0.00  0.00    +0.000 OA
ATOM     12  H   UNL     1       1.330   1.661  18.329  0.00  0.00    +0.000 HD
ENDBRANCH  10  11
BRANCH  10  13
ATOM     13  C   UNL     1       1.705   3.823  19.334  0.00  0.00    +0.000 C 
BRANCH  13  15
ATOM     14  C   UNL     1       1.493   2.746  21.472  0.00  0.00    +0.000 C 
ATOM     15  N   UNL     1       0.770   3.368  20.370  0.00  0.00    +0.000 NA
ATOM     16  H   UNL     1       0.220   4.160  20.706  0.00  0.00    +0.000 HD
ENDBRANCH  13  15
ENDBRANCH  10  13
ENDBRANCH   1  10
TORSDOF 5
ENDMDL
MODEL 5
REMARK VINA RESULT:      -5.8      1.532      1.977
REMARK  Name = 
REMARK  6 active torsions:
REMARK  status: ('A' for Active; 'I' for Inactive)
REMARK    1  A    between atoms: C_1  and  N_2
REMARK    2  A    between atoms: N_2  and  C_3
REMARK    3  A    between atoms: C_3  and  C_4
REMARK    4  A    between atoms: C_4  and  O_5
REMARK    5  A    between atoms: C_4  and  C_6
REMARK    6  A    between atoms: C_9  and  N_10
REMARK                            x       y       z     vdW  Elec       q    Type
REMARK                         _______ _______ _______ _____ _____    ______ ____
ROOT
ATOM      1  C   UNL     1       3.264   5.130  17.900  0.00  0.00    +0.000 A 
ATOM      2  C   UNL     1       3.716   3.920  17.344  0.00  0.00    +0.000 A 
ATOM      3  C   UNL     1       4.988   3.829  16.771  0.00  0.00    +0.000 A 
ATOM      4  C   UNL     1       5.814   4.961  16.751  0.00  0.00    +0.000 A 
ATOM      5  C   UNL     1       5.373   6.178  17.272  0.00  0.00    +0.000 A 
ATOM      6  C   UNL     1       4.100   6.258  17.845  0.00  0.00    +0.000 A 
ENDROOT
BRANCH   4   7
ATOM      7  N   UNL     1       7.171   4.863  16.200  0.00  0.00    +0.000 N 
ATOM      8  O   UNL     1       7.391   5.404  15.106  0.00  0.00    +0.000 OA
ATOM      9  O   UNL     1       8.014   4.235  16.854  0.00  0.00    +0.000 OA
ENDBRANCH   4   7
BRANCH   1  10
ATOM     10  C   UNL     1       1.951   5.160  18.663  0.00  0.00    +0.000 C 
BRANCH  10  11
ATOM     11  O   UNL     1       2.085   5.954  19.845  0.00  0.00    +0.000 OA
ATOM     12  H   UNL     1       3.010   6.235  19.910  0.00  0.00    +0.000 HD
ENDBRANCH  10  11
BRANCH  10  13
ATOM     13  C   UNL     1       1.536   3.703  19.002  0.00  0.00    +0.000 C 
BRANCH  13  15
ATOM     14  C   UNL     1       1.360   2.809  21.226  0.00  0.00    +0.000 C 
ATOM     15  N   UNL     1       0.698   3.608  20.203  0.00  0.00    +0.000 NA
ATOM     16  H   UNL     1       0.497   4.545  20.556  0.00  0.00    +0.000 HD
ENDBRANCH  13  15
ENDBRANCH  10  13
ENDBRANCH   1  10
TORSDOF 5
ENDMDL
MODEL 6
REMARK VINA RESULT:      -5.8      1.813      2.023
REMARK  Name = 
REMARK  6 active torsions:
REMARK  status: ('A' for Active; 'I' for Inactive)
REMARK    1  A    between atoms: C_1  and  N_2
REMARK    2  A    between atoms: N_2  and  C_3
REMARK    3  A    between atoms: C_3  and  C_4
REMARK    4  A    between atoms: C_4  and  O_5
REMARK    5  A    between atoms: C_4  and  C_6
REMARK    6  A    between atoms: C_9  and  N_10
REMARK                            x       y       z     vdW  Elec       q    Type
REMARK                         _______ _______ _______ _____ _____    ______ ____
ROOT
ATOM      1  C   UNL     1       3.453   5.543  18.972  0.00  0.00    +0.000 A 
ATOM      2  C   UNL     1       4.417   4.587  19.339  0.00  0.00    +0.000 A 
ATOM      3  C   UNL     1       5.644   4.519  18.674  0.00  0.00    +0.000 A 
ATOM      4  C   UNL     1       5.908   5.414  17.628  0.00  0.00    +0.000 A 
ATOM      5  C   UNL     1       4.954   6.350  17.230  0.00  0.00    +0.000 A 
ATOM      6  C   UNL     1       3.731   6.412  17.903  0.00  0.00    +0.000 A 
ENDROOT
BRANCH   4   7
ATOM      7  N   UNL     1       7.214   5.386  16.958  0.00  0.00    +0.000 N 
ATOM      8  O   UNL     1       7.937   4.395  17.141  0.00  0.00    +0.000 OA
ATOM      9  O   UNL     1       7.523   6.360  16.258  0.00  0.00    +0.000 OA
ENDBRANCH   4   7
BRANCH   1  10
ATOM     10  C   UNL     1       2.201   5.707  19.816  0.00  0.00    +0.000 C 
BRANCH  10  11
ATOM     11  O   UNL     1       2.290   6.897  20.605  0.00  0.00    +0.000 OA
ATOM     12  H   UNL     1       1.391   7.147  20.867  0.00  0.00    +0.000 HD
ENDBRANCH  10  11
BRANCH  10  13
ATOM     13  C   UNL     1       2.028   4.447  20.705  0.00  0.00    +0.000 C 
BRANCH  13  15
ATOM     14  C   UNL     1       0.953   2.788  19.340  0.00  0.00    +0.000 C 
ATOM     15  N   UNL     1       0.778   3.724  20.442  0.00  0.00    +0.000 NA
ATOM     16  H   UNL     1       0.484   3.232  21.286  0.00  0.00    +0.000 HD
ENDBRANCH  13  15
ENDBRANCH  10  13
ENDBRANCH   1  10
TORSDOF 5
ENDMDL
MODEL 7
REMARK VINA RESULT:      -5.8      2.150      5.430
REMARK  Name = 
REMARK  6 active torsions:
REMARK  status: ('A' for Active; 'I' for Inactive)
REMARK    1  A    between atoms: C_1  and  N_2
REMARK    2  A    between atoms: N_2  and  C_3
REMARK    3  A    between atoms: C_3  and  C_4
REMARK    4  A    between atoms: C_4  and  O_5
REMARK    5  A    between atoms: C_4  and  C_6
REMARK    6  A    between atoms: C_9  and  N_10
REMARK                            x       y       z     vdW  Elec       q    Type
REMARK                         _______ _______ _______ _____ _____    ______ ____
ROOT
ATOM      1  C   UNL     1       4.272   5.068  17.207  0.00  0.00    +0.000 A 
ATOM      2  C   UNL     1       3.449   5.789  18.090  0.00  0.00    +0.000 A 
ATOM      3  C   UNL     1       2.345   5.180  18.695  0.00  0.00    +0.000 A 
ATOM      4  C   UNL     1       2.061   3.838  18.410  0.00  0.00    +0.000 A 
ATOM      5  C   UNL     1       2.849   3.114  17.515  0.00  0.00    +0.000 A 
ATOM      6  C   UNL     1       3.952   3.731  16.917  0.00  0.00    +0.000 A 
ENDROOT
BRANCH   4   7
ATOM      7  N   UNL     1       0.936   3.173  19.080  0.00  0.00    +0.000 N 
ATOM      8  O   UNL     1       0.673   3.516  20.243  0.00  0.00    +0.000 OA
ATOM      9  O   UNL     1       0.324   2.301  18.450  0.00  0.00    +0.000 OA
ENDBRANCH   4   7
BRANCH   1  10
ATOM     10  C   UNL     1       5.556   5.699  16.696  0.00  0.00    +0.000 C 
BRANCH  10  11
ATOM     11  O   UNL     1       5.348   6.260  15.397  0.00  0.00    +0.000 OA
ATOM     12  H   UNL     1       4.819   5.630  14.883  0.00  0.00    +0.000 HD
ENDBRANCH  10  11
BRANCH  10  13
ATOM     13  C   UNL     1       6.670   4.618  16.676  0.00  0.00    +0.000 C 
BRANCH  13  15
ATOM     14  C   UNL     1       7.681   5.656  18.593  0.00  0.00    +0.000 C 
ATOM     15  N   UNL     1       7.276   4.392  17.993  0.00  0.00    +0.000 NA
ATOM     16  H   UNL     1       6.611   3.907  18.597  0.00  0.00    +0.000 HD
ENDBRANCH  13  15
ENDBRANCH  10  13
ENDBRANCH   1  10
TORSDOF 5
ENDMDL
MODEL 8
REMARK VINA RESULT:      -5.8      1.406      1.553
REMARK  Name = 
REMARK  6 active torsions:
REMARK  status: ('A' for Active; 'I' for Inactive)
REMARK    1  A    between atoms: C_1  and  N_2
REMARK    2  A    between atoms: N_2  and  C_3
REMARK    3  A    between atoms: C_3  and  C_4
REMARK    4  A    between atoms: C_4  and  O_5
REMARK    5  A    between atoms: C_4  and  C_6
REMARK    6  A    between atoms: C_9  and  N_10
REMARK                            x       y       z     vdW  Elec       q    Type
REMARK                         _______ _______ _______ _____ _____    ______ ____
ROOT
ATOM      1  C   UNL     1       3.549   4.882  18.709  0.00  0.00    +0.000 A 
ATOM      2  C   UNL     1       4.688   5.294  19.424  0.00  0.00    +0.000 A 
ATOM      3  C   UNL     1       5.965   5.155  18.873  0.00  0.00    +0.000 A 
ATOM      4  C   UNL     1       6.104   4.596  17.596  0.00  0.00    +0.000 A 
ATOM      5  C   UNL     1       4.989   4.156  16.882  0.00  0.00    +0.000 A 
ATOM      6  C   UNL     1       3.716   4.301  17.441  0.00  0.00    +0.000 A 
ENDROOT
BRANCH   4   7
ATOM      7  N   UNL     1       7.436   4.495  16.985  0.00  0.00    +0.000 N 
ATOM      8  O   UNL     1       8.374   4.118  17.704  0.00  0.00    +0.000 OA
ATOM      9  O   UNL     1       7.547   4.804  15.791  0.00  0.00    +0.000 OA
ENDBRANCH   4   7
BRANCH   1  10
ATOM     10  C   UNL     1       2.167   5.196  19.256  0.00  0.00    +0.000 C 
BRANCH  10  11
ATOM     11  O   UNL     1       2.274   5.955  20.464  0.00  0.00    +0.000 OA
ATOM     12  H   UNL     1       2.427   5.333  21.192  0.00  0.00    +0.000 HD
ENDBRANCH  10  11
BRANCH  10  13
ATOM     13  C   UNL     1       1.407   3.863  19.488  0.00  0.00    +0.000 C 
BRANCH  13  15
ATOM     14  C   UNL     1       1.480   2.731  21.607  0.00  0.00    +0.000 C 
ATOM     15  N   UNL     1       2.150   2.915  20.326  0.00  0.00    +0.000 NA
ATOM     16  H   UNL     1       2.238   2.023  19.837  0.00  0.00    +0.000 HD
ENDBRANCH  13  15
ENDBRANCH  10  13
ENDBRANCH   1  10
TORSDOF 5
ENDMDL
MODEL 9
REMARK VINA RESULT:      -5.8      0.881      1.548
REMARK  Name = 
REMARK  6 active torsions:
REMARK  status: ('A' for Active; 'I' for Inactive)
REMARK    1  A    between atoms: C_1  and  N_2
REMARK    2  A    between atoms: N_2  and  C_3
REMARK    3  A    between atoms: C_3  and  C_4
REMARK    4  A    between atoms: C_4  and  O_5
REMARK    5  A    between atoms: C_4  and  C_6
REMARK    6  A    between atoms: C_9  and  N_10
REMARK                            x       y       z     vdW  Elec       q    Type
REMARK                         _______ _______ _______ _____ _____    ______ ____
ROOT
ATOM      1  C   UNL     1       3.329   4.180  18.372  0.00  0.00    +0.000 A 
ATOM      2  C   UNL     1       3.751   3.686  17.125  0.00  0.00    +0.000 A 
ATOM      3  C   UNL     1       5.023   3.992  16.630  0.00  0.00    +0.000 A 
ATOM      4  C   UNL     1       5.878   4.802  17.388  0.00  0.00    +0.000 A 
ATOM      5  C   UNL     1       5.467   5.325  18.615  0.00  0.00    +0.000 A 
ATOM      6  C   UNL     1       4.195   5.011  19.102  0.00  0.00    +0.000 A 
ENDROOT
BRANCH   4   7
ATOM      7  N   UNL     1       7.234   5.086  16.902  0.00  0.00    +0.000 N 
ATOM      8  O   UNL     1       8.111   4.232  17.106  0.00  0.00    +0.000 OA
ATOM      9  O   UNL     1       7.426   6.167  16.329  0.00  0.00    +0.000 OA
ENDBRANCH   4   7
BRANCH   1  10
ATOM     10  C   UNL     1       2.015   3.698  18.963  0.00  0.00    +0.000 C 
BRANCH  10  11
ATOM     11  O   UNL     1       0.987   3.727  17.969  0.00  0.00    +0.000 OA
ATOM     12  H   UNL     1       0.503   4.562  18.068  0.00  0.00    +0.000 HD
ENDBRANCH  10  11
BRANCH  10  13
ATOM     13  C   UNL     1       1.656   4.594  20.178  0.00  0.00    +0.000 C 
BRANCH  13  15
ATOM     14  C   UNL     1       1.522   2.554  21.442  0.00  0.00    +0.000 C 
ATOM     15  N   UNL     1       1.933   3.952  21.468  0.00  0.00    +0.000 NA
ATOM     16  H   UNL     1       2.928   4.027  21.682  0.00  0.00    +0.000 HD
ENDBRANCH  13  15
ENDBRANCH  10  13
ENDBRANCH   1  10
TORSDOF 5
ENDMDL
