MODEL 1
REMARK VINA RESULT:      -9.5      0.000      0.000
REMARK  Name = 
REMARK  7 active torsions:
REMARK  status: ('A' for Active; 'I' for Inactive)
REMARK    1  A    between atoms: C_1  and  O_2
REMARK    2  A    between atoms: O_2  and  C_3
REMARK    3  A    between atoms: C_6  and  N_7
REMARK    4  A    between atoms: C_11  and  C_12
REMARK    5  A    between atoms: C_12  and  N_13
REMARK    6  A    between atoms: C_15  and  C_16
REMARK    7  A    between atoms: C_22  and  C_23
REMARK                            x       y       z     vdW  Elec       q    Type
REMARK                         _______ _______ _______ _____ _____    ______ ____
ROOT
ATOM      1  N   UNL     1       5.993   6.001  17.565  0.00  0.00    +0.000 N 
ATOM      2  N   UNL     1       4.898   6.823  17.710  0.00  0.00    +0.000 NA
ATOM      3  C   UNL     1       3.917   6.395  18.449  0.00  0.00    +0.000 A 
ATOM      4  C   UNL     1       3.967   4.970  18.997  0.00  0.00    +0.000 A 
ATOM      5  N   UNL     1       5.056   4.274  18.902  0.00  0.00    +0.000 NA
ATOM      6  C   UNL     1       6.137   4.786  18.238  0.00  0.00    +0.000 A 
ATOM      7  O   UNL     1       7.201   4.164  18.209  0.00  0.00    +0.000 OA
ENDROOT
BRANCH   3   8
ATOM      8  C   UNL     1       2.784   7.326  18.725  0.00  0.00    +0.000 A 
ATOM      9  C   UNL     1       2.254   7.383  20.020  0.00  0.00    +0.000 A 
ATOM     10  C   UNL     1       1.291   8.345  20.343  0.00  0.00    +0.000 A 
ATOM     11  C   UNL     1       0.864   9.258  19.378  0.00  0.00    +0.000 A 
ATOM     12  C   UNL     1       1.345   9.166  18.074  0.00  0.00    +0.000 A 
ATOM     13  C   UNL     1       2.266   8.172  17.738  0.00  0.00    +0.000 A 
ENDBRANCH   3   8
BRANCH   4  14
ATOM     14  C   UNL     1       2.803   4.336  19.674  0.00  0.00    +0.000 A 
ATOM     15  C   UNL     1       2.751   4.161  21.062  0.00  0.00    +0.000 A 
ATOM     16  C   UNL     1       1.753   3.361  21.625  0.00  0.00    +0.000 A 
ATOM     17  C   UNL     1       0.760   2.810  20.816  0.00  0.00    +0.000 A 
ATOM     18  C   UNL     1       0.745   3.076  19.448  0.00  0.00    +0.000 A 
ATOM     19  C   UNL     1       1.765   3.837  18.876  0.00  0.00    +0.000 A 
ENDBRANCH   4  14
BRANCH   1  20
ATOM     20  C   UNL     1       7.131   6.541  16.833  0.00  0.00    +0.000 C 
BRANCH  20  25
ATOM     21  N   UNL     1       8.200  11.048  17.650  0.00  0.00    +0.000 N 
ATOM     22  C   UNL     1       8.192   9.732  17.940  0.00  0.00    +0.000 A 
ATOM     23  N   UNL     1       8.803   9.017  18.861  0.00  0.00    +0.000 NA
ATOM     24  N   UNL     1       8.495   7.697  18.624  0.00  0.00    +0.000 NA
ATOM     25  C   UNL     1       7.720   7.691  17.562  0.00  0.00    +0.000 A 
ATOM     26  O   UNL     1       7.448   8.951  17.096  0.00  0.00    +0.000 OA
ATOM     27  H   UNL     1       7.688  11.313  16.818  0.00  0.00    +0.000 HD
BRANCH  21  31
ATOM     28  C   UNL     1      11.251  13.704  18.915  0.00  0.00    +0.000 A 
ATOM     29  C   UNL     1      11.558  12.450  18.391  0.00  0.00    +0.000 A 
ATOM     30  C   UNL     1      10.542  11.600  17.939  0.00  0.00    +0.000 A 
ATOM     31  C   UNL     1       9.192  11.969  18.039  0.00  0.00    +0.000 A 
ATOM     32  C   UNL     1       8.905  13.243  18.546  0.00  0.00    +0.000 A 
ATOM     33  C   UNL     1       9.920  14.099  18.990  0.00  0.00    +0.000 A 
BRANCH  28  35
ATOM     34  C   UNL     1      11.996  15.599  20.109  0.00  0.00    +0.000 C 
ATOM     35  O   UNL     1      12.319  14.439  19.351  0.00  0.00    +0.000 OA
ENDBRANCH  28  35
ENDBRANCH  21  31
ENDBRANCH  20  25
ENDBRANCH   1  20
TORSDOF 6
ENDMDL
MODEL 2
REMARK VINA RESULT:      -8.8      0.424      1.486
REMARK  Name = 
REMARK  7 active torsions:
REMARK  status: ('A' for Active; 'I' for Inactive)
REMARK    1  A    between atoms: C_1  and  O_2
REMARK    2  A    between atoms: O_2  and  C_3
REMARK    3  A    between atoms: C_6  and  N_7
REMARK    4  A    between atoms: C_11  and  C_12
REMARK    5  A    between atoms: C_12  and  N_13
REMARK    6  A    between atoms: C_15  and  C_16
REMARK    7  A    between atoms: C_22  and  C_23
REMARK                            x       y       z     vdW  Elec       q    Type
REMARK                         _______ _______ _______ _____ _____    ______ ____
ROOT
ATOM      1  N   UNL     1       6.200   6.083  17.396  0.00  0.00    +0.000 N 
ATOM      2  N   UNL     1       5.120   6.904  17.634  0.00  0.00    +0.000 NA
ATOM      3  C   UNL     1       4.122   6.407  18.302  0.00  0.00    +0.000 A 
ATOM      4  C   UNL     1       4.135   4.923  18.664  0.00  0.00    +0.000 A 
ATOM      5  N   UNL     1       5.211   4.221  18.493  0.00  0.00    +0.000 NA
ATOM      6  C   UNL     1       6.310   4.789  17.910  0.00  0.00    +0.000 A 
ATOM      7  O   UNL     1       7.361   4.153  17.813  0.00  0.00    +0.000 OA
ENDROOT
BRANCH   3   8
ATOM      8  C   UNL     1       3.004   7.320  18.683  0.00  0.00    +0.000 A 
ATOM      9  C   UNL     1       2.503   8.213  17.728  0.00  0.00    +0.000 A 
ATOM     10  C   UNL     1       1.367   8.978  18.010  0.00  0.00    +0.000 A 
ATOM     11  C   UNL     1       0.722   8.845  19.239  0.00  0.00    +0.000 A 
ATOM     12  C   UNL     1       1.251   8.002  20.213  0.00  0.00    +0.000 A 
ATOM     13  C   UNL     1       2.417   7.278  19.953  0.00  0.00    +0.000 A 
ENDBRANCH   3   8
BRANCH   4  14
ATOM     14  C   UNL     1       2.949   4.234  19.243  0.00  0.00    +0.000 A 
ATOM     15  C   UNL     1       1.858   3.840  18.459  0.00  0.00    +0.000 A 
ATOM     16  C   UNL     1       0.679   3.410  19.074  0.00  0.00    +0.000 A 
ATOM     17  C   UNL     1       0.619   3.290  20.462  0.00  0.00    +0.000 A 
ATOM     18  C   UNL     1       1.741   3.575  21.238  0.00  0.00    +0.000 A 
ATOM     19  C   UNL     1       2.906   4.047  20.631  0.00  0.00    +0.000 A 
ENDBRANCH   4  14
BRANCH   1  20
ATOM     20  C   UNL     1       7.358   6.686  16.750  0.00  0.00    +0.000 C 
BRANCH  20  25
ATOM     21  N   UNL     1       8.571  11.101  17.829  0.00  0.00    +0.000 N 
ATOM     22  C   UNL     1       8.443   9.784  18.080  0.00  0.00    +0.000 A 
ATOM     23  N   UNL     1       8.873   9.014  19.058  0.00  0.00    +0.000 NA
ATOM     24  N   UNL     1       8.522   7.721  18.745  0.00  0.00    +0.000 NA
ATOM     25  C   UNL     1       7.906   7.783  17.585  0.00  0.00    +0.000 A 
ATOM     26  O   UNL     1       7.780   9.067  17.120  0.00  0.00    +0.000 OA
ATOM     27  H   UNL     1       8.199  11.412  16.941  0.00  0.00    +0.000 HD
BRANCH  21  31
ATOM     28  C   UNL     1      11.445  13.781  19.418  0.00  0.00    +0.000 A 
ATOM     29  C   UNL     1      10.083  13.959  19.656  0.00  0.00    +0.000 A 
ATOM     30  C   UNL     1       9.148  13.043  19.159  0.00  0.00    +0.000 A 
ATOM     31  C   UNL     1       9.552  11.950  18.378  0.00  0.00    +0.000 A 
ATOM     32  C   UNL     1      10.926  11.774  18.171  0.00  0.00    +0.000 A 
ATOM     33  C   UNL     1      11.864  12.684  18.674  0.00  0.00    +0.000 A 
BRANCH  28  35
ATOM     34  C   UNL     1      11.631  15.987  20.236  0.00  0.00    +0.000 C 
ATOM     35  O   UNL     1      12.264  14.751  19.927  0.00  0.00    +0.000 OA
ENDBRANCH  28  35
ENDBRANCH  21  31
ENDBRANCH  20  25
ENDBRANCH   1  20
TORSDOF 6
ENDMDL
MODEL 3
REMARK VINA RESULT:      -8.7      1.886      2.055
REMARK  Name = 
REMARK  7 active torsions:
REMARK  status: ('A' for Active; 'I' for Inactive)
REMARK    1  A    between atoms: C_1  and  O_2
REMARK    2  A    between atoms: O_2  and  C_3
REMARK    3  A    between atoms: C_6  and  N_7
REMARK    4  A    between atoms: C_11  and  C_12
REMARK    5  A    between atoms: C_12  and  N_13
REMARK    6  A    between atoms: C_15  and  C_16
REMARK    7  A    between atoms: C_22  and  C_23
REMARK                            x       y       z     vdW  Elec       q    Type
REMARK                         _______ _______ _______ _____ _____    ______ ____
ROOT
ATOM      1  N   UNL     1       6.232   6.124  17.697  0.00  0.00    +0.000 N 
ATOM      2  N   UNL     1       5.119   6.935  17.735  0.00  0.00    +0.000 NA
ATOM      3  C   UNL     1       4.095   6.520  18.420  0.00  0.00    +0.000 A 
ATOM      4  C   UNL     1       4.123   5.115  19.020  0.00  0.00    +0.000 A 
ATOM      5  N   UNL     1       5.224   4.431  19.026  0.00  0.00    +0.000 NA
ATOM      6  C   UNL     1       6.342   4.935  18.421  0.00  0.00    +0.000 A 
ATOM      7  O   UNL     1       7.412   4.328  18.488  0.00  0.00    +0.000 OA
ENDROOT
BRANCH   3   8
ATOM      8  C   UNL     1       2.934   7.444  18.583  0.00  0.00    +0.000 A 
ATOM      9  C   UNL     1       2.313   7.537  19.835  0.00  0.00    +0.000 A 
ATOM     10  C   UNL     1       1.319   8.495  20.055  0.00  0.00    +0.000 A 
ATOM     11  C   UNL     1       0.951   9.370  19.032  0.00  0.00    +0.000 A 
ATOM     12  C   UNL     1       1.525   9.241  17.770  0.00  0.00    +0.000 A 
ATOM     13  C   UNL     1       2.479   8.249  17.533  0.00  0.00    +0.000 A 
ENDBRANCH   3   8
BRANCH   4  14
ATOM     14  C   UNL     1       2.921   4.489  19.637  0.00  0.00    +0.000 A 
ATOM     15  C   UNL     1       2.793   4.326  21.022  0.00  0.00    +0.000 A 
ATOM     16  C   UNL     1       1.763   3.533  21.536  0.00  0.00    +0.000 A 
ATOM     17  C   UNL     1       0.815   2.977  20.678  0.00  0.00    +0.000 A 
ATOM     18  C   UNL     1       0.876   3.231  19.309  0.00  0.00    +0.000 A 
ATOM     19  C   UNL     1       1.928   3.986  18.788  0.00  0.00    +0.000 A 
ENDBRANCH   4  14
BRANCH   1  20
ATOM     20  C   UNL     1       7.412   6.653  17.026  0.00  0.00    +0.000 C 
BRANCH  20  25
ATOM     21  N   UNL     1       9.499   9.839  19.786  0.00  0.00    +0.000 N 
ATOM     22  C   UNL     1       8.693   9.450  18.780  0.00  0.00    +0.000 A 
ATOM     23  N   UNL     1       7.835  10.099  18.021  0.00  0.00    +0.000 NA
ATOM     24  N   UNL     1       7.220   9.169  17.213  0.00  0.00    +0.000 NA
ATOM     25  C   UNL     1       7.738   8.006  17.539  0.00  0.00    +0.000 A 
ATOM     26  O   UNL     1       8.712   8.110  18.498  0.00  0.00    +0.000 OA
ATOM     27  H   UNL     1      10.002   9.094  20.252  0.00  0.00    +0.000 HD
BRANCH  21  31
ATOM     28  C   UNL     1       9.194  13.378  22.099  0.00  0.00    +0.000 A 
ATOM     29  C   UNL     1       9.854  13.373  20.872  0.00  0.00    +0.000 A 
ATOM     30  C   UNL     1       9.912  12.207  20.100  0.00  0.00    +0.000 A 
ATOM     31  C   UNL     1       9.345  11.008  20.558  0.00  0.00    +0.000 A 
ATOM     32  C   UNL     1       8.664  11.039  21.781  0.00  0.00    +0.000 A 
ATOM     33  C   UNL     1       8.597  12.206  22.552  0.00  0.00    +0.000 A 
BRANCH  28  35
ATOM     34  C   UNL     1       8.175  14.755  23.722  0.00  0.00    +0.000 C 
ATOM     35  O   UNL     1       9.224  14.564  22.780  0.00  0.00    +0.000 OA
ENDBRANCH  28  35
ENDBRANCH  21  31
ENDBRANCH  20  25
ENDBRANCH   1  20
TORSDOF 6
ENDMDL
MODEL 4
REMARK VINA RESULT:      -7.9      5.273      8.559
REMARK  Name = 
REMARK  7 active torsions:
REMARK  status: ('A' for Active; 'I' for Inactive)
REMARK    1  A    between atoms: C_1  and  O_2
REMARK    2  A    between atoms: O_2  and  C_3
REMARK    3  A    between atoms: C_6  and  N_7
REMARK    4  A    between atoms: C_11  and  C_12
REMARK    5  A    between atoms: C_12  and  N_13
REMARK    6  A    between atoms: C_15  and  C_16
REMARK    7  A    between atoms: C_22  and  C_23
REMARK                            x       y       z     vdW  Elec       q    Type
REMARK                         _______ _______ _______ _____ _____    ______ ____
ROOT
ATOM      1  N   UNL     1       0.583   8.913  21.077  0.00  0.00    +0.000 N 
ATOM      2  N   UNL     1      -0.310   9.142  20.053  0.00  0.00    +0.000 NA
ATOM      3  C   UNL     1      -0.806  10.339  19.944  0.00  0.00    +0.000 A 
ATOM      4  C   UNL     1      -0.488  11.376  21.020  0.00  0.00    +0.000 A 
ATOM      5  N   UNL     1       0.422  11.133  21.910  0.00  0.00    +0.000 NA
ATOM      6  C   UNL     1       1.041   9.914  21.936  0.00  0.00    +0.000 A 
ATOM      7  O   UNL     1       1.961   9.700  22.728  0.00  0.00    +0.000 OA
ENDROOT
BRANCH   3   8
ATOM      8  C   UNL     1      -1.668  10.639  18.763  0.00  0.00    +0.000 A 
ATOM      9  C   UNL     1      -1.356  10.053  17.530  0.00  0.00    +0.000 A 
ATOM     10  C   UNL     1      -2.224  10.201  16.443  0.00  0.00    +0.000 A 
ATOM     11  C   UNL     1      -3.409  10.923  16.588  0.00  0.00    +0.000 A 
ATOM     12  C   UNL     1      -3.693  11.556  17.795  0.00  0.00    +0.000 A 
ATOM     13  C   UNL     1      -2.800  11.454  18.865  0.00  0.00    +0.000 A 
ENDBRANCH   3   8
BRANCH   4  14
ATOM     14  C   UNL     1      -1.174  12.696  21.080  0.00  0.00    +0.000 A 
ATOM     15  C   UNL     1      -0.711  13.810  20.370  0.00  0.00    +0.000 A 
ATOM     16  C   UNL     1      -1.245  15.074  20.635  0.00  0.00    +0.000 A 
ATOM     17  C   UNL     1      -2.296  15.213  21.541  0.00  0.00    +0.000 A 
ATOM     18  C   UNL     1      -2.834  14.088  22.166  0.00  0.00    +0.000 A 
ATOM     19  C   UNL     1      -2.274  12.831  21.937  0.00  0.00    +0.000 A 
ENDBRANCH   4  14
BRANCH   1  20
ATOM     20  C   UNL     1       1.219   7.603  21.118  0.00  0.00    +0.000 C 
BRANCH  20  25
ATOM     21  N   UNL     1       3.665   5.083  17.988  0.00  0.00    +0.000 N 
ATOM     22  C   UNL     1       3.021   6.185  18.419  0.00  0.00    +0.000 A 
ATOM     23  N   UNL     1       2.921   7.407  17.939  0.00  0.00    +0.000 NA
ATOM     24  N   UNL     1       2.208   8.148  18.853  0.00  0.00    +0.000 NA
ATOM     25  C   UNL     1       1.926   7.329  19.843  0.00  0.00    +0.000 A 
ATOM     26  O   UNL     1       2.373   6.053  19.618  0.00  0.00    +0.000 OA
ATOM     27  H   UNL     1       3.634   4.289  18.614  0.00  0.00    +0.000 HD
BRANCH  21  31
ATOM     28  C   UNL     1       6.907   5.185  15.258  0.00  0.00    +0.000 A 
ATOM     29  C   UNL     1       7.001   5.785  16.513  0.00  0.00    +0.000 A 
ATOM     30  C   UNL     1       5.937   5.708  17.420  0.00  0.00    +0.000 A 
ATOM     31  C   UNL     1       4.739   5.063  17.076  0.00  0.00    +0.000 A 
ATOM     32  C   UNL     1       4.673   4.446  15.820  0.00  0.00    +0.000 A 
ATOM     33  C   UNL     1       5.738   4.514  14.915  0.00  0.00    +0.000 A 
BRANCH  28  35
ATOM     34  C   UNL     1       7.769   5.088  13.064  0.00  0.00    +0.000 C 
ATOM     35  O   UNL     1       7.994   5.347  14.445  0.00  0.00    +0.000 OA
ENDBRANCH  28  35
ENDBRANCH  21  31
ENDBRANCH  20  25
ENDBRANCH   1  20
TORSDOF 6
ENDMDL
MODEL 5
REMARK VINA RESULT:      -7.9      5.548     10.393
REMARK  Name = 
REMARK  7 active torsions:
REMARK  status: ('A' for Active; 'I' for Inactive)
REMARK    1  A    between atoms: C_1  and  O_2
REMARK    2  A    between atoms: O_2  and  C_3
REMARK    3  A    between atoms: C_6  and  N_7
REMARK    4  A    between atoms: C_11  and  C_12
REMARK    5  A    between atoms: C_12  and  N_13
REMARK    6  A    between atoms: C_15  and  C_16
REMARK    7  A    between atoms: C_22  and  C_23
REMARK                            x       y       z     vdW  Elec       q    Type
REMARK                         _______ _______ _______ _____ _____    ______ ____
ROOT
ATOM      1  N   UNL     1       0.117  11.864  20.429  0.00  0.00    +0.000 N 
ATOM      2  N   UNL     1       1.029  12.561  21.190  0.00  0.00    +0.000 NA
ATOM      3  C   UNL     1       1.499  13.671  20.701  0.00  0.00    +0.000 A 
ATOM      4  C   UNL     1       1.129  14.068  19.272  0.00  0.00    +0.000 A 
ATOM      5  N   UNL     1       0.203  13.421  18.636  0.00  0.00    +0.000 NA
ATOM      6  C   UNL     1      -0.386  12.331  19.213  0.00  0.00    +0.000 A 
ATOM      7  O   UNL     1      -1.320  11.757  18.649  0.00  0.00    +0.000 OA
ENDROOT
BRANCH   3   8
ATOM      8  C   UNL     1       2.383  14.505  21.566  0.00  0.00    +0.000 A 
ATOM      9  C   UNL     1       3.743  14.183  21.655  0.00  0.00    +0.000 A 
ATOM     10  C   UNL     1       4.620  15.029  22.343  0.00  0.00    +0.000 A 
ATOM     11  C   UNL     1       4.145  16.201  22.931  0.00  0.00    +0.000 A 
ATOM     12  C   UNL     1       2.784  16.493  22.895  0.00  0.00    +0.000 A 
ATOM     13  C   UNL     1       1.899  15.623  22.256  0.00  0.00    +0.000 A 
ENDBRANCH   3   8
BRANCH   4  14
ATOM     14  C   UNL     1       1.781  15.206  18.568  0.00  0.00    +0.000 A 
ATOM     15  C   UNL     1       1.201  16.479  18.513  0.00  0.00    +0.000 A 
ATOM     16  C   UNL     1       1.731  17.447  17.654  0.00  0.00    +0.000 A 
ATOM     17  C   UNL     1       2.884  17.174  16.920  0.00  0.00    +0.000 A 
ATOM     18  C   UNL     1       3.527  15.945  17.059  0.00  0.00    +0.000 A 
ATOM     19  C   UNL     1       2.977  14.961  17.882  0.00  0.00    +0.000 A 
ENDBRANCH   4  14
BRANCH   1  20
ATOM     20  C   UNL     1      -0.488  10.687  21.038  0.00  0.00    +0.000 C 
BRANCH  20  25
ATOM     21  N   UNL     1       2.370   7.721  18.765  0.00  0.00    +0.000 N 
ATOM     22  C   UNL     1       1.696   8.169  19.842  0.00  0.00    +0.000 A 
ATOM     23  N   UNL     1       1.474   7.654  21.034  0.00  0.00    +0.000 NA
ATOM     24  N   UNL     1       0.636   8.518  21.702  0.00  0.00    +0.000 NA
ATOM     25  C   UNL     1       0.391   9.504  20.866  0.00  0.00    +0.000 A 
ATOM     26  O   UNL     1       1.065   9.373  19.679  0.00  0.00    +0.000 OA
ATOM     27  H   UNL     1       2.305   8.303  17.939  0.00  0.00    +0.000 HD
BRANCH  21  31
ATOM     28  C   UNL     1       3.501   3.729  17.896  0.00  0.00    +0.000 A 
ATOM     29  C   UNL     1       4.406   4.631  18.452  0.00  0.00    +0.000 A 
ATOM     30  C   UNL     1       4.008   5.934  18.771  0.00  0.00    +0.000 A 
ATOM     31  C   UNL     1       2.704   6.377  18.504  0.00  0.00    +0.000 A 
ATOM     32  C   UNL     1       1.801   5.450  17.968  0.00  0.00    +0.000 A 
ATOM     33  C   UNL     1       2.195   4.143  17.656  0.00  0.00    +0.000 A 
BRANCH  28  35
ATOM     34  C   UNL     1       3.576   1.436  18.449  0.00  0.00    +0.000 C 
ATOM     35  O   UNL     1       4.006   2.493  17.599  0.00  0.00    +0.000 OA
ENDBRANCH  28  35
ENDBRANCH  21  31
ENDBRANCH  20  25
ENDBRANCH   1  20
TORSDOF 6
ENDMDL
MODEL 6
REMARK VINA RESULT:      -7.9      6.189     10.539
REMARK  Name = 
REMARK  7 active torsions:
REMARK  status: ('A' for Active; 'I' for Inactive)
REMARK    1  A    between atoms: C_1  and  O_2
REMARK    2  A    between atoms: O_2  and  C_3
REMARK    3  A    between atoms: C_6  and  N_7
REMARK    4  A    between atoms: C_11  and  C_12
REMARK    5  A    between atoms: C_12  and  N_13
REMARK    6  A    between atoms: C_15  and  C_16
REMARK    7  A    between atoms: C_22  and  C_23
REMARK                            x       y       z     vdW  Elec       q    Type
REMARK                         _______ _______ _______ _____ _____    ______ ____
ROOT
ATOM      1  N   UNL     1      -1.271  12.011  18.883  0.00  0.00    +0.000 N 
ATOM      2  N   UNL     1      -1.516  12.586  20.111  0.00  0.00    +0.000 NA
ATOM      3  C   UNL     1      -2.750  12.636  20.518  0.00  0.00    +0.000 A 
ATOM      4  C   UNL     1      -3.862  12.190  19.570  0.00  0.00    +0.000 A 
ATOM      5  N   UNL     1      -3.570  11.581  18.464  0.00  0.00    +0.000 NA
ATOM      6  C   UNL     1      -2.262  11.409  18.106  0.00  0.00    +0.000 A 
ATOM      7  O   UNL     1      -1.973  10.763  17.096  0.00  0.00    +0.000 OA
ENDROOT
BRANCH   3   8
ATOM      8  C   UNL     1      -3.017  13.131  21.900  0.00  0.00    +0.000 A 
ATOM      9  C   UNL     1      -3.011  14.512  22.137  0.00  0.00    +0.000 A 
ATOM     10  C   UNL     1      -3.397  15.011  23.386  0.00  0.00    +0.000 A 
ATOM     11  C   UNL     1      -3.803  14.136  24.393  0.00  0.00    +0.000 A 
ATOM     12  C   UNL     1      -3.754  12.760  24.180  0.00  0.00    +0.000 A 
ATOM     13  C   UNL     1      -3.316  12.259  22.952  0.00  0.00    +0.000 A 
ENDBRANCH   3   8
BRANCH   4  14
ATOM     14  C   UNL     1      -5.303  12.406  19.877  0.00  0.00    +0.000 A 
ATOM     15  C   UNL     1      -5.853  13.687  20.010  0.00  0.00    +0.000 A 
ATOM     16  C   UNL     1      -7.146  13.838  20.521  0.00  0.00    +0.000 A 
ATOM     17  C   UNL     1      -7.916  12.714  20.816  0.00  0.00    +0.000 A 
ATOM     18  C   UNL     1      -7.410  11.437  20.579  0.00  0.00    +0.000 A 
ATOM     19  C   UNL     1      -6.105  11.282  20.110  0.00  0.00    +0.000 A 
ENDBRANCH   4  14
BRANCH   1  20
ATOM     20  C   UNL     1       0.124  11.856  18.493  0.00  0.00    +0.000 C 
BRANCH  20  25
ATOM     21  N   UNL     1       2.633   7.883  18.282  0.00  0.00    +0.000 N 
ATOM     22  C   UNL     1       1.798   8.759  18.873  0.00  0.00    +0.000 A 
ATOM     23  N   UNL     1       1.073   8.700  19.971  0.00  0.00    +0.000 NA
ATOM     24  N   UNL     1       0.335   9.860  20.035  0.00  0.00    +0.000 NA
ATOM     25  C   UNL     1       0.652  10.551  18.962  0.00  0.00    +0.000 A 
ATOM     26  O   UNL     1       1.608   9.934  18.197  0.00  0.00    +0.000 OA
ATOM     27  H   UNL     1       2.999   8.170  17.383  0.00  0.00    +0.000 HD
BRANCH  21  31
ATOM     28  C   UNL     1       2.527   3.700  18.959  0.00  0.00    +0.000 A 
ATOM     29  C   UNL     1       1.685   4.301  18.025  0.00  0.00    +0.000 A 
ATOM     30  C   UNL     1       1.760   5.677  17.782  0.00  0.00    +0.000 A 
ATOM     31  C   UNL     1       2.651   6.490  18.498  0.00  0.00    +0.000 A 
ATOM     32  C   UNL     1       3.506   5.865  19.415  0.00  0.00    +0.000 A 
ATOM     33  C   UNL     1       3.440   4.487  19.653  0.00  0.00    +0.000 A 
BRANCH  28  35
ATOM     34  C   UNL     1       3.445   1.536  18.746  0.00  0.00    +0.000 C 
ATOM     35  O   UNL     1       2.349   2.355  19.134  0.00  0.00    +0.000 OA
ENDBRANCH  28  35
ENDBRANCH  21  31
ENDBRANCH  20  25
ENDBRANCH   1  20
TORSDOF 6
ENDMDL
MODEL 7
REMARK VINA RESULT:      -7.8      5.559      7.594
REMARK  Name = 
REMARK  7 active torsions:
REMARK  status: ('A' for Active; 'I' for Inactive)
REMARK    1  A    between atoms: C_1  and  O_2
REMARK    2  A    between atoms: O_2  and  C_3
REMARK    3  A    between atoms: C_6  and  N_7
REMARK    4  A    between atoms: C_11  and  C_12
REMARK    5  A    between atoms: C_12  and  N_13
REMARK    6  A    between atoms: C_15  and  C_16
REMARK    7  A    between atoms: C_22  and  C_23
REMARK                            x       y       z     vdW  Elec       q    Type
REMARK                         _______ _______ _______ _____ _____    ______ ____
ROOT
ATOM      1  N   UNL     1       0.878  14.827  20.326  0.00  0.00    +0.000 N 
ATOM      2  N   UNL     1       0.714  13.713  21.120  0.00  0.00    +0.000 NA
ATOM      3  C   UNL     1       0.052  12.711  20.623  0.00  0.00    +0.000 A 
ATOM      4  C   UNL     1      -0.619  12.868  19.259  0.00  0.00    +0.000 A 
ATOM      5  N   UNL     1      -0.360  13.902  18.521  0.00  0.00    +0.000 NA
ATOM      6  C   UNL     1       0.450  14.894  18.999  0.00  0.00    +0.000 A 
ATOM      7  O   UNL     1       0.764  15.842  18.276  0.00  0.00    +0.000 OA
ENDROOT
BRANCH   3   8
ATOM      8  C   UNL     1      -0.021  11.450  21.417  0.00  0.00    +0.000 A 
ATOM      9  C   UNL     1       0.911  10.435  21.163  0.00  0.00    +0.000 A 
ATOM     10  C   UNL     1       0.958   9.304  21.984  0.00  0.00    +0.000 A 
ATOM     11  C   UNL     1       0.086   9.189  23.066  0.00  0.00    +0.000 A 
ATOM     12  C   UNL     1      -0.880  10.168  23.286  0.00  0.00    +0.000 A 
ATOM     13  C   UNL     1      -0.964  11.271  22.434  0.00  0.00    +0.000 A 
ENDBRANCH   3   8
BRANCH   4  14
ATOM     14  C   UNL     1      -1.560  11.851  18.713  0.00  0.00    +0.000 A 
ATOM     15  C   UNL     1      -1.118  10.748  17.973  0.00  0.00    +0.000 A 
ATOM     16  C   UNL     1      -2.044   9.953  17.290  0.00  0.00    +0.000 A 
ATOM     17  C   UNL     1      -3.409  10.206  17.417  0.00  0.00    +0.000 A 
ATOM     18  C   UNL     1      -3.856  11.236  18.243  0.00  0.00    +0.000 A 
ATOM     19  C   UNL     1      -2.933  12.059  18.890  0.00  0.00    +0.000 A 
ENDBRANCH   4  14
BRANCH   1  20
ATOM     20  C   UNL     1       1.720  15.894  20.851  0.00  0.00    +0.000 C 
BRANCH  20  25
ATOM     21  N   UNL     1       5.895  15.549  18.712  0.00  0.00    +0.000 N 
ATOM     22  C   UNL     1       5.048  15.396  19.748  0.00  0.00    +0.000 A 
ATOM     23  N   UNL     1       5.153  14.774  20.904  0.00  0.00    +0.000 NA
ATOM     24  N   UNL     1       3.932  14.870  21.532  0.00  0.00    +0.000 NA
ATOM     25  C   UNL     1       3.154  15.540  20.711  0.00  0.00    +0.000 A 
ATOM     26  O   UNL     1       3.805  15.945  19.575  0.00  0.00    +0.000 OA
ATOM     27  H   UNL     1       5.511  16.018  17.902  0.00  0.00    +0.000 HD
BRANCH  21  31
ATOM     28  C   UNL     1       9.337  13.232  17.844  0.00  0.00    +0.000 A 
ATOM     29  C   UNL     1       9.400  14.321  18.712  0.00  0.00    +0.000 A 
ATOM     30  C   UNL     1       8.248  15.052  19.021  0.00  0.00    +0.000 A 
ATOM     31  C   UNL     1       7.012  14.735  18.437  0.00  0.00    +0.000 A 
ATOM     32  C   UNL     1       6.963  13.623  17.587  0.00  0.00    +0.000 A 
ATOM     33  C   UNL     1       8.113  12.884  17.283  0.00  0.00    +0.000 A 
BRANCH  28  35
ATOM     34  C   UNL     1      11.684  13.274  18.086  0.00  0.00    +0.000 C 
ATOM     35  O   UNL     1      10.528  12.608  17.593  0.00  0.00    +0.000 OA
ENDBRANCH  28  35
ENDBRANCH  21  31
ENDBRANCH  20  25
ENDBRANCH   1  20
TORSDOF 6
ENDMDL
MODEL 8
REMARK VINA RESULT:      -7.8      5.819     10.486
REMARK  Name = 
REMARK  7 active torsions:
REMARK  status: ('A' for Active; 'I' for Inactive)
REMARK    1  A    between atoms: C_1  and  O_2
REMARK    2  A    between atoms: O_2  and  C_3
REMARK    3  A    between atoms: C_6  and  N_7
REMARK    4  A    between atoms: C_11  and  C_12
REMARK    5  A    between atoms: C_12  and  N_13
REMARK    6  A    between atoms: C_15  and  C_16
REMARK    7  A    between atoms: C_22  and  C_23
REMARK                            x       y       z     vdW  Elec       q    Type
REMARK                         _______ _______ _______ _____ _____    ______ ____
ROOT
ATOM      1  N   UNL     1      -0.228  11.987  20.224  0.00  0.00    +0.000 N 
ATOM      2  N   UNL     1       0.604  12.728  21.036  0.00  0.00    +0.000 NA
ATOM      3  C   UNL     1       0.924  13.924  20.639  0.00  0.00    +0.000 A 
ATOM      4  C   UNL     1       0.485  14.389  19.252  0.00  0.00    +0.000 A 
ATOM      5  N   UNL     1      -0.365  13.687  18.569  0.00  0.00    +0.000 NA
ATOM      6  C   UNL     1      -0.805  12.487  19.056  0.00  0.00    +0.000 A 
ATOM      7  O   UNL     1      -1.670  11.851  18.451  0.00  0.00    +0.000 OA
ENDROOT
BRANCH   3   8
ATOM      8  C   UNL     1       1.712  14.787  21.567  0.00  0.00    +0.000 A 
ATOM      9  C   UNL     1       3.094  14.586  21.669  0.00  0.00    +0.000 A 
ATOM     10  C   UNL     1       3.878  15.470  22.419  0.00  0.00    +0.000 A 
ATOM     11  C   UNL     1       3.287  16.560  23.057  0.00  0.00    +0.000 A 
ATOM     12  C   UNL     1       1.905  16.728  23.007  0.00  0.00    +0.000 A 
ATOM     13  C   UNL     1       1.115  15.816  22.303  0.00  0.00    +0.000 A 
ENDBRANCH   3   8
BRANCH   4  14
ATOM     14  C   UNL     1       0.979  15.654  18.643  0.00  0.00    +0.000 A 
ATOM     15  C   UNL     1       0.137  16.748  18.409  0.00  0.00    +0.000 A 
ATOM     16  C   UNL     1       0.589  17.818  17.632  0.00  0.00    +0.000 A 
ATOM     17  C   UNL     1       1.901  17.837  17.163  0.00  0.00    +0.000 A 
ATOM     18  C   UNL     1       2.775  16.801  17.488  0.00  0.00    +0.000 A 
ATOM     19  C   UNL     1       2.316  15.710  18.227  0.00  0.00    +0.000 A 
ENDBRANCH   4  14
BRANCH   1  20
ATOM     20  C   UNL     1      -0.672  10.697  20.736  0.00  0.00    +0.000 C 
BRANCH  20  25
ATOM     21  N   UNL     1       2.340   8.116  18.207  0.00  0.00    +0.000 N 
ATOM     22  C   UNL     1       1.731   8.499  19.347  0.00  0.00    +0.000 A 
ATOM     23  N   UNL     1       1.732   8.007  20.569  0.00  0.00    +0.000 NA
ATOM     24  N   UNL     1       0.849   8.759  21.311  0.00  0.00    +0.000 NA
ATOM     25  C   UNL     1       0.358   9.658  20.488  0.00  0.00    +0.000 A 
ATOM     26  O   UNL     1       0.902   9.583  19.232  0.00  0.00    +0.000 OA
ATOM     27  H   UNL     1       2.089   8.645  17.382  0.00  0.00    +0.000 HD
BRANCH  21  31
ATOM     28  C   UNL     1       3.812   4.196  17.547  0.00  0.00    +0.000 A 
ATOM     29  C   UNL     1       2.470   4.421  17.848  0.00  0.00    +0.000 A 
ATOM     30  C   UNL     1       1.990   5.724  18.024  0.00  0.00    +0.000 A 
ATOM     31  C   UNL     1       2.850   6.829  17.941  0.00  0.00    +0.000 A 
ATOM     32  C   UNL     1       4.189   6.585  17.613  0.00  0.00    +0.000 A 
ATOM     33  C   UNL     1       4.671   5.283  17.428  0.00  0.00    +0.000 A 
BRANCH  28  35
ATOM     34  C   UNL     1       3.337   1.950  18.093  0.00  0.00    +0.000 C 
ATOM     35  O   UNL     1       4.177   2.883  17.424  0.00  0.00    +0.000 OA
ENDBRANCH  28  35
ENDBRANCH  21  31
ENDBRANCH  20  25
ENDBRANCH   1  20
TORSDOF 6
ENDMDL
MODEL 9
REMARK VINA RESULT:      -7.7      5.212      8.541
REMARK  Name = 
REMARK  7 active torsions:
REMARK  status: ('A' for Active; 'I' for Inactive)
REMARK    1  A    between atoms: C_1  and  O_2
REMARK    2  A    between atoms: O_2  and  C_3
REMARK    3  A    between atoms: C_6  and  N_7
REMARK    4  A    between atoms: C_11  and  C_12
REMARK    5  A    between atoms: C_12  and  N_13
REMARK    6  A    between atoms: C_15  and  C_16
REMARK    7  A    between atoms: C_22  and  C_23
REMARK                            x       y       z     vdW  Elec       q    Type
REMARK                         _______ _______ _______ _____ _____    ______ ____
ROOT
ATOM      1  N   UNL     1       0.492   8.917  21.101  0.00  0.00    +0.000 N 
ATOM      2  N   UNL     1      -0.404   9.183  20.088  0.00  0.00    +0.000 NA
ATOM      3  C   UNL     1      -0.878  10.391  20.006  0.00  0.00    +0.000 A 
ATOM      4  C   UNL     1      -0.533  11.401  21.099  0.00  0.00    +0.000 A 
ATOM      5  N   UNL     1       0.379  11.123  21.978  0.00  0.00    +0.000 NA
ATOM      6  C   UNL     1       0.976   9.892  21.975  0.00  0.00    +0.000 A 
ATOM      7  O   UNL     1       1.897   9.647  22.756  0.00  0.00    +0.000 OA
ENDROOT
BRANCH   3   8
ATOM      8  C   UNL     1      -1.743  10.730  18.838  0.00  0.00    +0.000 A 
ATOM      9  C   UNL     1      -1.389  10.251  17.571  0.00  0.00    +0.000 A 
ATOM     10  C   UNL     1      -2.253  10.432  16.486  0.00  0.00    +0.000 A 
ATOM     11  C   UNL     1      -3.476  11.079  16.666  0.00  0.00    +0.000 A 
ATOM     12  C   UNL     1      -3.804  11.608  17.911  0.00  0.00    +0.000 A 
ATOM     13  C   UNL     1      -2.918  11.476  18.983  0.00  0.00    +0.000 A 
ENDBRANCH   3   8
BRANCH   4  14
ATOM     14  C   UNL     1      -1.194  12.731  21.191  0.00  0.00    +0.000 A 
ATOM     15  C   UNL     1      -2.372  12.931  21.920  0.00  0.00    +0.000 A 
ATOM     16  C   UNL     1      -3.076  14.132  21.789  0.00  0.00    +0.000 A 
ATOM     17  C   UNL     1      -2.560  15.161  21.003  0.00  0.00    +0.000 A 
ATOM     18  C   UNL     1      -1.331  15.006  20.365  0.00  0.00    +0.000 A 
ATOM     19  C   UNL     1      -0.647  13.793  20.458  0.00  0.00    +0.000 A 
ENDBRANCH   4  14
BRANCH   1  20
ATOM     20  C   UNL     1       1.104   7.595  21.111  0.00  0.00    +0.000 C 
BRANCH  20  25
ATOM     21  N   UNL     1       3.825   5.247  18.075  0.00  0.00    +0.000 N 
ATOM     22  C   UNL     1       3.066   6.289  18.468  0.00  0.00    +0.000 A 
ATOM     23  N   UNL     1       2.842   7.477  17.947  0.00  0.00    +0.000 NA
ATOM     24  N   UNL     1       2.047   8.168  18.834  0.00  0.00    +0.000 NA
ATOM     25  C   UNL     1       1.846   7.357  19.848  0.00  0.00    +0.000 A 
ATOM     26  O   UNL     1       2.426   6.128  19.668  0.00  0.00    +0.000 OA
ATOM     27  H   UNL     1       3.873   4.475  18.727  0.00  0.00    +0.000 HD
BRANCH  21  31
ATOM     28  C   UNL     1       7.057   5.280  15.333  0.00  0.00    +0.000 A 
ATOM     29  C   UNL     1       5.845   4.671  15.013  0.00  0.00    +0.000 A 
ATOM     30  C   UNL     1       4.773   4.703  15.912  0.00  0.00    +0.000 A 
ATOM     31  C   UNL     1       4.903   5.312  17.169  0.00  0.00    +0.000 A 
ATOM     32  C   UNL     1       6.119   5.940  17.463  0.00  0.00    +0.000 A 
ATOM     33  C   UNL     1       7.191   5.917  16.562  0.00  0.00    +0.000 A 
BRANCH  28  35
ATOM     34  C   UNL     1       7.595   4.960  13.057  0.00  0.00    +0.000 C 
ATOM     35  O   UNL     1       8.043   5.163  14.392  0.00  0.00    +0.000 OA
ENDBRANCH  28  35
ENDBRANCH  21  31
ENDBRANCH  20  25
ENDBRANCH   1  20
TORSDOF 6
ENDMDL
