MODEL 1
REMARK VINA RESULT:      -7.5      0.000      0.000
REMARK  Name = 
REMARK  4 active torsions:
REMARK  status: ('A' for Active; 'I' for Inactive)
REMARK    1  A    between atoms: C_1  and  C_2
REMARK    2  A    between atoms: C_5  and  C_6
REMARK    3  A    between atoms: N_8  and  C_9
REMARK    4  A    between atoms: C_9  and  C_10
REMARK                            x       y       z     vdW  Elec       q    Type
REMARK                         _______ _______ _______ _____ _____    ______ ____
ROOT
ATOM      1  C   UNL     1       6.609   4.984  15.474  0.00  0.00    +0.000 C 
ATOM      2  O   UNL     1       7.337   5.799  16.034  0.00  0.00    +0.000 OA
ATOM      3  N   UNL     1       5.566   4.355  16.119  0.00  0.00    +0.000 N 
ATOM      4  H   UNL     1       5.017   3.698  15.578  0.00  0.00    +0.000 HD
ENDROOT
BRANCH   1   9
ATOM      5  C   UNL     1       5.623   2.360  11.531  0.00  0.00    +0.000 C 
ATOM      6  C   UNL     1       6.337   3.419  12.272  0.00  0.00    +0.000 A 
ATOM      7  C   UNL     1       7.314   4.325  11.923  0.00  0.00    +0.000 A 
ATOM      8  C   UNL     1       7.587   5.082  13.088  0.00  0.00    +0.000 A 
ATOM      9  C   UNL     1       6.762   4.596  14.086  0.00  0.00    +0.000 A 
ATOM     10  O   UNL     1       5.994   3.576  13.582  0.00  0.00    +0.000 OA
ENDBRANCH   1   9
BRANCH   3  11
ATOM     11  C   UNL     1       5.207   4.614  17.494  0.00  0.00    +0.000 C 
BRANCH  11  12
ATOM     12  C   UNL     1       3.890   3.972  17.861  0.00  0.00    +0.000 A 
ATOM     13  C   UNL     1       2.698   4.707  17.754  0.00  0.00    +0.000 A 
ATOM     14  C   UNL     1       1.468   4.117  18.051  0.00  0.00    +0.000 A 
ATOM     15  C   UNL     1       1.425   2.788  18.450  0.00  0.00    +0.000 A 
ATOM     16  F   UNL     1       0.244   2.220  18.729  0.00  0.00    +0.000 F 
ATOM     17  C   UNL     1       2.589   2.037  18.559  0.00  0.00    +0.000 A 
ATOM     18  C   UNL     1       3.822   2.626  18.264  0.00  0.00    +0.000 A 
ENDBRANCH  11  12
ENDBRANCH   3  11
TORSDOF 3
ENDMDL
MODEL 2
REMARK VINA RESULT:      -7.3      1.882      2.327
REMARK  Name = 
REMARK  4 active torsions:
REMARK  status: ('A' for Active; 'I' for Inactive)
REMARK    1  A    between atoms: C_1  and  C_2
REMARK    2  A    between atoms: C_5  and  C_6
REMARK    3  A    between atoms: N_8  and  C_9
REMARK    4  A    between atoms: C_9  and  C_10
REMARK                            x       y       z     vdW  Elec       q    Type
REMARK                         _______ _______ _______ _____ _____    ______ ____
ROOT
ATOM      1  C   UNL     1       6.795   4.638  17.159  0.00  0.00    +0.000 C 
ATOM      2  O   UNL     1       7.777   4.366  17.845  0.00  0.00    +0.000 OA
ATOM      3  N   UNL     1       5.612   5.090  17.704  0.00  0.00    +0.000 N 
ATOM      4  H   UNL     1       4.855   5.291  17.062  0.00  0.00    +0.000 HD
ENDROOT
BRANCH   1   9
ATOM      5  C   UNL     1       8.235   5.661  12.655  0.00  0.00    +0.000 C 
ATOM      6  C   UNL     1       7.401   4.959  13.651  0.00  0.00    +0.000 A 
ATOM      7  C   UNL     1       6.394   4.025  13.553  0.00  0.00    +0.000 A 
ATOM      8  C   UNL     1       5.988   3.739  14.879  0.00  0.00    +0.000 A 
ATOM      9  C   UNL     1       6.769   4.516  15.715  0.00  0.00    +0.000 A 
ATOM     10  O   UNL     1       7.637   5.264  14.959  0.00  0.00    +0.000 OA
ENDBRANCH   1   9
BRANCH   3  11
ATOM     11  C   UNL     1       5.423   5.320  19.118  0.00  0.00    +0.000 C 
BRANCH  11  12
ATOM     12  C   UNL     1       4.179   4.637  19.635  0.00  0.00    +0.000 A 
ATOM     13  C   UNL     1       3.073   5.406  20.034  0.00  0.00    +0.000 A 
ATOM     14  C   UNL     1       1.900   4.790  20.477  0.00  0.00    +0.000 A 
ATOM     15  C   UNL     1       1.828   3.405  20.518  0.00  0.00    +0.000 A 
ATOM     16  F   UNL     1       0.701   2.814  20.937  0.00  0.00    +0.000 F 
ATOM     17  C   UNL     1       2.906   2.622  20.123  0.00  0.00    +0.000 A 
ATOM     18  C   UNL     1       4.082   3.235  19.681  0.00  0.00    +0.000 A 
ENDBRANCH  11  12
ENDBRANCH   3  11
TORSDOF 3
ENDMDL
MODEL 3
REMARK VINA RESULT:      -7.1      1.152      1.405
REMARK  Name = 
REMARK  4 active torsions:
REMARK  status: ('A' for Active; 'I' for Inactive)
REMARK    1  A    between atoms: C_1  and  C_2
REMARK    2  A    between atoms: C_5  and  C_6
REMARK    3  A    between atoms: N_8  and  C_9
REMARK    4  A    between atoms: C_9  and  C_10
REMARK                            x       y       z     vdW  Elec       q    Type
REMARK                         _______ _______ _______ _____ _____    ______ ____
ROOT
ATOM      1  C   UNL     1       6.934   4.742  15.809  0.00  0.00    +0.000 C 
ATOM      2  O   UNL     1       7.943   4.586  16.492  0.00  0.00    +0.000 OA
ATOM      3  N   UNL     1       5.732   5.152  16.344  0.00  0.00    +0.000 N 
ATOM      4  H   UNL     1       4.953   5.255  15.706  0.00  0.00    +0.000 HD
ENDROOT
BRANCH   1   9
ATOM      5  C   UNL     1       5.263   2.712  11.748  0.00  0.00    +0.000 C 
ATOM      6  C   UNL     1       6.156   3.607  12.510  0.00  0.00    +0.000 A 
ATOM      7  C   UNL     1       7.172   4.462  12.147  0.00  0.00    +0.000 A 
ATOM      8  C   UNL     1       7.647   5.045  13.347  0.00  0.00    +0.000 A 
ATOM      9  C   UNL     1       6.893   4.514  14.378  0.00  0.00    +0.000 A 
ATOM     10  O   UNL     1       5.977   3.632  13.861  0.00  0.00    +0.000 OA
ENDBRANCH   1   9
BRANCH   3  11
ATOM     11  C   UNL     1       5.549   5.470  17.742  0.00  0.00    +0.000 C 
BRANCH  11  12
ATOM     12  C   UNL     1       4.212   4.991  18.256  0.00  0.00    +0.000 A 
ATOM     13  C   UNL     1       3.931   5.044  19.632  0.00  0.00    +0.000 A 
ATOM     14  C   UNL     1       2.686   4.643  20.120  0.00  0.00    +0.000 A 
ATOM     15  C   UNL     1       1.716   4.195  19.235  0.00  0.00    +0.000 A 
ATOM     16  F   UNL     1       0.518   3.817  19.703  0.00  0.00    +0.000 F 
ATOM     17  C   UNL     1       1.966   4.139  17.869  0.00  0.00    +0.000 A 
ATOM     18  C   UNL     1       3.212   4.537  17.378  0.00  0.00    +0.000 A 
ENDBRANCH  11  12
ENDBRANCH   3  11
TORSDOF 3
ENDMDL
MODEL 4
REMARK VINA RESULT:      -7.0      1.908      2.404
REMARK  Name = 
REMARK  4 active torsions:
REMARK  status: ('A' for Active; 'I' for Inactive)
REMARK    1  A    between atoms: C_1  and  C_2
REMARK    2  A    between atoms: C_5  and  C_6
REMARK    3  A    between atoms: N_8  and  C_9
REMARK    4  A    between atoms: C_9  and  C_10
REMARK                            x       y       z     vdW  Elec       q    Type
REMARK                         _______ _______ _______ _____ _____    ______ ____
ROOT
ATOM      1  C   UNL     1       6.924   5.077  15.589  0.00  0.00    +0.000 C 
ATOM      2  O   UNL     1       7.468   4.413  16.467  0.00  0.00    +0.000 OA
ATOM      3  N   UNL     1       6.256   6.254  15.855  0.00  0.00    +0.000 N 
ATOM      4  H   UNL     1       5.839   6.736  15.068  0.00  0.00    +0.000 HD
ENDROOT
BRANCH   1   9
ATOM      5  C   UNL     1       5.597   2.415  11.774  0.00  0.00    +0.000 C 
ATOM      6  C   UNL     1       6.338   3.511  12.431  0.00  0.00    +0.000 A 
ATOM      7  C   UNL     1       7.210   4.472  11.970  0.00  0.00    +0.000 A 
ATOM      8  C   UNL     1       7.586   5.239  13.100  0.00  0.00    +0.000 A 
ATOM      9  C   UNL     1       6.922   4.703  14.188  0.00  0.00    +0.000 A 
ATOM     10  O   UNL     1       6.156   3.643  13.774  0.00  0.00    +0.000 OA
ENDBRANCH   1   9
BRANCH   3  11
ATOM     11  C   UNL     1       6.161   6.835  17.174  0.00  0.00    +0.000 C 
BRANCH  11  12
ATOM     12  C   UNL     1       4.908   6.393  17.892  0.00  0.00    +0.000 A 
ATOM     13  C   UNL     1       4.972   5.359  18.841  0.00  0.00    +0.000 A 
ATOM     14  C   UNL     1       3.831   4.965  19.543  0.00  0.00    +0.000 A 
ATOM     15  C   UNL     1       2.624   5.607  19.304  0.00  0.00    +0.000 A 
ATOM     16  F   UNL     1       1.531   5.233  19.982  0.00  0.00    +0.000 F 
ATOM     17  C   UNL     1       2.535   6.637  18.375  0.00  0.00    +0.000 A 
ATOM     18  C   UNL     1       3.675   7.032  17.669  0.00  0.00    +0.000 A 
ENDBRANCH  11  12
ENDBRANCH   3  11
TORSDOF 3
ENDMDL
MODEL 5
REMARK VINA RESULT:      -7.0      2.542      4.281
REMARK  Name = 
REMARK  4 active torsions:
REMARK  status: ('A' for Active; 'I' for Inactive)
REMARK    1  A    between atoms: C_1  and  C_2
REMARK    2  A    between atoms: C_5  and  C_6
REMARK    3  A    between atoms: N_8  and  C_9
REMARK    4  A    between atoms: C_9  and  C_10
REMARK                            x       y       z     vdW  Elec       q    Type
REMARK                         _______ _______ _______ _____ _____    ______ ____
ROOT
ATOM      1  C   UNL     1       6.247   5.823  16.421  0.00  0.00    +0.000 C 
ATOM      2  O   UNL     1       6.193   5.991  15.205  0.00  0.00    +0.000 OA
ATOM      3  N   UNL     1       5.495   4.869  17.073  0.00  0.00    +0.000 N 
ATOM      4  H   UNL     1       5.605   4.802  18.077  0.00  0.00    +0.000 HD
ENDROOT
BRANCH   1   9
ATOM      5  C   UNL     1       8.529   9.834  17.874  0.00  0.00    +0.000 C 
ATOM      6  C   UNL     1       8.151   8.411  17.987  0.00  0.00    +0.000 A 
ATOM      7  C   UNL     1       8.455   7.421  18.894  0.00  0.00    +0.000 A 
ATOM      8  C   UNL     1       7.778   6.258  18.452  0.00  0.00    +0.000 A 
ATOM      9  C   UNL     1       7.099   6.603  17.298  0.00  0.00    +0.000 A 
ATOM     10  O   UNL     1       7.328   7.926  17.016  0.00  0.00    +0.000 OA
ENDBRANCH   1   9
BRANCH   3  11
ATOM     11  C   UNL     1       4.604   3.957  16.394  0.00  0.00    +0.000 C 
BRANCH  11  12
ATOM     12  C   UNL     1       3.471   3.511  17.288  0.00  0.00    +0.000 A 
ATOM     13  C   UNL     1       2.342   4.330  17.449  0.00  0.00    +0.000 A 
ATOM     14  C   UNL     1       1.268   3.915  18.240  0.00  0.00    +0.000 A 
ATOM     15  C   UNL     1       1.317   2.678  18.866  0.00  0.00    +0.000 A 
ATOM     16  F   UNL     1       0.284   2.277  19.619  0.00  0.00    +0.000 F 
ATOM     17  C   UNL     1       2.420   1.846  18.717  0.00  0.00    +0.000 A 
ATOM     18  C   UNL     1       3.497   2.259  17.929  0.00  0.00    +0.000 A 
ENDBRANCH  11  12
ENDBRANCH   3  11
TORSDOF 3
ENDMDL
MODEL 6
REMARK VINA RESULT:      -6.9      3.782      6.882
REMARK  Name = 
REMARK  4 active torsions:
REMARK  status: ('A' for Active; 'I' for Inactive)
REMARK    1  A    between atoms: C_1  and  C_2
REMARK    2  A    between atoms: C_5  and  C_6
REMARK    3  A    between atoms: N_8  and  C_9
REMARK    4  A    between atoms: C_9  and  C_10
REMARK                            x       y       z     vdW  Elec       q    Type
REMARK                         _______ _______ _______ _____ _____    ______ ____
ROOT
ATOM      1  C   UNL     1       3.852   4.194  17.521  0.00  0.00    +0.000 C 
ATOM      2  O   UNL     1       3.623   5.364  17.225  0.00  0.00    +0.000 OA
ATOM      3  N   UNL     1       4.986   3.531  17.100  0.00  0.00    +0.000 N 
ATOM      4  H   UNL     1       5.092   2.567  17.394  0.00  0.00    +0.000 HD
ENDROOT
BRANCH   1   9
ATOM      5  C   UNL     1       1.670   2.893  21.638  0.00  0.00    +0.000 C 
ATOM      6  C   UNL     1       1.956   2.769  20.194  0.00  0.00    +0.000 A 
ATOM      7  C   UNL     1       1.514   1.911  19.212  0.00  0.00    +0.000 A 
ATOM      8  C   UNL     1       2.162   2.308  18.018  0.00  0.00    +0.000 A 
ATOM      9  C   UNL     1       2.967   3.387  18.337  0.00  0.00    +0.000 A 
ATOM     10  O   UNL     1       2.837   3.669  19.674  0.00  0.00    +0.000 OA
ENDBRANCH   1   9
BRANCH   3  11
ATOM     11  C   UNL     1       6.022   4.149  16.307  0.00  0.00    +0.000 C 
BRANCH  11  12
ATOM     12  C   UNL     1       6.738   5.239  17.071  0.00  0.00    +0.000 A 
ATOM     13  C   UNL     1       7.374   4.940  18.287  0.00  0.00    +0.000 A 
ATOM     14  C   UNL     1       8.074   5.925  18.986  0.00  0.00    +0.000 A 
ATOM     15  C   UNL     1       8.146   7.211  18.468  0.00  0.00    +0.000 A 
ATOM     16  F   UNL     1       8.824   8.155  19.135  0.00  0.00    +0.000 F 
ATOM     17  C   UNL     1       7.531   7.531  17.264  0.00  0.00    +0.000 A 
ATOM     18  C   UNL     1       6.828   6.547  16.563  0.00  0.00    +0.000 A 
ENDBRANCH  11  12
ENDBRANCH   3  11
TORSDOF 3
ENDMDL
MODEL 7
REMARK VINA RESULT:      -6.9      1.039      1.081
REMARK  Name = 
REMARK  4 active torsions:
REMARK  status: ('A' for Active; 'I' for Inactive)
REMARK    1  A    between atoms: C_1  and  C_2
REMARK    2  A    between atoms: C_5  and  C_6
REMARK    3  A    between atoms: N_8  and  C_9
REMARK    4  A    between atoms: C_9  and  C_10
REMARK                            x       y       z     vdW  Elec       q    Type
REMARK                         _______ _______ _______ _____ _____    ______ ____
ROOT
ATOM      1  C   UNL     1       5.681   4.881  15.390  0.00  0.00    +0.000 C 
ATOM      2  O   UNL     1       5.600   6.086  15.615  0.00  0.00    +0.000 OA
ATOM      3  N   UNL     1       5.596   3.933  16.387  0.00  0.00    +0.000 N 
ATOM      4  H   UNL     1       5.672   2.962  16.108  0.00  0.00    +0.000 HD
ENDROOT
BRANCH   1   9
ATOM      5  C   UNL     1       4.216   2.984  11.187  0.00  0.00    +0.000 C 
ATOM      6  C   UNL     1       5.239   3.460  12.141  0.00  0.00    +0.000 A 
ATOM      7  C   UNL     1       6.613   3.531  12.096  0.00  0.00    +0.000 A 
ATOM      8  C   UNL     1       7.021   4.089  13.332  0.00  0.00    +0.000 A 
ATOM      9  C   UNL     1       5.873   4.326  14.064  0.00  0.00    +0.000 A 
ATOM     10  O   UNL     1       4.779   3.940  13.330  0.00  0.00    +0.000 OA
ENDBRANCH   1   9
BRANCH   3  11
ATOM     11  C   UNL     1       5.371   4.256  17.777  0.00  0.00    +0.000 C 
BRANCH  11  12
ATOM     12  C   UNL     1       4.003   3.816  18.241  0.00  0.00    +0.000 A 
ATOM     13  C   UNL     1       3.246   4.652  19.079  0.00  0.00    +0.000 A 
ATOM     14  C   UNL     1       1.963   4.280  19.485  0.00  0.00    +0.000 A 
ATOM     15  C   UNL     1       1.430   3.074  19.050  0.00  0.00    +0.000 A 
ATOM     16  F   UNL     1       0.196   2.720  19.435  0.00  0.00    +0.000 F 
ATOM     17  C   UNL     1       2.156   2.232  18.217  0.00  0.00    +0.000 A 
ATOM     18  C   UNL     1       3.442   2.601  17.810  0.00  0.00    +0.000 A 
ENDBRANCH  11  12
ENDBRANCH   3  11
TORSDOF 3
ENDMDL
MODEL 8
REMARK VINA RESULT:      -6.9      1.564      2.273
REMARK  Name = 
REMARK  4 active torsions:
REMARK  status: ('A' for Active; 'I' for Inactive)
REMARK    1  A    between atoms: C_1  and  C_2
REMARK    2  A    between atoms: C_5  and  C_6
REMARK    3  A    between atoms: N_8  and  C_9
REMARK    4  A    between atoms: C_9  and  C_10
REMARK                            x       y       z     vdW  Elec       q    Type
REMARK                         _______ _______ _______ _____ _____    ______ ____
ROOT
ATOM      1  C   UNL     1       6.690   4.786  16.972  0.00  0.00    +0.000 C 
ATOM      2  O   UNL     1       7.482   5.458  17.626  0.00  0.00    +0.000 OA
ATOM      3  N   UNL     1       5.645   4.098  17.552  0.00  0.00    +0.000 N 
ATOM      4  H   UNL     1       5.040   3.570  16.935  0.00  0.00    +0.000 HD
ENDROOT
BRANCH   1   9
ATOM      5  C   UNL     1       8.381   5.791  12.552  0.00  0.00    +0.000 C 
ATOM      6  C   UNL     1       7.510   5.074  13.505  0.00  0.00    +0.000 A 
ATOM      7  C   UNL     1       6.548   4.100  13.359  0.00  0.00    +0.000 A 
ATOM      8  C   UNL     1       6.067   3.819  14.661  0.00  0.00    +0.000 A 
ATOM      9  C   UNL     1       6.762   4.640  15.531  0.00  0.00    +0.000 A 
ATOM     10  O   UNL     1       7.649   5.408  14.819  0.00  0.00    +0.000 OA
ENDBRANCH   1   9
BRANCH   3  11
ATOM     11  C   UNL     1       5.361   4.128  18.968  0.00  0.00    +0.000 C 
BRANCH  11  12
ATOM     12  C   UNL     1       3.908   3.831  19.255  0.00  0.00    +0.000 A 
ATOM     13  C   UNL     1       3.310   2.677  18.721  0.00  0.00    +0.000 A 
ATOM     14  C   UNL     1       1.980   2.366  19.009  0.00  0.00    +0.000 A 
ATOM     15  C   UNL     1       1.244   3.204  19.836  0.00  0.00    +0.000 A 
ATOM     16  F   UNL     1      -0.030   2.901  20.118  0.00  0.00    +0.000 F 
ATOM     17  C   UNL     1       1.814   4.348  20.382  0.00  0.00    +0.000 A 
ATOM     18  C   UNL     1       3.145   4.663  20.093  0.00  0.00    +0.000 A 
ENDBRANCH  11  12
ENDBRANCH   3  11
TORSDOF 3
ENDMDL
MODEL 9
REMARK VINA RESULT:      -6.9      1.175      1.476
REMARK  Name = 
REMARK  4 active torsions:
REMARK  status: ('A' for Active; 'I' for Inactive)
REMARK    1  A    between atoms: C_1  and  C_2
REMARK    2  A    between atoms: C_5  and  C_6
REMARK    3  A    between atoms: N_8  and  C_9
REMARK    4  A    between atoms: C_9  and  C_10
REMARK                            x       y       z     vdW  Elec       q    Type
REMARK                         _______ _______ _______ _____ _____    ______ ____
ROOT
ATOM      1  C   UNL     1       6.207   4.653  15.536  0.00  0.00    +0.000 C 
ATOM      2  O   UNL     1       7.157   4.495  16.297  0.00  0.00    +0.000 OA
ATOM      3  N   UNL     1       5.021   5.229  15.940  0.00  0.00    +0.000 N 
ATOM      4  H   UNL     1       4.292   5.320  15.243  0.00  0.00    +0.000 HD
ENDROOT
BRANCH   1   9
ATOM      5  C   UNL     1       4.215   3.150  11.391  0.00  0.00    +0.000 C 
ATOM      6  C   UNL     1       5.348   3.572  12.239  0.00  0.00    +0.000 A 
ATOM      7  C   UNL     1       6.698   3.721  12.010  0.00  0.00    +0.000 A 
ATOM      8  C   UNL     1       7.261   4.161  13.232  0.00  0.00    +0.000 A 
ATOM      9  C   UNL     1       6.224   4.256  14.142  0.00  0.00    +0.000 A 
ATOM     10  O   UNL     1       5.050   3.896  13.529  0.00  0.00    +0.000 OA
ENDBRANCH   1   9
BRANCH   3  11
ATOM     11  C   UNL     1       4.793   5.730  17.275  0.00  0.00    +0.000 C 
BRANCH  11  12
ATOM     12  C   UNL     1       3.607   5.062  17.930  0.00  0.00    +0.000 A 
ATOM     13  C   UNL     1       3.008   3.946  17.322  0.00  0.00    +0.000 A 
ATOM     14  C   UNL     1       1.936   3.292  17.934  0.00  0.00    +0.000 A 
ATOM     15  C   UNL     1       1.465   3.747  19.158  0.00  0.00    +0.000 A 
ATOM     16  F   UNL     1       0.441   3.116  19.748  0.00  0.00    +0.000 F 
ATOM     17  C   UNL     1       2.044   4.845  19.783  0.00  0.00    +0.000 A 
ATOM     18  C   UNL     1       3.115   5.503  19.171  0.00  0.00    +0.000 A 
ENDBRANCH  11  12
ENDBRANCH   3  11
TORSDOF 3
ENDMDL
