MODEL 1
REMARK VINA RESULT:      -9.0      0.000      0.000
REMARK  Name = 
REMARK  6 active torsions:
REMARK  status: ('A' for Active; 'I' for Inactive)
REMARK    1  A    between atoms: C_1  and  C_2
REMARK    2  A    between atoms: C_5  and  S_6
REMARK    3  A    between atoms: S_6  and  N_9
REMARK    4  A    between atoms: CA_13  and  C_14
REMARK    5  A    between atoms: C_14  and  O_15
REMARK    6  A    between atoms: C_20  and  C_21
REMARK                            x       y       z     vdW  Elec       q    Type
REMARK                         _______ _______ _______ _____ _____    ______ ____
ROOT
ATOM      1  N   UNL     1      -0.427  11.950  21.352  0.00  0.00    +0.000 NA
ATOM      2  C   UNL     1       0.361  13.266  21.394  0.00  0.00    +0.000 C 
ATOM      3  C   UNL     1       1.363  13.183  20.323  0.00  0.00    +0.000 C 
ATOM      4  C   UNL     1       1.364  11.718  19.995  0.00  0.00    +0.000 C 
ATOM      5  CA  UNL     1       0.430  11.523  18.753  0.00  0.00    +0.000 C 
ATOM      6  N   UNL     1       1.222  10.649  17.941  0.00  0.00    +0.000 N 
ATOM      7  C   UNL     1       1.446   9.466  18.699  0.00  0.00    +0.000 A 
ATOM      8  C   UNL     1       2.019   8.494  17.861  0.00  0.00    +0.000 A 
ATOM      9  C   UNL     1       2.333   7.251  18.316  0.00  0.00    +0.000 A 
ATOM     10  C   UNL     1       2.207   6.911  19.670  0.00  0.00    +0.000 A 
ATOM     11  C   UNL     1       1.599   7.959  20.581  0.00  0.00    +0.000 A 
ATOM     12  C   UNL     1       1.167   9.307  20.124  0.00  0.00    +0.000 A 
ATOM     13  C   UNL     1       0.797  10.771  21.108  0.00  0.00    +0.000 C 
ATOM     14  H   UNL     1       2.133  11.056  17.710  0.00  0.00    +0.000 HD
ENDROOT
BRANCH  10  15
ATOM     15  C   UNL     1       2.776   5.502  19.924  0.00  0.00    +0.000 A 
ATOM     16  C   UNL     1       2.037   4.415  20.420  0.00  0.00    +0.000 A 
ATOM     17  C   UNL     1       2.551   3.077  20.426  0.00  0.00    +0.000 A 
ATOM     18  C   UNL     1       3.802   2.774  19.902  0.00  0.00    +0.000 A 
ATOM     19  C   UNL     1       4.550   3.802  19.384  0.00  0.00    +0.000 A 
ATOM     20  C   UNL     1       4.059   5.120  19.392  0.00  0.00    +0.000 A 
ATOM     21  F   UNL     1       4.843   6.012  18.779  0.00  0.00    +0.000 F 
ENDBRANCH  10  15
BRANCH   1  22
ATOM     22  S   UNL     1      -1.616  12.268  22.639  0.00  0.00    +0.000 S 
ATOM     23  O   UNL     1      -1.308  13.540  23.269  0.00  0.00    +0.000 OA
ATOM     24  O   UNL     1      -1.832  11.084  23.421  0.00  0.00    +0.000 OA
BRANCH  22  29
ATOM     25  C   UNL     1      -7.159  12.588  19.708  0.00  0.00    +0.000 C 
ATOM     26  C   UNL     1      -5.793  12.723  20.347  0.00  0.00    +0.000 A 
ATOM     27  C   UNL     1      -5.667  12.783  21.739  0.00  0.00    +0.000 A 
ATOM     28  C   UNL     1      -4.408  12.727  22.381  0.00  0.00    +0.000 A 
ATOM     29  C   UNL     1      -3.229  12.585  21.647  0.00  0.00    +0.000 A 
ATOM     30  C   UNL     1      -3.328  12.694  20.233  0.00  0.00    +0.000 A 
ATOM     31  C   UNL     1      -4.609  12.745  19.594  0.00  0.00    +0.000 A 
ENDBRANCH  22  29
ENDBRANCH   1  22
BRANCH   5  32
ATOM     32  C   UNL     1      -1.013  10.879  18.819  0.00  0.00    +0.000 C 
BRANCH  32  33
ATOM     33  O   UNL     1      -1.553  10.874  17.486  0.00  0.00    +0.000 OA
ATOM     34  H   UNL     1      -0.765  11.037  16.925  0.00  0.00    +0.000 HD
ENDBRANCH  32  33
ENDBRANCH   5  32
TORSDOF 5
ENDMDL
MODEL 2
REMARK VINA RESULT:      -9.0      0.851      1.194
REMARK  Name = 
REMARK  6 active torsions:
REMARK  status: ('A' for Active; 'I' for Inactive)
REMARK    1  A    between atoms: C_1  and  C_2
REMARK    2  A    between atoms: C_5  and  S_6
REMARK    3  A    between atoms: S_6  and  N_9
REMARK    4  A    between atoms: CA_13  and  C_14
REMARK    5  A    between atoms: C_14  and  O_15
REMARK    6  A    between atoms: C_20  and  C_21
REMARK                            x       y       z     vdW  Elec       q    Type
REMARK                         _______ _______ _______ _____ _____    ______ ____
ROOT
ATOM      1  N   UNL     1      -0.357  11.907  21.426  0.00  0.00    +0.000 NA
ATOM      2  C   UNL     1       0.443  13.207  21.576  0.00  0.00    +0.000 C 
ATOM      3  C   UNL     1       1.445  13.201  20.501  0.00  0.00    +0.000 C 
ATOM      4  C   UNL     1       1.433  11.768  20.056  0.00  0.00    +0.000 C 
ATOM      5  CA  UNL     1       0.498  11.683  18.802  0.00  0.00    +0.000 C 
ATOM      6  N   UNL     1       1.282  10.871  17.922  0.00  0.00    +0.000 N 
ATOM      7  C   UNL     1       1.494   9.628  18.582  0.00  0.00    +0.000 A 
ATOM      8  C   UNL     1       2.059   8.721  17.668  0.00  0.00    +0.000 A 
ATOM      9  C   UNL     1       2.360   7.442  18.020  0.00  0.00    +0.000 A 
ATOM     10  C   UNL     1       2.229   6.995  19.342  0.00  0.00    +0.000 A 
ATOM     11  C   UNL     1       1.631   7.971  20.335  0.00  0.00    +0.000 A 
ATOM     12  C   UNL     1       1.213   9.357  19.989  0.00  0.00    +0.000 A 
ATOM     13  C   UNL     1       0.856  10.739  21.088  0.00  0.00    +0.000 C 
ATOM     14  H   UNL     1       2.198  11.285  17.725  0.00  0.00    +0.000 HD
ENDROOT
BRANCH  10  15
ATOM     15  C   UNL     1       2.785   5.564  19.482  0.00  0.00    +0.000 A 
ATOM     16  C   UNL     1       4.101   5.181  19.175  0.00  0.00    +0.000 A 
ATOM     17  C   UNL     1       4.630   3.898  19.532  0.00  0.00    +0.000 A 
ATOM     18  C   UNL     1       3.876   2.971  20.242  0.00  0.00    +0.000 A 
ATOM     19  C   UNL     1       2.591   3.312  20.584  0.00  0.00    +0.000 A 
ATOM     20  C   UNL     1       2.060   4.563  20.220  0.00  0.00    +0.000 A 
ATOM     21  F   UNL     1       0.832   4.807  20.690  0.00  0.00    +0.000 F 
ENDBRANCH  10  15
BRANCH   1  22
ATOM     22  S   UNL     1      -1.544  12.131  22.735  0.00  0.00    +0.000 S 
ATOM     23  O   UNL     1      -1.220  13.340  23.472  0.00  0.00    +0.000 OA
ATOM     24  O   UNL     1      -1.779  10.887  23.414  0.00  0.00    +0.000 OA
BRANCH  22  29
ATOM     25  C   UNL     1      -7.104  12.812  19.898  0.00  0.00    +0.000 C 
ATOM     26  C   UNL     1      -5.722  12.858  20.516  0.00  0.00    +0.000 A 
ATOM     27  C   UNL     1      -5.571  12.898  21.906  0.00  0.00    +0.000 A 
ATOM     28  C   UNL     1      -4.307  12.760  22.526  0.00  0.00    +0.000 A 
ATOM     29  C   UNL     1      -3.151  12.554  21.772  0.00  0.00    +0.000 A 
ATOM     30  C   UNL     1      -3.266  12.681  20.361  0.00  0.00    +0.000 A 
ATOM     31  C   UNL     1      -4.551  12.815  19.744  0.00  0.00    +0.000 A 
ENDBRANCH  22  29
ENDBRANCH   1  22
BRANCH   5  32
ATOM     32  C   UNL     1      -0.951  11.050  18.816  0.00  0.00    +0.000 C 
BRANCH  32  33
ATOM     33  O   UNL     1      -1.572  11.348  17.553  0.00  0.00    +0.000 OA
ATOM     34  H   UNL     1      -1.397  10.543  17.021  0.00  0.00    +0.000 HD
ENDBRANCH  32  33
ENDBRANCH   5  32
TORSDOF 5
ENDMDL
MODEL 3
REMARK VINA RESULT:      -8.8      1.364      1.625
REMARK  Name = 
REMARK  6 active torsions:
REMARK  status: ('A' for Active; 'I' for Inactive)
REMARK    1  A    between atoms: C_1  and  C_2
REMARK    2  A    between atoms: C_5  and  S_6
REMARK    3  A    between atoms: S_6  and  N_9
REMARK    4  A    between atoms: CA_13  and  C_14
REMARK    5  A    between atoms: C_14  and  O_15
REMARK    6  A    between atoms: C_20  and  C_21
REMARK                            x       y       z     vdW  Elec       q    Type
REMARK                         _______ _______ _______ _____ _____    ______ ____
ROOT
ATOM      1  N   UNL     1      -0.428  12.373  21.585  0.00  0.00    +0.000 NA
ATOM      2  C   UNL     1       0.391  13.660  21.756  0.00  0.00    +0.000 C 
ATOM      3  C   UNL     1       1.374  13.672  20.664  0.00  0.00    +0.000 C 
ATOM      4  C   UNL     1       1.337  12.252  20.181  0.00  0.00    +0.000 C 
ATOM      5  CA  UNL     1       0.380  12.213  18.941  0.00  0.00    +0.000 C 
ATOM      6  N   UNL     1       1.139  11.416  18.026  0.00  0.00    +0.000 N 
ATOM      7  C   UNL     1       1.347  10.152  18.648  0.00  0.00    +0.000 A 
ATOM      8  C   UNL     1       1.886   9.265  17.700  0.00  0.00    +0.000 A 
ATOM      9  C   UNL     1       2.178   7.973  18.011  0.00  0.00    +0.000 A 
ATOM     10  C   UNL     1       2.064   7.491  19.323  0.00  0.00    +0.000 A 
ATOM     11  C   UNL     1       1.495   8.447  20.352  0.00  0.00    +0.000 A 
ATOM     12  C   UNL     1       1.087   9.846  20.052  0.00  0.00    +0.000 A 
ATOM     13  C   UNL     1       0.765  11.202  21.194  0.00  0.00    +0.000 C 
ATOM     14  H   UNL     1       2.056  11.825  17.824  0.00  0.00    +0.000 HD
ENDROOT
BRANCH  10  15
ATOM     15  C   UNL     1       2.605   6.051  19.413  0.00  0.00    +0.000 A 
ATOM     16  C   UNL     1       3.886   5.648  19.003  0.00  0.00    +0.000 A 
ATOM     17  C   UNL     1       4.419   4.355  19.313  0.00  0.00    +0.000 A 
ATOM     18  C   UNL     1       3.708   3.437  20.076  0.00  0.00    +0.000 A 
ATOM     19  C   UNL     1       2.460   3.798  20.520  0.00  0.00    +0.000 A 
ATOM     20  C   UNL     1       1.924   5.059  20.203  0.00  0.00    +0.000 A 
ATOM     21  F   UNL     1       0.741   5.321  20.769  0.00  0.00    +0.000 F 
ENDBRANCH  10  15
BRANCH   1  22
ATOM     22  S   UNL     1      -1.589  12.575  22.921  0.00  0.00    +0.000 S 
ATOM     23  O   UNL     1      -1.077  13.562  23.854  0.00  0.00    +0.000 OA
ATOM     24  O   UNL     1      -2.056  11.294  23.373  0.00  0.00    +0.000 OA
BRANCH  22  29
ATOM     25  C   UNL     1      -6.318  14.854  19.475  0.00  0.00    +0.000 C 
ATOM     26  C   UNL     1      -5.258  14.433  20.471  0.00  0.00    +0.000 A 
ATOM     27  C   UNL     1      -5.265  13.141  21.007  0.00  0.00    +0.000 A 
ATOM     28  C   UNL     1      -4.198  12.652  21.796  0.00  0.00    +0.000 A 
ATOM     29  C   UNL     1      -3.073  13.435  22.056  0.00  0.00    +0.000 A 
ATOM     30  C   UNL     1      -3.129  14.800  21.663  0.00  0.00    +0.000 A 
ATOM     31  C   UNL     1      -4.212  15.284  20.860  0.00  0.00    +0.000 A 
ENDBRANCH  22  29
ENDBRANCH   1  22
BRANCH   5  32
ATOM     32  C   UNL     1      -1.077  11.596  18.963  0.00  0.00    +0.000 C 
BRANCH  32  33
ATOM     33  O   UNL     1      -2.014  12.683  18.888  0.00  0.00    +0.000 OA
ATOM     34  H   UNL     1      -1.531  13.426  19.311  0.00  0.00    +0.000 HD
ENDBRANCH  32  33
ENDBRANCH   5  32
TORSDOF 5
ENDMDL
MODEL 4
REMARK VINA RESULT:      -8.6      1.088      1.178
REMARK  Name = 
REMARK  6 active torsions:
REMARK  status: ('A' for Active; 'I' for Inactive)
REMARK    1  A    between atoms: C_1  and  C_2
REMARK    2  A    between atoms: C_5  and  S_6
REMARK    3  A    between atoms: S_6  and  N_9
REMARK    4  A    between atoms: CA_13  and  C_14
REMARK    5  A    between atoms: C_14  and  O_15
REMARK    6  A    between atoms: C_20  and  C_21
REMARK                            x       y       z     vdW  Elec       q    Type
REMARK                         _______ _______ _______ _____ _____    ______ ____
ROOT
ATOM      1  N   UNL     1      -0.400  12.276  21.415  0.00  0.00    +0.000 NA
ATOM      2  C   UNL     1       0.470  13.537  21.487  0.00  0.00    +0.000 C 
ATOM      3  C   UNL     1       1.489  13.397  20.437  0.00  0.00    +0.000 C 
ATOM      4  C   UNL     1       1.402  11.938  20.097  0.00  0.00    +0.000 C 
ATOM      5  CA  UNL     1       0.486  11.814  18.832  0.00  0.00    +0.000 C 
ATOM      6  N   UNL     1       1.238  10.897  18.030  0.00  0.00    +0.000 N 
ATOM      7  C   UNL     1       1.367   9.695  18.782  0.00  0.00    +0.000 A 
ATOM      8  C   UNL     1       1.895   8.694  17.948  0.00  0.00    +0.000 A 
ATOM      9  C   UNL     1       2.117   7.430  18.398  0.00  0.00    +0.000 A 
ATOM     10  C   UNL     1       1.938   7.088  19.745  0.00  0.00    +0.000 A 
ATOM     11  C   UNL     1       1.379   8.167  20.653  0.00  0.00    +0.000 A 
ATOM     12  C   UNL     1       1.046   9.544  20.199  0.00  0.00    +0.000 A 
ATOM     13  C   UNL     1       0.750  11.021  21.188  0.00  0.00    +0.000 C 
ATOM     14  H   UNL     1       2.179  11.244  17.823  0.00  0.00    +0.000 HD
ENDROOT
BRANCH  10  15
ATOM     15  C   UNL     1       2.409   5.643  19.999  0.00  0.00    +0.000 A 
ATOM     16  C   UNL     1       1.577   4.589  20.411  0.00  0.00    +0.000 A 
ATOM     17  C   UNL     1       2.014   3.224  20.416  0.00  0.00    +0.000 A 
ATOM     18  C   UNL     1       3.280   2.862  19.972  0.00  0.00    +0.000 A 
ATOM     19  C   UNL     1       4.119   3.858  19.537  0.00  0.00    +0.000 A 
ATOM     20  C   UNL     1       3.702   5.202  19.547  0.00  0.00    +0.000 A 
ATOM     21  F   UNL     1       4.577   6.062  19.016  0.00  0.00    +0.000 F 
ENDBRANCH  10  15
BRANCH   1  22
ATOM     22  S   UNL     1      -1.595  12.660  22.679  0.00  0.00    +0.000 S 
ATOM     23  O   UNL     1      -1.082  13.737  23.508  0.00  0.00    +0.000 OA
ATOM     24  O   UNL     1      -2.111  11.453  23.261  0.00  0.00    +0.000 OA
BRANCH  22  29
ATOM     25  C   UNL     1      -6.434  15.688  20.064  0.00  0.00    +0.000 C 
ATOM     26  C   UNL     1      -5.225  14.882  20.487  0.00  0.00    +0.000 A 
ATOM     27  C   UNL     1      -4.043  15.527  20.868  0.00  0.00    +0.000 A 
ATOM     28  C   UNL     1      -2.957  14.825  21.440  0.00  0.00    +0.000 A 
ATOM     29  C   UNL     1      -3.027  13.451  21.672  0.00  0.00    +0.000 A 
ATOM     30  C   UNL     1      -4.148  12.759  21.136  0.00  0.00    +0.000 A 
ATOM     31  C   UNL     1      -5.244  13.481  20.564  0.00  0.00    +0.000 A 
ENDBRANCH  22  29
ENDBRANCH   1  22
BRANCH   5  32
ATOM     32  C   UNL     1      -0.997  11.264  18.861  0.00  0.00    +0.000 C 
BRANCH  32  33
ATOM     33  O   UNL     1      -1.876  12.358  18.542  0.00  0.00    +0.000 OA
ATOM     34  H   UNL     1      -1.286  13.140  18.590  0.00  0.00    +0.000 HD
ENDBRANCH  32  33
ENDBRANCH   5  32
TORSDOF 5
ENDMDL
MODEL 5
REMARK VINA RESULT:      -8.1      1.130      1.272
REMARK  Name = 
REMARK  6 active torsions:
REMARK  status: ('A' for Active; 'I' for Inactive)
REMARK    1  A    between atoms: C_1  and  C_2
REMARK    2  A    between atoms: C_5  and  S_6
REMARK    3  A    between atoms: S_6  and  N_9
REMARK    4  A    between atoms: CA_13  and  C_14
REMARK    5  A    between atoms: C_14  and  O_15
REMARK    6  A    between atoms: C_20  and  C_21
REMARK                            x       y       z     vdW  Elec       q    Type
REMARK                         _______ _______ _______ _____ _____    ______ ____
ROOT
ATOM      1  N   UNL     1      -0.875  12.553  21.641  0.00  0.00    +0.000 NA
ATOM      2  C   UNL     1      -0.094  13.862  21.812  0.00  0.00    +0.000 C 
ATOM      3  C   UNL     1       0.945  13.863  20.773  0.00  0.00    +0.000 C 
ATOM      4  C   UNL     1       0.963  12.428  20.334  0.00  0.00    +0.000 C 
ATOM      5  CA  UNL     1       0.073  12.329  19.048  0.00  0.00    +0.000 C 
ATOM      6  N   UNL     1       0.896  11.522  18.199  0.00  0.00    +0.000 N 
ATOM      7  C   UNL     1       1.098  10.283  18.871  0.00  0.00    +0.000 A 
ATOM      8  C   UNL     1       1.704   9.379  17.981  0.00  0.00    +0.000 A 
ATOM      9  C   UNL     1       2.006   8.105  18.349  0.00  0.00    +0.000 A 
ATOM     10  C   UNL     1       1.833   7.661  19.667  0.00  0.00    +0.000 A 
ATOM     11  C   UNL     1       1.191   8.635  20.635  0.00  0.00    +0.000 A 
ATOM     12  C   UNL     1       0.770  10.015  20.269  0.00  0.00    +0.000 A 
ATOM     13  C   UNL     1       0.361  11.398  21.350  0.00  0.00    +0.000 C 
ATOM     14  H   UNL     1       1.813  11.945  18.032  0.00  0.00    +0.000 HD
ENDROOT
BRANCH  10  15
ATOM     15  C   UNL     1       2.399   6.237  19.832  0.00  0.00    +0.000 A 
ATOM     16  C   UNL     1       1.756   5.193  20.515  0.00  0.00    +0.000 A 
ATOM     17  C   UNL     1       2.213   3.836  20.449  0.00  0.00    +0.000 A 
ATOM     18  C   UNL     1       3.302   3.471  19.666  0.00  0.00    +0.000 A 
ATOM     19  C   UNL     1       3.947   4.457  18.961  0.00  0.00    +0.000 A 
ATOM     20  C   UNL     1       3.515   5.794  19.037  0.00  0.00    +0.000 A 
ATOM     21  F   UNL     1       4.170   6.639  18.235  0.00  0.00    +0.000 F 
ENDBRANCH  10  15
BRANCH   1  22
ATOM     22  S   UNL     1      -2.109  12.770  22.907  0.00  0.00    +0.000 S 
ATOM     23  O   UNL     1      -1.719  13.870  23.771  0.00  0.00    +0.000 OA
ATOM     24  O   UNL     1      -2.494  11.497  23.450  0.00  0.00    +0.000 OA
BRANCH  22  29
ATOM     25  C   UNL     1      -6.563  14.820  18.985  0.00  0.00    +0.000 C 
ATOM     26  C   UNL     1      -5.650  14.329  20.088  0.00  0.00    +0.000 A 
ATOM     27  C   UNL     1      -5.191  13.007  20.090  0.00  0.00    +0.000 A 
ATOM     28  C   UNL     1      -4.199  12.560  20.993  0.00  0.00    +0.000 A 
ATOM     29  C   UNL     1      -3.614  13.430  21.913  0.00  0.00    +0.000 A 
ATOM     30  C   UNL     1      -4.188  14.725  22.036  0.00  0.00    +0.000 A 
ATOM     31  C   UNL     1      -5.189  15.170  21.113  0.00  0.00    +0.000 A 
ENDBRANCH  22  29
ENDBRANCH   1  22
BRANCH   5  32
ATOM     32  C   UNL     1      -1.369  11.680  19.014  0.00  0.00    +0.000 C 
BRANCH  32  33
ATOM     33  O   UNL     1      -2.076  12.241  17.894  0.00  0.00    +0.000 OA
ATOM     34  H   UNL     1      -1.916  11.588  17.179  0.00  0.00    +0.000 HD
ENDBRANCH  32  33
ENDBRANCH   5  32
TORSDOF 5
ENDMDL
MODEL 6
REMARK VINA RESULT:      -8.0      1.286      1.318
REMARK  Name = 
REMARK  6 active torsions:
REMARK  status: ('A' for Active; 'I' for Inactive)
REMARK    1  A    between atoms: C_1  and  C_2
REMARK    2  A    between atoms: C_5  and  S_6
REMARK    3  A    between atoms: S_6  and  N_9
REMARK    4  A    between atoms: CA_13  and  C_14
REMARK    5  A    between atoms: C_14  and  O_15
REMARK    6  A    between atoms: C_20  and  C_21
REMARK                            x       y       z     vdW  Elec       q    Type
REMARK                         _______ _______ _______ _____ _____    ______ ____
ROOT
ATOM      1  N   UNL     1      -0.638  12.503  21.174  0.00  0.00    +0.000 NA
ATOM      2  C   UNL     1       0.260  13.688  21.551  0.00  0.00    +0.000 C 
ATOM      3  C   UNL     1       1.475  13.561  20.734  0.00  0.00    +0.000 C 
ATOM      4  C   UNL     1       1.389  12.145  20.246  0.00  0.00    +0.000 C 
ATOM      5  CA  UNL     1       0.768  12.190  18.808  0.00  0.00    +0.000 C 
ATOM      6  N   UNL     1       1.628  11.290  18.102  0.00  0.00    +0.000 N 
ATOM      7  C   UNL     1       1.526  10.025  18.747  0.00  0.00    +0.000 A 
ATOM      8  C   UNL     1       2.171   9.060  17.954  0.00  0.00    +0.000 A 
ATOM      9  C   UNL     1       2.222   7.750  18.318  0.00  0.00    +0.000 A 
ATOM     10  C   UNL     1       1.734   7.314  19.558  0.00  0.00    +0.000 A 
ATOM     11  C   UNL     1       1.047   8.352  20.423  0.00  0.00    +0.000 A 
ATOM     12  C   UNL     1       0.895   9.782  20.042  0.00  0.00    +0.000 A 
ATOM     13  C   UNL     1       0.466  11.191  21.080  0.00  0.00    +0.000 C 
ATOM     14  H   UNL     1       2.608  11.585  18.135  0.00  0.00    +0.000 HD
ENDROOT
BRANCH  10  15
ATOM     15  C   UNL     1       2.061   5.823  19.768  0.00  0.00    +0.000 A 
ATOM     16  C   UNL     1       2.293   5.221  21.015  0.00  0.00    +0.000 A 
ATOM     17  C   UNL     1       2.371   3.799  21.179  0.00  0.00    +0.000 A 
ATOM     18  C   UNL     1       2.178   2.931  20.110  0.00  0.00    +0.000 A 
ATOM     19  C   UNL     1       1.924   3.476  18.876  0.00  0.00    +0.000 A 
ATOM     20  C   UNL     1       1.866   4.871  18.706  0.00  0.00    +0.000 A 
ATOM     21  F   UNL     1       1.523   5.270  17.477  0.00  0.00    +0.000 F 
ENDBRANCH  10  15
BRANCH   1  22
ATOM     22  S   UNL     1      -2.059  12.868  22.184  0.00  0.00    +0.000 S 
ATOM     23  O   UNL     1      -1.929  14.211  22.722  0.00  0.00    +0.000 OA
ATOM     24  O   UNL     1      -2.367  11.753  23.034  0.00  0.00    +0.000 OA
BRANCH  22  29
ATOM     25  C   UNL     1      -7.192  13.143  18.579  0.00  0.00    +0.000 C 
ATOM     26  C   UNL     1      -5.844  13.149  19.267  0.00  0.00    +0.000 A 
ATOM     27  C   UNL     1      -5.556  14.102  20.250  0.00  0.00    +0.000 A 
ATOM     28  C   UNL     1      -4.385  14.033  21.040  0.00  0.00    +0.000 A 
ATOM     29  C   UNL     1      -3.471  12.989  20.888  0.00  0.00    +0.000 A 
ATOM     30  C   UNL     1      -3.664  12.114  19.784  0.00  0.00    +0.000 A 
ATOM     31  C   UNL     1      -4.856  12.190  18.994  0.00  0.00    +0.000 A 
ENDBRANCH  22  29
ENDBRANCH   1  22
BRANCH   5  32
ATOM     32  C   UNL     1      -0.712  11.748  18.467  0.00  0.00    +0.000 C 
BRANCH  32  33
ATOM     33  O   UNL     1      -1.188  12.594  17.405  0.00  0.00    +0.000 OA
ATOM     34  H   UNL     1      -1.559  11.955  16.759  0.00  0.00    +0.000 HD
ENDBRANCH  32  33
ENDBRANCH   5  32
TORSDOF 5
ENDMDL
MODEL 7
REMARK VINA RESULT:      -8.0      1.271      1.795
REMARK  Name = 
REMARK  6 active torsions:
REMARK  status: ('A' for Active; 'I' for Inactive)
REMARK    1  A    between atoms: C_1  and  C_2
REMARK    2  A    between atoms: C_5  and  S_6
REMARK    3  A    between atoms: S_6  and  N_9
REMARK    4  A    between atoms: CA_13  and  C_14
REMARK    5  A    between atoms: C_14  and  O_15
REMARK    6  A    between atoms: C_20  and  C_21
REMARK                            x       y       z     vdW  Elec       q    Type
REMARK                         _______ _______ _______ _____ _____    ______ ____
ROOT
ATOM      1  N   UNL     1      -0.862  12.632  21.480  0.00  0.00    +0.000 NA
ATOM      2  C   UNL     1      -0.059  13.827  22.009  0.00  0.00    +0.000 C 
ATOM      3  C   UNL     1       1.128  13.939  21.150  0.00  0.00    +0.000 C 
ATOM      4  C   UNL     1       1.150  12.610  20.454  0.00  0.00    +0.000 C 
ATOM      5  CA  UNL     1       0.469  12.810  19.058  0.00  0.00    +0.000 C 
ATOM      6  N   UNL     1       1.376  12.111  18.200  0.00  0.00    +0.000 N 
ATOM      7  C   UNL     1       1.414  10.760  18.647  0.00  0.00    +0.000 A 
ATOM      8  C   UNL     1       2.111   9.990  17.699  0.00  0.00    +0.000 A 
ATOM      9  C   UNL     1       2.294   8.652  17.858  0.00  0.00    +0.000 A 
ATOM     10  C   UNL     1       1.898   7.991  19.029  0.00  0.00    +0.000 A 
ATOM     11  C   UNL     1       1.157   8.819  20.060  0.00  0.00    +0.000 A 
ATOM     12  C   UNL     1       0.861  10.269  19.906  0.00  0.00    +0.000 A 
ATOM     13  C   UNL     1       0.351  11.460  21.158  0.00  0.00    +0.000 C 
ATOM     14  H   UNL     1       2.327  12.489  18.251  0.00  0.00    +0.000 HD
ENDROOT
BRANCH  10  15
ATOM     15  C   UNL     1       2.366   6.523  19.001  0.00  0.00    +0.000 A 
ATOM     16  C   UNL     1       3.233   5.976  18.042  0.00  0.00    +0.000 A 
ATOM     17  C   UNL     1       3.814   4.673  18.185  0.00  0.00    +0.000 A 
ATOM     18  C   UNL     1       3.579   3.891  19.310  0.00  0.00    +0.000 A 
ATOM     19  C   UNL     1       2.756   4.397  20.286  0.00  0.00    +0.000 A 
ATOM     20  C   UNL     1       2.169   5.667  20.142  0.00  0.00    +0.000 A 
ATOM     21  F   UNL     1       1.462   6.079  21.199  0.00  0.00    +0.000 F 
ENDBRANCH  10  15
BRANCH   1  22
ATOM     22  S   UNL     1      -2.268  12.706  22.572  0.00  0.00    +0.000 S 
ATOM     23  O   UNL     1      -2.322  14.019  23.190  0.00  0.00    +0.000 OA
ATOM     24  O   UNL     1      -2.352  11.508  23.359  0.00  0.00    +0.000 OA
BRANCH  22  29
ATOM     25  C   UNL     1      -6.657  13.110  18.100  0.00  0.00    +0.000 C 
ATOM     26  C   UNL     1      -5.725  12.848  19.264  0.00  0.00    +0.000 A 
ATOM     27  C   UNL     1      -4.477  12.252  19.049  0.00  0.00    +0.000 A 
ATOM     28  C   UNL     1      -3.508  12.155  20.075  0.00  0.00    +0.000 A 
ATOM     29  C   UNL     1      -3.748  12.674  21.348  0.00  0.00    +0.000 A 
ATOM     30  C   UNL     1      -5.067  13.125  21.626  0.00  0.00    +0.000 A 
ATOM     31  C   UNL     1      -6.039  13.224  20.578  0.00  0.00    +0.000 A 
ENDBRANCH  22  29
ENDBRANCH   1  22
BRANCH   5  32
ATOM     32  C   UNL     1      -0.979  12.286  18.692  0.00  0.00    +0.000 C 
BRANCH  32  33
ATOM     33  O   UNL     1      -1.237  12.632  17.321  0.00  0.00    +0.000 OA
ATOM     34  H   UNL     1      -1.812  11.900  17.009  0.00  0.00    +0.000 HD
ENDBRANCH  32  33
ENDBRANCH   5  32
TORSDOF 5
ENDMDL
MODEL 8
REMARK VINA RESULT:      -8.0      3.276      5.254
REMARK  Name = 
REMARK  6 active torsions:
REMARK  status: ('A' for Active; 'I' for Inactive)
REMARK    1  A    between atoms: C_1  and  C_2
REMARK    2  A    between atoms: C_5  and  S_6
REMARK    3  A    between atoms: S_6  and  N_9
REMARK    4  A    between atoms: CA_13  and  C_14
REMARK    5  A    between atoms: C_14  and  O_15
REMARK    6  A    between atoms: C_20  and  C_21
REMARK                            x       y       z     vdW  Elec       q    Type
REMARK                         _______ _______ _______ _____ _____    ______ ____
ROOT
ATOM      1  N   UNL     1      -4.737  14.500  21.405  0.00  0.00    +0.000 NA
ATOM      2  C   UNL     1      -5.189  14.687  22.859  0.00  0.00    +0.000 C 
ATOM      3  C   UNL     1      -3.972  14.639  23.680  0.00  0.00    +0.000 C 
ATOM      4  C   UNL     1      -2.968  14.048  22.734  0.00  0.00    +0.000 C 
ATOM      5  CA  UNL     1      -2.163  15.240  22.113  0.00  0.00    +0.000 C 
ATOM      6  N   UNL     1      -0.821  14.752  22.208  0.00  0.00    +0.000 N 
ATOM      7  C   UNL     1      -0.762  13.547  21.454  0.00  0.00    +0.000 A 
ATOM      8  C   UNL     1       0.583  13.157  21.329  0.00  0.00    +0.000 A 
ATOM      9  C   UNL     1       0.945  12.039  20.643  0.00  0.00    +0.000 A 
ATOM     10  C   UNL     1      -0.011  11.156  20.122  0.00  0.00    +0.000 A 
ATOM     11  C   UNL     1      -1.464  11.565  20.264  0.00  0.00    +0.000 A 
ATOM     12  C   UNL     1      -1.914  12.813  20.937  0.00  0.00    +0.000 A 
ATOM     13  C   UNL     1      -3.561  13.254  21.520  0.00  0.00    +0.000 C 
ATOM     14  H   UNL     1      -0.554  14.536  23.173  0.00  0.00    +0.000 HD
ENDROOT
BRANCH  10  15
ATOM     15  C   UNL     1       0.675   9.907  19.537  0.00  0.00    +0.000 A 
ATOM     16  C   UNL     1       1.187   9.809  18.233  0.00  0.00    +0.000 A 
ATOM     17  C   UNL     1       2.011   8.714  17.812  0.00  0.00    +0.000 A 
ATOM     18  C   UNL     1       2.384   7.703  18.690  0.00  0.00    +0.000 A 
ATOM     19  C   UNL     1       1.926   7.771  19.982  0.00  0.00    +0.000 A 
ATOM     20  C   UNL     1       1.102   8.833  20.396  0.00  0.00    +0.000 A 
ATOM     21  F   UNL     1       0.799   8.830  21.699  0.00  0.00    +0.000 F 
ENDBRANCH  10  15
BRANCH   1  22
ATOM     22  S   UNL     1      -6.305  14.665  20.577  0.00  0.00    +0.000 S 
ATOM     23  O   UNL     1      -6.086  15.190  19.241  0.00  0.00    +0.000 OA
ATOM     24  O   UNL     1      -7.275  15.252  21.459  0.00  0.00    +0.000 OA
BRANCH  22  29
ATOM     25  C   UNL     1      -7.546   8.514  20.359  0.00  0.00    +0.000 C 
ATOM     26  C   UNL     1      -7.410  10.018  20.258  0.00  0.00    +0.000 A 
ATOM     27  C   UNL     1      -7.819  10.837  21.317  0.00  0.00    +0.000 A 
ATOM     28  C   UNL     1      -7.545  12.224  21.340  0.00  0.00    +0.000 A 
ATOM     29  C   UNL     1      -6.829  12.836  20.310  0.00  0.00    +0.000 A 
ATOM     30  C   UNL     1      -6.558  12.054  19.155  0.00  0.00    +0.000 A 
ATOM     31  C   UNL     1      -6.835  10.649  19.145  0.00  0.00    +0.000 A 
ENDBRANCH  22  29
ENDBRANCH   1  22
BRANCH   5  32
ATOM     32  C   UNL     1      -2.344  15.754  20.628  0.00  0.00    +0.000 C 
BRANCH  32  33
ATOM     33  O   UNL     1      -3.245  16.874  20.658  0.00  0.00    +0.000 OA
ATOM     34  H   UNL     1      -4.100  16.481  20.378  0.00  0.00    +0.000 HD
ENDBRANCH  32  33
ENDBRANCH   5  32
TORSDOF 5
ENDMDL
MODEL 9
REMARK VINA RESULT:      -7.9      3.611      7.906
REMARK  Name = 
REMARK  6 active torsions:
REMARK  status: ('A' for Active; 'I' for Inactive)
REMARK    1  A    between atoms: C_1  and  C_2
REMARK    2  A    between atoms: C_5  and  S_6
REMARK    3  A    between atoms: S_6  and  N_9
REMARK    4  A    between atoms: CA_13  and  C_14
REMARK    5  A    between atoms: C_14  and  O_15
REMARK    6  A    between atoms: C_20  and  C_21
REMARK                            x       y       z     vdW  Elec       q    Type
REMARK                         _______ _______ _______ _____ _____    ______ ____
ROOT
ATOM      1  N   UNL     1       0.138  11.033  21.337  0.00  0.00    +0.000 NA
ATOM      2  C   UNL     1      -0.844  11.434  22.445  0.00  0.00    +0.000 C 
ATOM      3  C   UNL     1      -1.253  12.815  22.155  0.00  0.00    +0.000 C 
ATOM      4  C   UNL     1      -0.217  13.256  21.162  0.00  0.00    +0.000 C 
ATOM      5  CA  UNL     1      -0.838  13.071  19.736  0.00  0.00    +0.000 C 
ATOM      6  N   UNL     1      -0.472  14.305  19.108  0.00  0.00    +0.000 N 
ATOM      7  C   UNL     1       0.949  14.375  19.126  0.00  0.00    +0.000 A 
ATOM      8  C   UNL     1       1.359  15.452  18.321  0.00  0.00    +0.000 A 
ATOM      9  C   UNL     1       2.673  15.754  18.141  0.00  0.00    +0.000 A 
ATOM     10  C   UNL     1       3.683  15.078  18.840  0.00  0.00    +0.000 A 
ATOM     11  C   UNL     1       3.247  13.923  19.719  0.00  0.00    +0.000 A 
ATOM     12  C   UNL     1       1.831  13.499  19.893  0.00  0.00    +0.000 A 
ATOM     13  C   UNL     1       1.116  12.433  21.158  0.00  0.00    +0.000 C 
ATOM     14  H   UNL     1      -0.837  15.118  19.612  0.00  0.00    +0.000 HD
ENDROOT
BRANCH  10  15
ATOM     15  C   UNL     1       5.053  15.726  18.562  0.00  0.00    +0.000 A 
ATOM     16  C   UNL     1       5.481  16.955  19.090  0.00  0.00    +0.000 A 
ATOM     17  C   UNL     1       6.838  17.405  18.985  0.00  0.00    +0.000 A 
ATOM     18  C   UNL     1       7.820  16.625  18.385  0.00  0.00    +0.000 A 
ATOM     19  C   UNL     1       7.451  15.404  17.876  0.00  0.00    +0.000 A 
ATOM     20  C   UNL     1       6.117  14.966  17.959  0.00  0.00    +0.000 A 
ATOM     21  F   UNL     1       5.907  13.725  17.507  0.00  0.00    +0.000 F 
ENDBRANCH  10  15
BRANCH   1  22
ATOM     22  S   UNL     1       0.451   9.343  21.807  0.00  0.00    +0.000 S 
ATOM     23  O   UNL     1      -0.812   8.633  21.899  0.00  0.00    +0.000 OA
ATOM     24  O   UNL     1       1.413   9.292  22.871  0.00  0.00    +0.000 OA
BRANCH  22  29
ATOM     25  C   UNL     1       3.942   6.983  17.153  0.00  0.00    +0.000 C 
ATOM     26  C   UNL     1       2.924   7.510  18.142  0.00  0.00    +0.000 A 
ATOM     27  C   UNL     1       2.647   6.801  19.316  0.00  0.00    +0.000 A 
ATOM     28  C   UNL     1       1.843   7.343  20.346  0.00  0.00    +0.000 A 
ATOM     29  C   UNL     1       1.308   8.628  20.244  0.00  0.00    +0.000 A 
ATOM     30  C   UNL     1       1.440   9.288  18.992  0.00  0.00    +0.000 A 
ATOM     31  C   UNL     1       2.260   8.733  17.958  0.00  0.00    +0.000 A 
ENDBRANCH  22  29
ENDBRANCH   1  22
BRANCH   5  32
ATOM     32  C   UNL     1      -0.424  11.922  18.730  0.00  0.00    +0.000 C 
BRANCH  32  33
ATOM     33  O   UNL     1      -1.187  12.100  17.524  0.00  0.00    +0.000 OA
ATOM     34  H   UNL     1      -0.536  11.907  16.816  0.00  0.00    +0.000 HD
ENDBRANCH  32  33
ENDBRANCH   5  32
TORSDOF 5
ENDMDL
