MODEL 1
REMARK VINA RESULT:      -7.8      0.000      0.000
REMARK  Name = 
REMARK  7 active torsions:
REMARK  status: ('A' for Active; 'I' for Inactive)
REMARK    1  A    between atoms: C_1  and  C_2
REMARK    2  A    between atoms: N_6  and  C_7
REMARK    3  A    between atoms: C_7  and  C_8
REMARK    4  A    between atoms: C_10  and  C_11
REMARK    5  A    between atoms: C_14  and  N_15
REMARK    6  A    between atoms: N_15  and  C_16
REMARK    7  A    between atoms: N_15  and  C_17
REMARK                            x       y       z     vdW  Elec       q    Type
REMARK                         _______ _______ _______ _____ _____    ______ ____
ROOT
ATOM      1  C   UNL     1       1.709   7.684  19.511  0.00  0.00    +0.000 C 
ATOM      2  C   UNL     1       1.107   8.231  20.779  0.00  0.00    +0.000 C 
ATOM      3  C   UNL     1       0.614   9.541  20.267  0.00  0.00    +0.000 C 
ATOM      4  N   UNL     1       1.027   9.857  19.084  0.00  0.00    +0.000 NA
ATOM      5  O   UNL     1       1.881   8.820  18.642  0.00  0.00    +0.000 OA
ENDROOT
BRANCH   3   6
ATOM      6  C   UNL     1      -0.290  10.384  21.080  0.00  0.00    +0.000 A 
ATOM      7  C   UNL     1      -0.960  11.459  20.499  0.00  0.00    +0.000 A 
ATOM      8  C   UNL     1      -1.763  12.298  21.280  0.00  0.00    +0.000 A 
ATOM      9  C   UNL     1      -1.927  12.113  22.661  0.00  0.00    +0.000 A 
ATOM     10  C   UNL     1      -1.283  10.989  23.210  0.00  0.00    +0.000 A 
ATOM     11  C   UNL     1      -0.477  10.132  22.437  0.00  0.00    +0.000 A 
BRANCH   9  12
ATOM     12  N   UNL     1      -2.639  13.012  23.438  0.00  0.00    +0.000 N 
ATOM     13  C   UNL     1      -2.048  14.256  23.922  0.00  0.00    +0.000 C 
ATOM     14  C   UNL     1      -3.923  12.668  24.042  0.00  0.00    +0.000 C 
ENDBRANCH   9  12
ENDBRANCH   3   6
BRANCH   1  15
ATOM     15  C   UNL     1       3.074   7.007  19.702  0.00  0.00    +0.000 C 
BRANCH  15  21
ATOM     16  C   UNL     1       3.732   1.439  18.101  0.00  0.00    +0.000 C 
ATOM     17  C   UNL     1       3.527   2.881  18.476  0.00  0.00    +0.000 A 
ATOM     18  C   UNL     1       2.885   3.216  19.602  0.00  0.00    +0.000 A 
ATOM     19  C   UNL     1       2.670   4.616  20.028  0.00  0.00    +0.000 A 
ATOM     20  O   UNL     1       2.048   4.810  21.071  0.00  0.00    +0.000 OA
ATOM     21  N   UNL     1       3.193   5.622  19.223  0.00  0.00    +0.000 N 
ATOM     22  C   UNL     1       3.916   5.310  18.024  0.00  0.00    +0.000 A 
ATOM     23  C   UNL     1       4.497   6.313  17.231  0.00  0.00    +0.000 A 
ATOM     24  C   UNL     1       5.164   6.006  16.045  0.00  0.00    +0.000 A 
ATOM     25  C   UNL     1       5.283   4.685  15.640  0.00  0.00    +0.000 A 
ATOM     26  C   UNL     1       4.742   3.670  16.427  0.00  0.00    +0.000 A 
ATOM     27  C   UNL     1       4.061   3.962  17.624  0.00  0.00    +0.000 A 
ENDBRANCH  15  21
ENDBRANCH   1  15
TORSDOF 4
ENDMDL
MODEL 2
REMARK VINA RESULT:      -7.7      2.629      9.642
REMARK  Name = 
REMARK  7 active torsions:
REMARK  status: ('A' for Active; 'I' for Inactive)
REMARK    1  A    between atoms: C_1  and  C_2
REMARK    2  A    between atoms: N_6  and  C_7
REMARK    3  A    between atoms: C_7  and  C_8
REMARK    4  A    between atoms: C_10  and  C_11
REMARK    5  A    between atoms: C_14  and  N_15
REMARK    6  A    between atoms: N_15  and  C_16
REMARK    7  A    between atoms: N_15  and  C_17
REMARK                            x       y       z     vdW  Elec       q    Type
REMARK                         _______ _______ _______ _____ _____    ______ ____
ROOT
ATOM      1  C   UNL     1       0.329   9.668  18.987  0.00  0.00    +0.000 C 
ATOM      2  C   UNL     1       1.419   9.208  18.055  0.00  0.00    +0.000 C 
ATOM      3  C   UNL     1       2.030   8.146  18.904  0.00  0.00    +0.000 C 
ATOM      4  N   UNL     1       1.625   8.124  20.130  0.00  0.00    +0.000 NA
ATOM      5  O   UNL     1       0.706   9.187  20.291  0.00  0.00    +0.000 OA
ENDROOT
BRANCH   3   6
ATOM      6  C   UNL     1       3.017   7.198  18.341  0.00  0.00    +0.000 A 
ATOM      7  C   UNL     1       3.240   5.968  18.958  0.00  0.00    +0.000 A 
ATOM      8  C   UNL     1       4.220   5.098  18.468  0.00  0.00    +0.000 A 
ATOM      9  C   UNL     1       5.022   5.413  17.360  0.00  0.00    +0.000 A 
ATOM     10  C   UNL     1       4.739   6.636  16.726  0.00  0.00    +0.000 A 
ATOM     11  C   UNL     1       3.751   7.519  17.203  0.00  0.00    +0.000 A 
BRANCH   9  12
ATOM     12  N   UNL     1       6.058   4.589  16.952  0.00  0.00    +0.000 N 
ATOM     13  C   UNL     1       7.398   4.688  17.521  0.00  0.00    +0.000 C 
ATOM     14  C   UNL     1       5.960   3.754  15.757  0.00  0.00    +0.000 C 
ENDBRANCH   9  12
ENDBRANCH   3   6
BRANCH   1  15
ATOM     15  C   UNL     1       0.165  11.193  19.060  0.00  0.00    +0.000 C 
BRANCH  15  21
ATOM     16  C   UNL     1      -5.001  12.915  21.146  0.00  0.00    +0.000 C 
ATOM     17  C   UNL     1      -3.668  12.514  20.578  0.00  0.00    +0.000 A 
ATOM     18  C   UNL     1      -2.559  12.555  21.329  0.00  0.00    +0.000 A 
ATOM     19  C   UNL     1      -1.226  12.156  20.829  0.00  0.00    +0.000 A 
ATOM     20  O   UNL     1      -0.271  12.253  21.599  0.00  0.00    +0.000 OA
ATOM     21  N   UNL     1      -1.141  11.691  19.521  0.00  0.00    +0.000 N 
ATOM     22  C   UNL     1      -2.306  11.601  18.691  0.00  0.00    +0.000 A 
ATOM     23  C   UNL     1      -2.244  11.081  17.387  0.00  0.00    +0.000 A 
ATOM     24  C   UNL     1      -3.373  11.033  16.570  0.00  0.00    +0.000 A 
ATOM     25  C   UNL     1      -4.594  11.483  17.049  0.00  0.00    +0.000 A 
ATOM     26  C   UNL     1      -4.687  11.973  18.350  0.00  0.00    +0.000 A 
ATOM     27  C   UNL     1      -3.556  12.035  19.187  0.00  0.00    +0.000 A 
ENDBRANCH  15  21
ENDBRANCH   1  15
TORSDOF 4
ENDMDL
MODEL 3
REMARK VINA RESULT:      -7.6      3.220      9.169
REMARK  Name = 
REMARK  7 active torsions:
REMARK  status: ('A' for Active; 'I' for Inactive)
REMARK    1  A    between atoms: C_1  and  C_2
REMARK    2  A    between atoms: N_6  and  C_7
REMARK    3  A    between atoms: C_7  and  C_8
REMARK    4  A    between atoms: C_10  and  C_11
REMARK    5  A    between atoms: C_14  and  N_15
REMARK    6  A    between atoms: N_15  and  C_16
REMARK    7  A    between atoms: N_15  and  C_17
REMARK                            x       y       z     vdW  Elec       q    Type
REMARK                         _______ _______ _______ _____ _____    ______ ____
ROOT
ATOM      1  C   UNL     1      -0.754  10.929  20.967  0.00  0.00    +0.000 C 
ATOM      2  C   UNL     1      -0.394   9.819  20.016  0.00  0.00    +0.000 C 
ATOM      3  C   UNL     1       0.865   9.348  20.661  0.00  0.00    +0.000 C 
ATOM      4  N   UNL     1       1.323  10.115  21.594  0.00  0.00    +0.000 NA
ATOM      5  O   UNL     1       0.455  11.227  21.691  0.00  0.00    +0.000 OA
ENDROOT
BRANCH   3   6
ATOM      6  C   UNL     1       1.506   8.082  20.241  0.00  0.00    +0.000 A 
ATOM      7  C   UNL     1       2.213   8.017  19.041  0.00  0.00    +0.000 A 
ATOM      8  C   UNL     1       2.763   6.806  18.608  0.00  0.00    +0.000 A 
ATOM      9  C   UNL     1       2.630   5.614  19.337  0.00  0.00    +0.000 A 
ATOM     10  C   UNL     1       1.959   5.721  20.569  0.00  0.00    +0.000 A 
ATOM     11  C   UNL     1       1.404   6.934  21.021  0.00  0.00    +0.000 A 
BRANCH   9  12
ATOM     12  N   UNL     1       3.088   4.404  18.845  0.00  0.00    +0.000 N 
ATOM     13  C   UNL     1       3.330   4.186  17.422  0.00  0.00    +0.000 C 
ATOM     14  C   UNL     1       3.111   3.193  19.662  0.00  0.00    +0.000 C 
ENDBRANCH   9  12
ENDBRANCH   3   6
BRANCH   1  15
ATOM     15  C   UNL     1      -1.239  12.215  20.281  0.00  0.00    +0.000 C 
BRANCH  15  21
ATOM     16  C   UNL     1      -6.936  12.158  19.038  0.00  0.00    +0.000 C 
ATOM     17  C   UNL     1      -5.461  12.214  19.327  0.00  0.00    +0.000 A 
ATOM     18  C   UNL     1      -5.009  12.596  20.529  0.00  0.00    +0.000 A 
ATOM     19  C   UNL     1      -3.572  12.654  20.874  0.00  0.00    +0.000 A 
ATOM     20  O   UNL     1      -3.267  13.039  22.002  0.00  0.00    +0.000 OA
ATOM     21  N   UNL     1      -2.659  12.261  19.901  0.00  0.00    +0.000 N 
ATOM     22  C   UNL     1      -3.098  11.815  18.611  0.00  0.00    +0.000 A 
ATOM     23  C   UNL     1      -2.192  11.363  17.639  0.00  0.00    +0.000 A 
ATOM     24  C   UNL     1      -2.622  10.968  16.372  0.00  0.00    +0.000 A 
ATOM     25  C   UNL     1      -3.972  10.995  16.060  0.00  0.00    +0.000 A 
ATOM     26  C   UNL     1      -4.894  11.410  17.019  0.00  0.00    +0.000 A 
ATOM     27  C   UNL     1      -4.478  11.817  18.301  0.00  0.00    +0.000 A 
ENDBRANCH  15  21
ENDBRANCH   1  15
TORSDOF 4
ENDMDL
MODEL 4
REMARK VINA RESULT:      -7.6      2.387      2.939
REMARK  Name = 
REMARK  7 active torsions:
REMARK  status: ('A' for Active; 'I' for Inactive)
REMARK    1  A    between atoms: C_1  and  C_2
REMARK    2  A    between atoms: N_6  and  C_7
REMARK    3  A    between atoms: C_7  and  C_8
REMARK    4  A    between atoms: C_10  and  C_11
REMARK    5  A    between atoms: C_14  and  N_15
REMARK    6  A    between atoms: N_15  and  C_16
REMARK    7  A    between atoms: N_15  and  C_17
REMARK                            x       y       z     vdW  Elec       q    Type
REMARK                         _______ _______ _______ _____ _____    ______ ____
ROOT
ATOM      1  C   UNL     1       2.153   8.319  17.988  0.00  0.00    +0.000 C 
ATOM      2  C   UNL     1       0.711   8.436  18.409  0.00  0.00    +0.000 C 
ATOM      3  C   UNL     1       0.506   9.893  18.165  0.00  0.00    +0.000 C 
ATOM      4  N   UNL     1       1.583  10.564  17.924  0.00  0.00    +0.000 NA
ATOM      5  O   UNL     1       2.670   9.663  18.000  0.00  0.00    +0.000 OA
ENDROOT
BRANCH   3   6
ATOM      6  C   UNL     1      -0.849  10.485  18.195  0.00  0.00    +0.000 A 
ATOM      7  C   UNL     1      -1.163  11.475  19.124  0.00  0.00    +0.000 A 
ATOM      8  C   UNL     1      -2.461  11.989  19.200  0.00  0.00    +0.000 A 
ATOM      9  C   UNL     1      -3.500  11.540  18.370  0.00  0.00    +0.000 A 
ATOM     10  C   UNL     1      -3.143  10.579  17.406  0.00  0.00    +0.000 A 
ATOM     11  C   UNL     1      -1.838  10.056  17.314  0.00  0.00    +0.000 A 
BRANCH   9  12
ATOM     12  N   UNL     1      -4.803  11.982  18.528  0.00  0.00    +0.000 N 
ATOM     13  C   UNL     1      -5.358  12.307  19.838  0.00  0.00    +0.000 C 
ATOM     14  C   UNL     1      -5.784  11.905  17.449  0.00  0.00    +0.000 C 
ENDBRANCH   9  12
ENDBRANCH   3   6
BRANCH   1  15
ATOM     15  C   UNL     1       3.014   7.458  18.924  0.00  0.00    +0.000 C 
BRANCH  15  21
ATOM     16  C   UNL     1       3.438   1.712  18.027  0.00  0.00    +0.000 C 
ATOM     17  C   UNL     1       3.300   3.198  18.215  0.00  0.00    +0.000 A 
ATOM     18  C   UNL     1       2.546   3.700  19.202  0.00  0.00    +0.000 A 
ATOM     19  C   UNL     1       2.388   5.151  19.444  0.00  0.00    +0.000 A 
ATOM     20  O   UNL     1       1.654   5.503  20.367  0.00  0.00    +0.000 OA
ATOM     21  N   UNL     1       3.086   6.022  18.615  0.00  0.00    +0.000 N 
ATOM     22  C   UNL     1       3.930   5.529  17.566  0.00  0.00    +0.000 A 
ATOM     23  C   UNL     1       4.683   6.395  16.757  0.00  0.00    +0.000 A 
ATOM     24  C   UNL     1       5.471   5.912  15.712  0.00  0.00    +0.000 A 
ATOM     25  C   UNL     1       5.539   4.549  15.469  0.00  0.00    +0.000 A 
ATOM     26  C   UNL     1       4.824   3.667  16.279  0.00  0.00    +0.000 A 
ATOM     27  C   UNL     1       4.020   4.138  17.334  0.00  0.00    +0.000 A 
ENDBRANCH  15  21
ENDBRANCH   1  15
TORSDOF 4
ENDMDL
MODEL 5
REMARK VINA RESULT:      -7.6      2.306     10.141
REMARK  Name = 
REMARK  7 active torsions:
REMARK  status: ('A' for Active; 'I' for Inactive)
REMARK    1  A    between atoms: C_1  and  C_2
REMARK    2  A    between atoms: N_6  and  C_7
REMARK    3  A    between atoms: C_7  and  C_8
REMARK    4  A    between atoms: C_10  and  C_11
REMARK    5  A    between atoms: C_14  and  N_15
REMARK    6  A    between atoms: N_15  and  C_16
REMARK    7  A    between atoms: N_15  and  C_17
REMARK                            x       y       z     vdW  Elec       q    Type
REMARK                         _______ _______ _______ _____ _____    ______ ____
ROOT
ATOM      1  C   UNL     1      -0.654  10.552  21.820  0.00  0.00    +0.000 C 
ATOM      2  C   UNL     1      -0.275   9.832  20.553  0.00  0.00    +0.000 C 
ATOM      3  C   UNL     1       0.934   9.108  21.039  0.00  0.00    +0.000 C 
ATOM      4  N   UNL     1       1.363   9.476  22.200  0.00  0.00    +0.000 NA
ATOM      5  O   UNL     1       0.523  10.521  22.650  0.00  0.00    +0.000 OA
ENDROOT
BRANCH   3   6
ATOM      6  C   UNL     1       1.561   8.044  20.224  0.00  0.00    +0.000 A 
ATOM      7  C   UNL     1       1.717   6.761  20.745  0.00  0.00    +0.000 A 
ATOM      8  C   UNL     1       2.370   5.771  20.003  0.00  0.00    +0.000 A 
ATOM      9  C   UNL     1       2.900   6.011  18.726  0.00  0.00    +0.000 A 
ATOM     10  C   UNL     1       2.681   7.299  18.204  0.00  0.00    +0.000 A 
ATOM     11  C   UNL     1       2.020   8.305  18.936  0.00  0.00    +0.000 A 
BRANCH   9  12
ATOM     12  N   UNL     1       3.635   5.052  18.049  0.00  0.00    +0.000 N 
ATOM     13  C   UNL     1       3.838   3.710  18.585  0.00  0.00    +0.000 C 
ATOM     14  C   UNL     1       4.468   5.384  16.896  0.00  0.00    +0.000 C 
ENDBRANCH   9  12
ENDBRANCH   3   6
BRANCH   1  15
ATOM     15  C   UNL     1      -1.065  12.018  21.614  0.00  0.00    +0.000 C 
BRANCH  15  21
ATOM     16  C   UNL     1      -6.517  13.288  19.984  0.00  0.00    +0.000 C 
ATOM     17  C   UNL     1      -5.127  12.912  20.417  0.00  0.00    +0.000 A 
ATOM     18  C   UNL     1      -4.146  12.751  19.519  0.00  0.00    +0.000 A 
ATOM     19  C   UNL     1      -2.758  12.399  19.889  0.00  0.00    +0.000 A 
ATOM     20  O   UNL     1      -1.940  12.255  18.982  0.00  0.00    +0.000 OA
ATOM     21  N   UNL     1      -2.467  12.260  21.242  0.00  0.00    +0.000 N 
ATOM     22  C   UNL     1      -3.478  12.454  22.240  0.00  0.00    +0.000 A 
ATOM     23  C   UNL     1      -3.186  12.372  23.612  0.00  0.00    +0.000 A 
ATOM     24  C   UNL     1      -4.182  12.522  24.577  0.00  0.00    +0.000 A 
ATOM     25  C   UNL     1      -5.488  12.781  24.189  0.00  0.00    +0.000 A 
ATOM     26  C   UNL     1      -5.796  12.899  22.835  0.00  0.00    +0.000 A 
ATOM     27  C   UNL     1      -4.805  12.744  21.847  0.00  0.00    +0.000 A 
ENDBRANCH  15  21
ENDBRANCH   1  15
TORSDOF 4
ENDMDL
MODEL 6
REMARK VINA RESULT:      -7.5      3.105      9.931
REMARK  Name = 
REMARK  7 active torsions:
REMARK  status: ('A' for Active; 'I' for Inactive)
REMARK    1  A    between atoms: C_1  and  C_2
REMARK    2  A    between atoms: N_6  and  C_7
REMARK    3  A    between atoms: C_7  and  C_8
REMARK    4  A    between atoms: C_10  and  C_11
REMARK    5  A    between atoms: C_14  and  N_15
REMARK    6  A    between atoms: N_15  and  C_16
REMARK    7  A    between atoms: N_15  and  C_17
REMARK                            x       y       z     vdW  Elec       q    Type
REMARK                         _______ _______ _______ _____ _____    ______ ____
ROOT
ATOM      1  C   UNL     1      -0.790  10.075  18.977  0.00  0.00    +0.000 C 
ATOM      2  C   UNL     1       0.229   9.380  18.114  0.00  0.00    +0.000 C 
ATOM      3  C   UNL     1       1.156   8.896  19.177  0.00  0.00    +0.000 C 
ATOM      4  N   UNL     1       0.938   9.380  20.355  0.00  0.00    +0.000 NA
ATOM      5  O   UNL     1      -0.146  10.282  20.249  0.00  0.00    +0.000 OA
ENDROOT
BRANCH   3   6
ATOM      6  C   UNL     1       2.226   7.923  18.867  0.00  0.00    +0.000 A 
ATOM      7  C   UNL     1       2.989   8.064  17.708  0.00  0.00    +0.000 A 
ATOM      8  C   UNL     1       3.956   7.109  17.378  0.00  0.00    +0.000 A 
ATOM      9  C   UNL     1       4.201   5.978  18.171  0.00  0.00    +0.000 A 
ATOM     10  C   UNL     1       3.455   5.890  19.361  0.00  0.00    +0.000 A 
ATOM     11  C   UNL     1       2.482   6.846  19.710  0.00  0.00    +0.000 A 
BRANCH   9  12
ATOM     12  N   UNL     1       5.087   4.989  17.777  0.00  0.00    +0.000 N 
ATOM     13  C   UNL     1       6.478   4.972  18.219  0.00  0.00    +0.000 C 
ATOM     14  C   UNL     1       4.776   4.054  16.699  0.00  0.00    +0.000 C 
ENDBRANCH   9  12
ENDBRANCH   3   6
BRANCH   1  15
ATOM     15  C   UNL     1      -1.249  11.439  18.438  0.00  0.00    +0.000 C 
BRANCH  15  21
ATOM     16  C   UNL     1      -6.926  12.432  17.554  0.00  0.00    +0.000 C 
ATOM     17  C   UNL     1      -5.475  12.135  17.812  0.00  0.00    +0.000 A 
ATOM     18  C   UNL     1      -4.688  11.652  16.841  0.00  0.00    +0.000 A 
ATOM     19  C   UNL     1      -3.251  11.358  17.033  0.00  0.00    +0.000 A 
ATOM     20  O   UNL     1      -2.626  10.898  16.078  0.00  0.00    +0.000 OA
ATOM     21  N   UNL     1      -2.699  11.628  18.281  0.00  0.00    +0.000 N 
ATOM     22  C   UNL     1      -3.496  12.175  19.340  0.00  0.00    +0.000 A 
ATOM     23  C   UNL     1      -2.940  12.504  20.587  0.00  0.00    +0.000 A 
ATOM     24  C   UNL     1      -3.728  12.997  21.626  0.00  0.00    +0.000 A 
ATOM     25  C   UNL     1      -5.087  13.193  21.432  0.00  0.00    +0.000 A 
ATOM     26  C   UNL     1      -5.656  12.903  20.193  0.00  0.00    +0.000 A 
ATOM     27  C   UNL     1      -4.876  12.399  19.135  0.00  0.00    +0.000 A 
ENDBRANCH  15  21
ENDBRANCH   1  15
TORSDOF 4
ENDMDL
MODEL 7
REMARK VINA RESULT:      -7.5      2.876      9.416
REMARK  Name = 
REMARK  7 active torsions:
REMARK  status: ('A' for Active; 'I' for Inactive)
REMARK    1  A    between atoms: C_1  and  C_2
REMARK    2  A    between atoms: N_6  and  C_7
REMARK    3  A    between atoms: C_7  and  C_8
REMARK    4  A    between atoms: C_10  and  C_11
REMARK    5  A    between atoms: C_14  and  N_15
REMARK    6  A    between atoms: N_15  and  C_16
REMARK    7  A    between atoms: N_15  and  C_17
REMARK                            x       y       z     vdW  Elec       q    Type
REMARK                         _______ _______ _______ _____ _____    ______ ____
ROOT
ATOM      1  C   UNL     1      -0.445  10.580  21.302  0.00  0.00    +0.000 C 
ATOM      2  C   UNL     1      -0.122   9.626  20.183  0.00  0.00    +0.000 C 
ATOM      3  C   UNL     1       1.096   8.984  20.757  0.00  0.00    +0.000 C 
ATOM      4  N   UNL     1       1.571   9.558  21.812  0.00  0.00    +0.000 NA
ATOM      5  O   UNL     1       0.761  10.685  22.083  0.00  0.00    +0.000 OA
ENDROOT
BRANCH   3   6
ATOM      6  C   UNL     1       1.679   7.772  20.140  0.00  0.00    +0.000 A 
ATOM      7  C   UNL     1       1.608   6.545  20.797  0.00  0.00    +0.000 A 
ATOM      8  C   UNL     1       2.217   5.412  20.248  0.00  0.00    +0.000 A 
ATOM      9  C   UNL     1       2.925   5.449  19.037  0.00  0.00    +0.000 A 
ATOM     10  C   UNL     1       2.934   6.687  18.369  0.00  0.00    +0.000 A 
ATOM     11  C   UNL     1       2.321   7.835  18.906  0.00  0.00    +0.000 A 
BRANCH   9  12
ATOM     12  N   UNL     1       3.610   4.344  18.559  0.00  0.00    +0.000 N 
ATOM     13  C   UNL     1       4.766   3.788  19.257  0.00  0.00    +0.000 C 
ATOM     14  C   UNL     1       3.400   3.823  17.211  0.00  0.00    +0.000 C 
ENDBRANCH   9  12
ENDBRANCH   3   6
BRANCH   1  15
ATOM     15  C   UNL     1      -0.844  11.988  20.834  0.00  0.00    +0.000 C 
BRANCH  15  21
ATOM     16  C   UNL     1      -6.615  12.746  20.476  0.00  0.00    +0.000 C 
ATOM     17  C   UNL     1      -5.120  12.594  20.540  0.00  0.00    +0.000 A 
ATOM     18  C   UNL     1      -4.457  12.793  21.687  0.00  0.00    +0.000 A 
ATOM     19  C   UNL     1      -2.991  12.641  21.812  0.00  0.00    +0.000 A 
ATOM     20  O   UNL     1      -2.481  12.868  22.909  0.00  0.00    +0.000 OA
ATOM     21  N   UNL     1      -2.285  12.244  20.681  0.00  0.00    +0.000 N 
ATOM     22  C   UNL     1      -2.957  11.989  19.441  0.00  0.00    +0.000 A 
ATOM     23  C   UNL     1      -2.265  11.535  18.306  0.00  0.00    +0.000 A 
ATOM     24  C   UNL     1      -2.918  11.327  17.092  0.00  0.00    +0.000 A 
ATOM     25  C   UNL     1      -4.283  11.549  16.993  0.00  0.00    +0.000 A 
ATOM     26  C   UNL     1      -4.997  11.970  18.113  0.00  0.00    +0.000 A 
ATOM     27  C   UNL     1      -4.353  12.190  19.346  0.00  0.00    +0.000 A 
ENDBRANCH  15  21
ENDBRANCH   1  15
TORSDOF 4
ENDMDL
MODEL 8
REMARK VINA RESULT:      -7.5      3.078      9.992
REMARK  Name = 
REMARK  7 active torsions:
REMARK  status: ('A' for Active; 'I' for Inactive)
REMARK    1  A    between atoms: C_1  and  C_2
REMARK    2  A    between atoms: N_6  and  C_7
REMARK    3  A    between atoms: C_7  and  C_8
REMARK    4  A    between atoms: C_10  and  C_11
REMARK    5  A    between atoms: C_14  and  N_15
REMARK    6  A    between atoms: N_15  and  C_16
REMARK    7  A    between atoms: N_15  and  C_17
REMARK                            x       y       z     vdW  Elec       q    Type
REMARK                         _______ _______ _______ _____ _____    ______ ____
ROOT
ATOM      1  C   UNL     1      -0.835  10.467  19.445  0.00  0.00    +0.000 C 
ATOM      2  C   UNL     1      -0.052   9.611  18.485  0.00  0.00    +0.000 C 
ATOM      3  C   UNL     1       1.076   9.219  19.377  0.00  0.00    +0.000 C 
ATOM      4  N   UNL     1       1.140   9.863  20.495  0.00  0.00    +0.000 NA
ATOM      5  O   UNL     1       0.083  10.801  20.504  0.00  0.00    +0.000 OA
ENDROOT
BRANCH   3   6
ATOM      6  C   UNL     1       2.026   8.157  18.978  0.00  0.00    +0.000 A 
ATOM      7  C   UNL     1       2.215   7.042  19.793  0.00  0.00    +0.000 A 
ATOM      8  C   UNL     1       3.161   6.069  19.452  0.00  0.00    +0.000 A 
ATOM      9  C   UNL     1       3.961   6.164  18.302  0.00  0.00    +0.000 A 
ATOM     10  C   UNL     1       3.711   7.272  17.472  0.00  0.00    +0.000 A 
ATOM     11  C   UNL     1       2.758   8.256  17.798  0.00  0.00    +0.000 A 
BRANCH   9  12
ATOM     12  N   UNL     1       4.965   5.248  18.035  0.00  0.00    +0.000 N 
ATOM     13  C   UNL     1       4.807   4.193  17.038  0.00  0.00    +0.000 C 
ATOM     14  C   UNL     1       6.134   5.105  18.898  0.00  0.00    +0.000 C 
ENDBRANCH   9  12
ENDBRANCH   3   6
BRANCH   1  15
ATOM     15  C   UNL     1      -1.369  11.772  18.835  0.00  0.00    +0.000 C 
BRANCH  15  21
ATOM     16  C   UNL     1      -7.052  12.288  17.637  0.00  0.00    +0.000 C 
ATOM     17  C   UNL     1      -5.598  12.113  17.975  0.00  0.00    +0.000 A 
ATOM     18  C   UNL     1      -4.722  11.692  17.053  0.00  0.00    +0.000 A 
ATOM     19  C   UNL     1      -3.278  11.519  17.326  0.00  0.00    +0.000 A 
ATOM     20  O   UNL     1      -2.567  11.106  16.411  0.00  0.00    +0.000 OA
ATOM     21  N   UNL     1      -2.819  11.840  18.598  0.00  0.00    +0.000 N 
ATOM     22  C   UNL     1      -3.715  12.325  19.607  0.00  0.00    +0.000 A 
ATOM     23  C   UNL     1      -3.256  12.707  20.879  0.00  0.00    +0.000 A 
ATOM     24  C   UNL     1      -4.138  13.139  21.869  0.00  0.00    +0.000 A 
ATOM     25  C   UNL     1      -5.496  13.221  21.600  0.00  0.00    +0.000 A 
ATOM     26  C   UNL     1      -5.971  12.878  20.335  0.00  0.00    +0.000 A 
ATOM     27  C   UNL     1      -5.096  12.434  19.326  0.00  0.00    +0.000 A 
ENDBRANCH  15  21
ENDBRANCH   1  15
TORSDOF 4
ENDMDL
MODEL 9
REMARK VINA RESULT:      -7.4      2.316     10.033
REMARK  Name = 
REMARK  7 active torsions:
REMARK  status: ('A' for Active; 'I' for Inactive)
REMARK    1  A    between atoms: C_1  and  C_2
REMARK    2  A    between atoms: N_6  and  C_7
REMARK    3  A    between atoms: C_7  and  C_8
REMARK    4  A    between atoms: C_10  and  C_11
REMARK    5  A    between atoms: C_14  and  N_15
REMARK    6  A    between atoms: N_15  and  C_16
REMARK    7  A    between atoms: N_15  and  C_17
REMARK                            x       y       z     vdW  Elec       q    Type
REMARK                         _______ _______ _______ _____ _____    ______ ____
ROOT
ATOM      1  C   UNL     1      -0.581  10.560  21.633  0.00  0.00    +0.000 C 
ATOM      2  C   UNL     1      -0.213   9.734  20.428  0.00  0.00    +0.000 C 
ATOM      3  C   UNL     1       1.003   9.057  20.963  0.00  0.00    +0.000 C 
ATOM      4  N   UNL     1       1.443   9.526  22.083  0.00  0.00    +0.000 NA
ATOM      5  O   UNL     1       0.604  10.603  22.450  0.00  0.00    +0.000 OA
ENDROOT
BRANCH   3   6
ATOM      6  C   UNL     1       1.625   7.928  20.237  0.00  0.00    +0.000 A 
ATOM      7  C   UNL     1       2.204   8.131  18.985  0.00  0.00    +0.000 A 
ATOM      8  C   UNL     1       2.733   7.053  18.267  0.00  0.00    +0.000 A 
ATOM      9  C   UNL     1       2.703   5.736  18.751  0.00  0.00    +0.000 A 
ATOM     10  C   UNL     1       2.161   5.569  20.039  0.00  0.00    +0.000 A 
ATOM     11  C   UNL     1       1.631   6.645  20.777  0.00  0.00    +0.000 A 
BRANCH   9  12
ATOM     12  N   UNL     1       3.134   4.667  17.984  0.00  0.00    +0.000 N 
ATOM     13  C   UNL     1       4.172   4.811  16.967  0.00  0.00    +0.000 C 
ATOM     14  C   UNL     1       2.414   3.397  17.949  0.00  0.00    +0.000 C 
ENDBRANCH   9  12
ENDBRANCH   3   6
BRANCH   1  15
ATOM     15  C   UNL     1      -0.999  12.001  21.304  0.00  0.00    +0.000 C 
BRANCH  15  21
ATOM     16  C   UNL     1      -6.552  13.171  19.963  0.00  0.00    +0.000 C 
ATOM     17  C   UNL     1      -5.135  12.822  20.325  0.00  0.00    +0.000 A 
ATOM     18  C   UNL     1      -4.215  12.603  19.376  0.00  0.00    +0.000 A 
ATOM     19  C   UNL     1      -2.804  12.274  19.675  0.00  0.00    +0.000 A 
ATOM     20  O   UNL     1      -2.048  12.071  18.726  0.00  0.00    +0.000 OA
ATOM     21  N   UNL     1      -2.424  12.221  21.011  0.00  0.00    +0.000 N 
ATOM     22  C   UNL     1      -3.367  12.479  22.060  0.00  0.00    +0.000 A 
ATOM     23  C   UNL     1      -2.984  12.484  23.412  0.00  0.00    +0.000 A 
ATOM     24  C   UNL     1      -3.914  12.696  24.429  0.00  0.00    +0.000 A 
ATOM     25  C   UNL     1      -5.244  12.931  24.114  0.00  0.00    +0.000 A 
ATOM     26  C   UNL     1      -5.642  12.963  22.778  0.00  0.00    +0.000 A 
ATOM     27  C   UNL     1      -4.717  12.745  21.739  0.00  0.00    +0.000 A 
ENDBRANCH  15  21
ENDBRANCH   1  15
TORSDOF 4
ENDMDL
