MODEL 1
REMARK VINA RESULT:      -8.0      0.000      0.000
REMARK  Name = 
REMARK  13 active torsions:
REMARK  status: ('A' for Active; 'I' for Inactive)
REMARK    1  A    between atoms: C_1  and  C_2
REMARK    2  A    between atoms: C_2  and  O_3
REMARK    3  A    between atoms: O_3  and  C_4
REMARK    4  A    between atoms: C_4  and  C_6
REMARK    5  A    between atoms: C_7  and  C_8
REMARK    6  A    between atoms: C_8  and  C_9
REMARK    7  A    between atoms: N_11  and  C_12
REMARK    8  A    between atoms: C_13  and  S_14
REMARK    9  A    between atoms: S_14  and  N_17
REMARK   10  A    between atoms: C_23  and  O_24
REMARK   11  A    between atoms: O_24  and  C_25
REMARK   12  A    between atoms: C_27  and  O_28
REMARK   13  A    between atoms: O_28  and  C_29
REMARK                            x       y       z     vdW  Elec       q    Type
REMARK                         _______ _______ _______ _____ _____    ______ ____
ROOT
ATOM      1  S   UNL     1       5.004   3.871  19.401  0.00  0.00    +0.000 S 
ATOM      2  O   UNL     1       4.947   2.455  19.673  0.00  0.00    +0.000 OA
ATOM      3  O   UNL     1       6.109   4.671  19.885  0.00  0.00    +0.000 OA
ENDROOT
BRANCH   1   4
ATOM      4  N   UNL     1       3.625   4.588  19.996  0.00  0.00    +0.000 N 
ATOM      5  C   UNL     1       3.274   5.887  19.666  0.00  0.00    +0.000 C 
ATOM      6  O   UNL     1       3.940   6.501  18.847  0.00  0.00    +0.000 OA
ATOM      7  N   UNL     1       2.209   6.368  20.372  0.00  0.00    +0.000 N 
ATOM      8  C   UNL     1       1.696   7.641  20.164  0.00  0.00    +0.000 A 
ATOM      9  N   UNL     1       2.082   8.323  19.094  0.00  0.00    +0.000 NA
ATOM     10  C   UNL     1       1.618   9.564  18.931  0.00  0.00    +0.000 A 
ATOM     11  C   UNL     1       0.760  10.156  19.810  0.00  0.00    +0.000 A 
ATOM     12  C   UNL     1       0.398   9.364  20.876  0.00  0.00    +0.000 A 
ATOM     13  N   UNL     1       0.833   8.101  21.073  0.00  0.00    +0.000 NA
ATOM     14  H   UNL     1       3.170   4.054  20.722  0.00  0.00    +0.000 HD
ATOM     15  H   UNL     1       1.802   5.863  21.137  0.00  0.00    +0.000 HD
BRANCH  10  16
ATOM     16  O   UNL     1       2.034  10.278  17.827  0.00  0.00    +0.000 OA
ATOM     17  C   UNL     1       2.212  11.669  18.121  0.00  0.00    +0.000 C 
ENDBRANCH  10  16
BRANCH  12  18
ATOM     18  O   UNL     1      -0.455   9.945  21.796  0.00  0.00    +0.000 OA
ATOM     19  C   UNL     1      -0.394  11.368  21.798  0.00  0.00    +0.000 C 
ENDBRANCH  12  18
ENDBRANCH   1   4
BRANCH   1  25
ATOM     20  C   UNL     1       6.104   4.485  16.796  0.00  0.00    +0.000 A 
ATOM     21  C   UNL     1       5.582   4.385  15.480  0.00  0.00    +0.000 A 
ATOM     22  N   UNL     1       4.314   3.969  15.493  0.00  0.00    +0.000 NA
ATOM     23  N   UNL     1       4.016   3.812  16.798  0.00  0.00    +0.000 N 
ATOM     24  C   UNL     1       2.677   3.374  17.123  0.00  0.00    +0.000 C 
ATOM     25  C   UNL     1       5.067   4.081  17.641  0.00  0.00    +0.000 A 
BRANCH  20  26
ATOM     26  C   UNL     1       7.437   4.896  17.195  0.00  0.00    +0.000 C 
ATOM     27  O   UNL     1       8.272   4.123  17.646  0.00  0.00    +0.000 OA
BRANCH  26  28
ATOM     28  O   UNL     1       7.667   6.219  16.962  0.00  0.00    +0.000 OA
BRANCH  28  30
ATOM     29  C   UNL     1       7.915   8.512  17.697  0.00  0.00    +0.000 C 
ATOM     30  C   UNL     1       7.762   7.064  18.115  0.00  0.00    +0.000 C 
ENDBRANCH  28  30
ENDBRANCH  26  28
ENDBRANCH  20  26
BRANCH  21  31
ATOM     31  C   UNL     1       6.223   4.718  14.169  0.00  0.00    +0.000 C 
ATOM     32  C   UNL     1       6.103   3.607  13.136  0.00  0.00    +0.000 C 
ENDBRANCH  21  31
ENDBRANCH   1  25
TORSDOF 8
ENDMDL
MODEL 2
REMARK VINA RESULT:      -7.8      1.869      2.871
REMARK  Name = 
REMARK  13 active torsions:
REMARK  status: ('A' for Active; 'I' for Inactive)
REMARK    1  A    between atoms: C_1  and  C_2
REMARK    2  A    between atoms: C_2  and  O_3
REMARK    3  A    between atoms: O_3  and  C_4
REMARK    4  A    between atoms: C_4  and  C_6
REMARK    5  A    between atoms: C_7  and  C_8
REMARK    6  A    between atoms: C_8  and  C_9
REMARK    7  A    between atoms: N_11  and  C_12
REMARK    8  A    between atoms: C_13  and  S_14
REMARK    9  A    between atoms: S_14  and  N_17
REMARK   10  A    between atoms: C_23  and  O_24
REMARK   11  A    between atoms: O_24  and  C_25
REMARK   12  A    between atoms: C_27  and  O_28
REMARK   13  A    between atoms: O_28  and  C_29
REMARK                            x       y       z     vdW  Elec       q    Type
REMARK                         _______ _______ _______ _____ _____    ______ ____
ROOT
ATOM      1  S   UNL     1       3.374   5.346  18.801  0.00  0.00    +0.000 S 
ATOM      2  O   UNL     1       2.170   4.580  19.014  0.00  0.00    +0.000 OA
ATOM      3  O   UNL     1       4.372   5.456  19.844  0.00  0.00    +0.000 OA
ENDROOT
BRANCH   1   4
ATOM      4  N   UNL     1       2.954   6.907  18.404  0.00  0.00    +0.000 N 
ATOM      5  C   UNL     1       2.120   7.667  19.207  0.00  0.00    +0.000 C 
ATOM      6  O   UNL     1       1.748   7.222  20.282  0.00  0.00    +0.000 OA
ATOM      7  N   UNL     1       1.748   8.856  18.649  0.00  0.00    +0.000 N 
ATOM      8  C   UNL     1       0.934   9.765  19.311  0.00  0.00    +0.000 A 
ATOM      9  N   UNL     1       0.705   9.597  20.607  0.00  0.00    +0.000 NA
ATOM     10  C   UNL     1      -0.117  10.449  21.222  0.00  0.00    +0.000 A 
ATOM     11  C   UNL     1      -0.724  11.488  20.580  0.00  0.00    +0.000 A 
ATOM     12  C   UNL     1      -0.408  11.596  19.244  0.00  0.00    +0.000 A 
ATOM     13  N   UNL     1       0.427  10.764  18.586  0.00  0.00    +0.000 NA
ATOM     14  H   UNL     1       3.231   7.177  17.471  0.00  0.00    +0.000 HD
ATOM     15  H   UNL     1       1.969   9.093  17.699  0.00  0.00    +0.000 HD
BRANCH  10  16
ATOM     16  O   UNL     1      -0.367  10.262  22.565  0.00  0.00    +0.000 OA
ATOM     17  C   UNL     1      -1.277  11.240  23.085  0.00  0.00    +0.000 C 
ENDBRANCH  10  16
BRANCH  12  18
ATOM     18  O   UNL     1      -1.025  12.627  18.561  0.00  0.00    +0.000 OA
ATOM     19  C   UNL     1      -0.206  13.786  18.436  0.00  0.00    +0.000 C 
ENDBRANCH  12  18
ENDBRANCH   1   4
BRANCH   1  25
ATOM     20  C   UNL     1       5.044   5.171  16.444  0.00  0.00    +0.000 A 
ATOM     21  C   UNL     1       5.544   4.074  15.696  0.00  0.00    +0.000 A 
ATOM     22  N   UNL     1       5.092   2.913  16.177  0.00  0.00    +0.000 NA
ATOM     23  N   UNL     1       4.303   3.255  17.214  0.00  0.00    +0.000 N 
ATOM     24  C   UNL     1       3.653   2.181  17.932  0.00  0.00    +0.000 C 
ATOM     25  C   UNL     1       4.252   4.607  17.449  0.00  0.00    +0.000 A 
BRANCH  20  26
ATOM     26  C   UNL     1       5.307   6.583  16.237  0.00  0.00    +0.000 C 
ATOM     27  O   UNL     1       5.004   7.180  15.212  0.00  0.00    +0.000 OA
BRANCH  26  28
ATOM     28  O   UNL     1       5.876   7.172  17.326  0.00  0.00    +0.000 OA
BRANCH  28  30
ATOM     29  C   UNL     1       7.942   8.367  17.734  0.00  0.00    +0.000 C 
ATOM     30  C   UNL     1       7.293   7.024  17.466  0.00  0.00    +0.000 C 
ENDBRANCH  28  30
ENDBRANCH  26  28
ENDBRANCH  20  26
BRANCH  21  31
ATOM     31  C   UNL     1       6.418   4.064  14.480  0.00  0.00    +0.000 C 
ATOM     32  C   UNL     1       5.682   3.665  13.209  0.00  0.00    +0.000 C 
ENDBRANCH  21  31
ENDBRANCH   1  25
TORSDOF 8
ENDMDL
MODEL 3
REMARK VINA RESULT:      -7.1      3.784      6.470
REMARK  Name = 
REMARK  13 active torsions:
REMARK  status: ('A' for Active; 'I' for Inactive)
REMARK    1  A    between atoms: C_1  and  C_2
REMARK    2  A    between atoms: C_2  and  O_3
REMARK    3  A    between atoms: O_3  and  C_4
REMARK    4  A    between atoms: C_4  and  C_6
REMARK    5  A    between atoms: C_7  and  C_8
REMARK    6  A    between atoms: C_8  and  C_9
REMARK    7  A    between atoms: N_11  and  C_12
REMARK    8  A    between atoms: C_13  and  S_14
REMARK    9  A    between atoms: S_14  and  N_17
REMARK   10  A    between atoms: C_23  and  O_24
REMARK   11  A    between atoms: O_24  and  C_25
REMARK   12  A    between atoms: C_27  and  O_28
REMARK   13  A    between atoms: O_28  and  C_29
REMARK                            x       y       z     vdW  Elec       q    Type
REMARK                         _______ _______ _______ _____ _____    ______ ____
ROOT
ATOM      1  S   UNL     1       7.230   5.363  17.858  0.00  0.00    +0.000 S 
ATOM      2  O   UNL     1       7.195   5.418  19.300  0.00  0.00    +0.000 OA
ATOM      3  O   UNL     1       8.262   4.613  17.174  0.00  0.00    +0.000 OA
ENDROOT
BRANCH   1   4
ATOM      4  N   UNL     1       7.322   6.914  17.263  0.00  0.00    +0.000 N 
ATOM      5  C   UNL     1       8.014   7.913  17.930  0.00  0.00    +0.000 C 
ATOM      6  O   UNL     1       8.649   7.638  18.936  0.00  0.00    +0.000 OA
ATOM      7  N   UNL     1       7.846   9.156  17.390  0.00  0.00    +0.000 N 
ATOM      8  C   UNL     1       8.477  10.280  17.905  0.00  0.00    +0.000 A 
ATOM      9  N   UNL     1       9.456  10.120  18.786  0.00  0.00    +0.000 NA
ATOM     10  C   UNL     1      10.023  11.209  19.309  0.00  0.00    +0.000 A 
ATOM     11  C   UNL     1       9.646  12.476  18.972  0.00  0.00    +0.000 A 
ATOM     12  C   UNL     1       8.641  12.542  18.034  0.00  0.00    +0.000 A 
ATOM     13  N   UNL     1       8.049  11.467  17.471  0.00  0.00    +0.000 NA
ATOM     14  H   UNL     1       6.712   7.086  16.477  0.00  0.00    +0.000 HD
ATOM     15  H   UNL     1       7.189   9.335  16.653  0.00  0.00    +0.000 HD
BRANCH  10  16
ATOM     16  O   UNL     1      11.028  11.041  20.238  0.00  0.00    +0.000 OA
ATOM     17  C   UNL     1      12.189  11.821  19.923  0.00  0.00    +0.000 C 
ENDBRANCH  10  16
BRANCH  12  18
ATOM     18  O   UNL     1       8.223  13.813  17.687  0.00  0.00    +0.000 OA
ATOM     19  C   UNL     1       8.749  14.828  18.537  0.00  0.00    +0.000 C 
ENDBRANCH  12  18
ENDBRANCH   1   4
BRANCH   1  25
ATOM     20  C   UNL     1       4.632   4.101  18.021  0.00  0.00    +0.000 A 
ATOM     21  C   UNL     1       3.691   3.697  17.037  0.00  0.00    +0.000 A 
ATOM     22  N   UNL     1       4.156   3.915  15.805  0.00  0.00    +0.000 NA
ATOM     23  N   UNL     1       5.383   4.441  15.988  0.00  0.00    +0.000 N 
ATOM     24  C   UNL     1       6.145   4.771  14.804  0.00  0.00    +0.000 C 
ATOM     25  C   UNL     1       5.722   4.607  17.309  0.00  0.00    +0.000 A 
BRANCH  20  26
ATOM     26  C   UNL     1       4.495   4.029  19.464  0.00  0.00    +0.000 C 
ATOM     27  O   UNL     1       4.820   3.050  20.122  0.00  0.00    +0.000 OA
BRANCH  26  28
ATOM     28  O   UNL     1       4.019   5.188  20.000  0.00  0.00    +0.000 OA
BRANCH  28  30
ATOM     29  C   UNL     1       1.740   4.748  20.690  0.00  0.00    +0.000 C 
ATOM     30  C   UNL     1       2.646   5.498  19.734  0.00  0.00    +0.000 C 
ENDBRANCH  28  30
ENDBRANCH  26  28
ENDBRANCH  20  26
BRANCH  21  31
ATOM     31  C   UNL     1       2.351   3.051  17.203  0.00  0.00    +0.000 C 
ATOM     32  C   UNL     1       2.379   1.819  18.096  0.00  0.00    +0.000 C 
ENDBRANCH  21  31
ENDBRANCH   1  25
TORSDOF 8
ENDMDL
MODEL 4
REMARK VINA RESULT:      -7.0      2.756      8.799
REMARK  Name = 
REMARK  13 active torsions:
REMARK  status: ('A' for Active; 'I' for Inactive)
REMARK    1  A    between atoms: C_1  and  C_2
REMARK    2  A    between atoms: C_2  and  O_3
REMARK    3  A    between atoms: O_3  and  C_4
REMARK    4  A    between atoms: C_4  and  C_6
REMARK    5  A    between atoms: C_7  and  C_8
REMARK    6  A    between atoms: C_8  and  C_9
REMARK    7  A    between atoms: N_11  and  C_12
REMARK    8  A    between atoms: C_13  and  S_14
REMARK    9  A    between atoms: S_14  and  N_17
REMARK   10  A    between atoms: C_23  and  O_24
REMARK   11  A    between atoms: O_24  and  C_25
REMARK   12  A    between atoms: C_27  and  O_28
REMARK   13  A    between atoms: O_28  and  C_29
REMARK                            x       y       z     vdW  Elec       q    Type
REMARK                         _______ _______ _______ _____ _____    ______ ____
ROOT
ATOM      1  S   UNL     1       0.384   9.034  21.564  0.00  0.00    +0.000 S 
ATOM      2  O   UNL     1       1.275   9.261  22.677  0.00  0.00    +0.000 OA
ATOM      3  O   UNL     1      -0.746   8.139  21.694  0.00  0.00    +0.000 OA
ENDROOT
BRANCH   1   4
ATOM      4  N   UNL     1       1.271   8.467  20.275  0.00  0.00    +0.000 N 
ATOM      5  C   UNL     1       1.884   7.226  20.299  0.00  0.00    +0.000 C 
ATOM      6  O   UNL     1       1.705   6.482  21.251  0.00  0.00    +0.000 OA
ATOM      7  N   UNL     1       2.704   6.994  19.231  0.00  0.00    +0.000 N 
ATOM      8  C   UNL     1       3.388   5.797  19.067  0.00  0.00    +0.000 A 
ATOM      9  N   UNL     1       3.059   4.759  19.826  0.00  0.00    +0.000 NA
ATOM     10  C   UNL     1       3.755   3.629  19.691  0.00  0.00    +0.000 A 
ATOM     11  C   UNL     1       4.783   3.492  18.805  0.00  0.00    +0.000 A 
ATOM     12  C   UNL     1       5.036   4.612  18.047  0.00  0.00    +0.000 A 
ATOM     13  N   UNL     1       4.349   5.771  18.141  0.00  0.00    +0.000 NA
ATOM     14  H   UNL     1       1.441   9.162  19.562  0.00  0.00    +0.000 HD
ATOM     15  H   UNL     1       2.924   7.707  18.561  0.00  0.00    +0.000 HD
BRANCH  10  16
ATOM     16  O   UNL     1       3.423   2.557  20.493  0.00  0.00    +0.000 OA
ATOM     17  C   UNL     1       2.331   2.859  21.371  0.00  0.00    +0.000 C 
ENDBRANCH  10  16
BRANCH  12  18
ATOM     18  O   UNL     1       6.086   4.511  17.153  0.00  0.00    +0.000 OA
ATOM     19  C   UNL     1       7.363   4.640  17.772  0.00  0.00    +0.000 C 
ENDBRANCH  12  18
ENDBRANCH   1   4
BRANCH   1  25
ATOM     20  C   UNL     1      -0.342  11.320  19.945  0.00  0.00    +0.000 A 
ATOM     21  C   UNL     1      -1.171  12.447  20.184  0.00  0.00    +0.000 A 
ATOM     22  N   UNL     1      -1.652  12.439  21.430  0.00  0.00    +0.000 NA
ATOM     23  N   UNL     1      -1.133  11.329  21.992  0.00  0.00    +0.000 N 
ATOM     24  C   UNL     1      -1.477  11.064  23.371  0.00  0.00    +0.000 C 
ATOM     25  C   UNL     1      -0.353  10.590  21.137  0.00  0.00    +0.000 A 
BRANCH  20  26
ATOM     26  C   UNL     1       0.357  10.973  18.722  0.00  0.00    +0.000 C 
ATOM     27  O   UNL     1       1.434  11.458  18.403  0.00  0.00    +0.000 OA
BRANCH  26  28
ATOM     28  O   UNL     1      -0.293  10.015  18.004  0.00  0.00    +0.000 OA
BRANCH  28  30
ATOM     29  C   UNL     1      -2.681   9.730  17.726  0.00  0.00    +0.000 C 
ATOM     30  C   UNL     1      -1.432  10.444  17.249  0.00  0.00    +0.000 C 
ENDBRANCH  28  30
ENDBRANCH  26  28
ENDBRANCH  20  26
BRANCH  21  31
ATOM     31  C   UNL     1      -1.507  13.595  19.284  0.00  0.00    +0.000 C 
ATOM     32  C   UNL     1      -0.384  14.615  19.159  0.00  0.00    +0.000 C 
ENDBRANCH  21  31
ENDBRANCH   1  25
TORSDOF 8
ENDMDL
MODEL 5
REMARK VINA RESULT:      -7.0      2.698      9.095
REMARK  Name = 
REMARK  13 active torsions:
REMARK  status: ('A' for Active; 'I' for Inactive)
REMARK    1  A    between atoms: C_1  and  C_2
REMARK    2  A    between atoms: C_2  and  O_3
REMARK    3  A    between atoms: O_3  and  C_4
REMARK    4  A    between atoms: C_4  and  C_6
REMARK    5  A    between atoms: C_7  and  C_8
REMARK    6  A    between atoms: C_8  and  C_9
REMARK    7  A    between atoms: N_11  and  C_12
REMARK    8  A    between atoms: C_13  and  S_14
REMARK    9  A    between atoms: S_14  and  N_17
REMARK   10  A    between atoms: C_23  and  O_24
REMARK   11  A    between atoms: O_24  and  C_25
REMARK   12  A    between atoms: C_27  and  O_28
REMARK   13  A    between atoms: O_28  and  C_29
REMARK                            x       y       z     vdW  Elec       q    Type
REMARK                         _______ _______ _______ _____ _____    ______ ____
ROOT
ATOM      1  S   UNL     1       0.882  10.078  19.056  0.00  0.00    +0.000 S 
ATOM      2  O   UNL     1      -0.198   9.990  18.102  0.00  0.00    +0.000 OA
ATOM      3  O   UNL     1       2.044  10.896  18.780  0.00  0.00    +0.000 OA
ENDROOT
BRANCH   1   4
ATOM      4  N   UNL     1       1.461   8.546  19.353  0.00  0.00    +0.000 N 
ATOM      5  C   UNL     1       2.282   7.888  18.454  0.00  0.00    +0.000 C 
ATOM      6  O   UNL     1       2.670   8.470  17.453  0.00  0.00    +0.000 OA
ATOM      7  N   UNL     1       2.525   6.584  18.779  0.00  0.00    +0.000 N 
ATOM      8  C   UNL     1       3.344   5.767  18.012  0.00  0.00    +0.000 A 
ATOM      9  N   UNL     1       4.108   6.319  17.077  0.00  0.00    +0.000 NA
ATOM     10  C   UNL     1       4.855   5.519  16.315  0.00  0.00    +0.000 A 
ATOM     11  C   UNL     1       4.875   4.163  16.459  0.00  0.00    +0.000 A 
ATOM     12  C   UNL     1       4.069   3.684  17.468  0.00  0.00    +0.000 A 
ATOM     13  N   UNL     1       3.307   4.458  18.270  0.00  0.00    +0.000 NA
ATOM     14  H   UNL     1       1.038   8.101  20.154  0.00  0.00    +0.000 HD
ATOM     15  H   UNL     1       2.052   6.125  19.536  0.00  0.00    +0.000 HD
BRANCH  10  16
ATOM     16  O   UNL     1       5.635   6.093  15.333  0.00  0.00    +0.000 OA
ATOM     17  C   UNL     1       6.727   5.247  14.949  0.00  0.00    +0.000 C 
ENDBRANCH  10  16
BRANCH  12  18
ATOM     18  O   UNL     1       4.052   2.311  17.625  0.00  0.00    +0.000 OA
ATOM     19  C   UNL     1       3.351   1.889  18.791  0.00  0.00    +0.000 C 
ENDBRANCH  12  18
ENDBRANCH   1   4
BRANCH   1  25
ATOM     20  C   UNL     1      -0.643  11.836  20.774  0.00  0.00    +0.000 A 
ATOM     21  C   UNL     1      -0.869  11.859  22.175  0.00  0.00    +0.000 A 
ATOM     22  N   UNL     1      -0.185  10.892  22.791  0.00  0.00    +0.000 NA
ATOM     23  N   UNL     1       0.481  10.260  21.805  0.00  0.00    +0.000 N 
ATOM     24  C   UNL     1       1.332   9.154  22.185  0.00  0.00    +0.000 C 
ATOM     25  C   UNL     1       0.226  10.764  20.554  0.00  0.00    +0.000 A 
BRANCH  20  26
ATOM     26  C   UNL     1      -1.205  12.718  19.769  0.00  0.00    +0.000 C 
ATOM     27  O   UNL     1      -2.154  12.411  19.059  0.00  0.00    +0.000 OA
BRANCH  26  28
ATOM     28  O   UNL     1      -0.595  13.936  19.743  0.00  0.00    +0.000 OA
BRANCH  28  30
ATOM     29  C   UNL     1       1.048  15.495  18.887  0.00  0.00    +0.000 C 
ATOM     30  C   UNL     1       0.437  14.114  18.765  0.00  0.00    +0.000 C 
ENDBRANCH  28  30
ENDBRANCH  26  28
ENDBRANCH  20  26
BRANCH  21  31
ATOM     31  C   UNL     1      -1.685  12.807  22.998  0.00  0.00    +0.000 C 
ATOM     32  C   UNL     1      -3.053  12.257  23.377  0.00  0.00    +0.000 C 
ENDBRANCH  21  31
ENDBRANCH   1  25
TORSDOF 8
ENDMDL
MODEL 6
REMARK VINA RESULT:      -6.9      2.950      9.499
REMARK  Name = 
REMARK  13 active torsions:
REMARK  status: ('A' for Active; 'I' for Inactive)
REMARK    1  A    between atoms: C_1  and  C_2
REMARK    2  A    between atoms: C_2  and  O_3
REMARK    3  A    between atoms: O_3  and  C_4
REMARK    4  A    between atoms: C_4  and  C_6
REMARK    5  A    between atoms: C_7  and  C_8
REMARK    6  A    between atoms: C_8  and  C_9
REMARK    7  A    between atoms: N_11  and  C_12
REMARK    8  A    between atoms: C_13  and  S_14
REMARK    9  A    between atoms: S_14  and  N_17
REMARK   10  A    between atoms: C_23  and  O_24
REMARK   11  A    between atoms: O_24  and  C_25
REMARK   12  A    between atoms: C_27  and  O_28
REMARK   13  A    between atoms: O_28  and  C_29
REMARK                            x       y       z     vdW  Elec       q    Type
REMARK                         _______ _______ _______ _____ _____    ______ ____
ROOT
ATOM      1  S   UNL     1       0.490  10.222  19.849  0.00  0.00    +0.000 S 
ATOM      2  O   UNL     1      -0.418   9.901  18.774  0.00  0.00    +0.000 OA
ATOM      3  O   UNL     1       1.540  11.200  19.659  0.00  0.00    +0.000 OA
ENDROOT
BRANCH   1   4
ATOM      4  N   UNL     1       1.249   8.826  20.345  0.00  0.00    +0.000 N 
ATOM      5  C   UNL     1       1.965   8.031  19.465  0.00  0.00    +0.000 C 
ATOM      6  O   UNL     1       2.124   8.400  18.311  0.00  0.00    +0.000 OA
ATOM      7  N   UNL     1       2.378   6.845  20.002  0.00  0.00    +0.000 N 
ATOM      8  C   UNL     1       3.128   5.926  19.282  0.00  0.00    +0.000 A 
ATOM      9  N   UNL     1       3.670   6.299  18.130  0.00  0.00    +0.000 NA
ATOM     10  C   UNL     1       4.349   5.393  17.425  0.00  0.00    +0.000 A 
ATOM     11  C   UNL     1       4.517   4.104  17.840  0.00  0.00    +0.000 A 
ATOM     12  C   UNL     1       3.940   3.816  19.055  0.00  0.00    +0.000 A 
ATOM     13  N   UNL     1       3.256   4.705  19.807  0.00  0.00    +0.000 NA
ATOM     14  H   UNL     1       1.010   8.545  21.284  0.00  0.00    +0.000 HD
ATOM     15  H   UNL     1       2.084   6.539  20.911  0.00  0.00    +0.000 HD
BRANCH  10  16
ATOM     16  O   UNL     1       4.896   5.778  16.219  0.00  0.00    +0.000 OA
ATOM     17  C   UNL     1       6.329   5.789  16.256  0.00  0.00    +0.000 C 
ENDBRANCH  10  16
BRANCH  12  18
ATOM     18  O   UNL     1       4.076   2.512  19.493  0.00  0.00    +0.000 OA
ATOM     19  C   UNL     1       3.565   1.555  18.570  0.00  0.00    +0.000 C 
ENDBRANCH  12  18
ENDBRANCH   1   4
BRANCH   1  25
ATOM     20  C   UNL     1      -1.453  11.872  21.216  0.00  0.00    +0.000 A 
ATOM     21  C   UNL     1      -1.914  11.910  22.559  0.00  0.00    +0.000 A 
ATOM     22  N   UNL     1      -1.260  11.028  23.319  0.00  0.00    +0.000 NA
ATOM     23  N   UNL     1      -0.384  10.436  22.484  0.00  0.00    +0.000 N 
ATOM     24  C   UNL     1       0.486   9.427  23.046  0.00  0.00    +0.000 C 
ATOM     25  C   UNL     1      -0.468  10.882  21.188  0.00  0.00    +0.000 A 
BRANCH  20  26
ATOM     26  C   UNL     1      -1.914  12.670  20.096  0.00  0.00    +0.000 C 
ATOM     27  O   UNL     1      -1.294  13.627  19.652  0.00  0.00    +0.000 OA
BRANCH  26  28
ATOM     28  O   UNL     1      -3.079  12.202  19.566  0.00  0.00    +0.000 OA
BRANCH  28  30
ATOM     29  C   UNL     1      -4.099  10.735  17.933  0.00  0.00    +0.000 C 
ATOM     30  C   UNL     1      -3.035  11.780  18.198  0.00  0.00    +0.000 C 
ENDBRANCH  28  30
ENDBRANCH  26  28
ENDBRANCH  20  26
BRANCH  21  31
ATOM     31  C   UNL     1      -2.938  12.797  23.194  0.00  0.00    +0.000 C 
ATOM     32  C   UNL     1      -2.396  14.164  23.587  0.00  0.00    +0.000 C 
ENDBRANCH  21  31
ENDBRANCH   1  25
TORSDOF 8
ENDMDL
MODEL 7
REMARK VINA RESULT:      -6.9      2.822      9.274
REMARK  Name = 
REMARK  13 active torsions:
REMARK  status: ('A' for Active; 'I' for Inactive)
REMARK    1  A    between atoms: C_1  and  C_2
REMARK    2  A    between atoms: C_2  and  O_3
REMARK    3  A    between atoms: O_3  and  C_4
REMARK    4  A    between atoms: C_4  and  C_6
REMARK    5  A    between atoms: C_7  and  C_8
REMARK    6  A    between atoms: C_8  and  C_9
REMARK    7  A    between atoms: N_11  and  C_12
REMARK    8  A    between atoms: C_13  and  S_14
REMARK    9  A    between atoms: S_14  and  N_17
REMARK   10  A    between atoms: C_23  and  O_24
REMARK   11  A    between atoms: O_24  and  C_25
REMARK   12  A    between atoms: C_27  and  O_28
REMARK   13  A    between atoms: O_28  and  C_29
REMARK                            x       y       z     vdW  Elec       q    Type
REMARK                         _______ _______ _______ _____ _____    ______ ____
ROOT
ATOM      1  S   UNL     1       0.791  10.078  18.923  0.00  0.00    +0.000 S 
ATOM      2  O   UNL     1      -0.150   9.713  17.891  0.00  0.00    +0.000 OA
ATOM      3  O   UNL     1       1.840  11.039  18.658  0.00  0.00    +0.000 OA
ENDROOT
BRANCH   1   4
ATOM      4  N   UNL     1       1.557   8.702  19.461  0.00  0.00    +0.000 N 
ATOM      5  C   UNL     1       2.313   7.907  18.615  0.00  0.00    +0.000 C 
ATOM      6  O   UNL     1       2.502   8.263  17.462  0.00  0.00    +0.000 OA
ATOM      7  N   UNL     1       2.728   6.736  19.181  0.00  0.00    +0.000 N 
ATOM      8  C   UNL     1       3.515   5.819  18.498  0.00  0.00    +0.000 A 
ATOM      9  N   UNL     1       4.087   6.186  17.358  0.00  0.00    +0.000 NA
ATOM     10  C   UNL     1       4.802   5.282  16.687  0.00  0.00    +0.000 A 
ATOM     11  C   UNL     1       4.978   4.002  17.125  0.00  0.00    +0.000 A 
ATOM     12  C   UNL     1       4.368   3.721  18.326  0.00  0.00    +0.000 A 
ATOM     13  N   UNL     1       3.646   4.608  19.044  0.00  0.00    +0.000 NA
ATOM     14  H   UNL     1       1.293   8.429  20.397  0.00  0.00    +0.000 HD
ATOM     15  H   UNL     1       2.410   6.437  20.085  0.00  0.00    +0.000 HD
BRANCH  10  16
ATOM     16  O   UNL     1       5.380   5.661  15.494  0.00  0.00    +0.000 OA
ATOM     17  C   UNL     1       5.673   4.535  14.656  0.00  0.00    +0.000 C 
ENDBRANCH  10  16
BRANCH  12  18
ATOM     18  O   UNL     1       4.512   2.425  18.786  0.00  0.00    +0.000 OA
ATOM     19  C   UNL     1       3.424   1.578  18.424  0.00  0.00    +0.000 C 
ENDBRANCH  12  18
ENDBRANCH   1   4
BRANCH   1  25
ATOM     20  C   UNL     1      -1.118  11.789  20.265  0.00  0.00    +0.000 A 
ATOM     21  C   UNL     1      -1.530  11.899  21.619  0.00  0.00    +0.000 A 
ATOM     22  N   UNL     1      -0.842  11.066  22.403  0.00  0.00    +0.000 NA
ATOM     23  N   UNL     1       0.010  10.434  21.572  0.00  0.00    +0.000 N 
ATOM     24  C   UNL     1       0.908   9.464  22.157  0.00  0.00    +0.000 C 
ATOM     25  C   UNL     1      -0.125  10.805  20.256  0.00  0.00    +0.000 A 
BRANCH  20  26
ATOM     26  C   UNL     1      -1.625  12.519  19.118  0.00  0.00    +0.000 C 
ATOM     27  O   UNL     1      -0.926  13.234  18.413  0.00  0.00    +0.000 OA
BRANCH  26  28
ATOM     28  O   UNL     1      -2.946  12.277  18.889  0.00  0.00    +0.000 OA
BRANCH  28  30
ATOM     29  C   UNL     1      -3.199  11.203  16.734  0.00  0.00    +0.000 C 
ATOM     30  C   UNL     1      -3.266  11.041  18.239  0.00  0.00    +0.000 C 
ENDBRANCH  28  30
ENDBRANCH  26  28
ENDBRANCH  20  26
BRANCH  21  31
ATOM     31  C   UNL     1      -2.540  12.813  22.239  0.00  0.00    +0.000 C 
ATOM     32  C   UNL     1      -3.154  12.259  23.517  0.00  0.00    +0.000 C 
ENDBRANCH  21  31
ENDBRANCH   1  25
TORSDOF 8
ENDMDL
MODEL 8
REMARK VINA RESULT:      -6.9      2.695      8.886
REMARK  Name = 
REMARK  13 active torsions:
REMARK  status: ('A' for Active; 'I' for Inactive)
REMARK    1  A    between atoms: C_1  and  C_2
REMARK    2  A    between atoms: C_2  and  O_3
REMARK    3  A    between atoms: O_3  and  C_4
REMARK    4  A    between atoms: C_4  and  C_6
REMARK    5  A    between atoms: C_7  and  C_8
REMARK    6  A    between atoms: C_8  and  C_9
REMARK    7  A    between atoms: N_11  and  C_12
REMARK    8  A    between atoms: C_13  and  S_14
REMARK    9  A    between atoms: S_14  and  N_17
REMARK   10  A    between atoms: C_23  and  O_24
REMARK   11  A    between atoms: O_24  and  C_25
REMARK   12  A    between atoms: C_27  and  O_28
REMARK   13  A    between atoms: O_28  and  C_29
REMARK                            x       y       z     vdW  Elec       q    Type
REMARK                         _______ _______ _______ _____ _____    ______ ____
ROOT
ATOM      1  S   UNL     1       0.633   8.950  21.151  0.00  0.00    +0.000 S 
ATOM      2  O   UNL     1       1.619   9.014  22.203  0.00  0.00    +0.000 OA
ATOM      3  O   UNL     1      -0.432   7.970  21.197  0.00  0.00    +0.000 OA
ENDROOT
BRANCH   1   4
ATOM      4  N   UNL     1       1.411   8.711  19.700  0.00  0.00    +0.000 N 
ATOM      5  C   UNL     1       2.135   7.559  19.438  0.00  0.00    +0.000 C 
ATOM      6  O   UNL     1       2.135   6.649  20.253  0.00  0.00    +0.000 OA
ATOM      7  N   UNL     1       2.842   7.603  18.271  0.00  0.00    +0.000 N 
ATOM      8  C   UNL     1       3.609   6.535  17.827  0.00  0.00    +0.000 A 
ATOM      9  N   UNL     1       3.467   5.353  18.414  0.00  0.00    +0.000 NA
ATOM     10  C   UNL     1       4.243   4.347  18.010  0.00  0.00    +0.000 A 
ATOM     11  C   UNL     1       5.169   4.476  17.017  0.00  0.00    +0.000 A 
ATOM     12  C   UNL     1       5.229   5.730  16.453  0.00  0.00    +0.000 A 
ATOM     13  N   UNL     1       4.454   6.773  16.822  0.00  0.00    +0.000 NA
ATOM     14  H   UNL     1       1.434   9.531  19.111  0.00  0.00    +0.000 HD
ATOM     15  H   UNL     1       2.917   8.440  17.723  0.00  0.00    +0.000 HD
BRANCH  10  16
ATOM     16  O   UNL     1       4.106   3.124  18.634  0.00  0.00    +0.000 OA
ATOM     17  C   UNL     1       3.274   3.204  19.798  0.00  0.00    +0.000 C 
ENDBRANCH  10  16
BRANCH  12  18
ATOM     18  O   UNL     1       6.173   5.899  15.457  0.00  0.00    +0.000 OA
ATOM     19  C   UNL     1       6.915   4.714  15.182  0.00  0.00    +0.000 C 
ENDBRANCH  12  18
ENDBRANCH   1   4
BRANCH   1  25
ATOM     20  C   UNL     1      -0.388  11.442  20.094  0.00  0.00    +0.000 A 
ATOM     21  C   UNL     1      -1.234  12.445  20.635  0.00  0.00    +0.000 A 
ATOM     22  N   UNL     1      -1.560  12.172  21.900  0.00  0.00    +0.000 NA
ATOM     23  N   UNL     1      -0.927  11.015  22.177  0.00  0.00    +0.000 N 
ATOM     24  C   UNL     1      -1.090  10.475  23.508  0.00  0.00    +0.000 C 
ATOM     25  C   UNL     1      -0.222  10.503  21.116  0.00  0.00    +0.000 A 
BRANCH  20  26
ATOM     26  C   UNL     1       0.173  11.378  18.758  0.00  0.00    +0.000 C 
ATOM     27  O   UNL     1       1.151  12.026  18.407  0.00  0.00    +0.000 OA
BRANCH  26  28
ATOM     28  O   UNL     1      -0.474  10.481  17.962  0.00  0.00    +0.000 OA
BRANCH  28  30
ATOM     29  C   UNL     1      -2.768   9.769  17.657  0.00  0.00    +0.000 C 
ATOM     30  C   UNL     1      -1.756  10.879  17.461  0.00  0.00    +0.000 C 
ENDBRANCH  28  30
ENDBRANCH  26  28
ENDBRANCH  20  26
BRANCH  21  31
ATOM     31  C   UNL     1      -1.729  13.715  20.016  0.00  0.00    +0.000 C 
ATOM     32  C   UNL     1      -0.678  14.815  19.970  0.00  0.00    +0.000 C 
ENDBRANCH  21  31
ENDBRANCH   1  25
TORSDOF 8
ENDMDL
MODEL 9
REMARK VINA RESULT:      -6.8      2.736      8.702
REMARK  Name = 
REMARK  13 active torsions:
REMARK  status: ('A' for Active; 'I' for Inactive)
REMARK    1  A    between atoms: C_1  and  C_2
REMARK    2  A    between atoms: C_2  and  O_3
REMARK    3  A    between atoms: O_3  and  C_4
REMARK    4  A    between atoms: C_4  and  C_6
REMARK    5  A    between atoms: C_7  and  C_8
REMARK    6  A    between atoms: C_8  and  C_9
REMARK    7  A    between atoms: N_11  and  C_12
REMARK    8  A    between atoms: C_13  and  S_14
REMARK    9  A    between atoms: S_14  and  N_17
REMARK   10  A    between atoms: C_23  and  O_24
REMARK   11  A    between atoms: O_24  and  C_25
REMARK   12  A    between atoms: C_27  and  O_28
REMARK   13  A    between atoms: O_28  and  C_29
REMARK                            x       y       z     vdW  Elec       q    Type
REMARK                         _______ _______ _______ _____ _____    ______ ____
ROOT
ATOM      1  S   UNL     1       0.731   9.361  21.532  0.00  0.00    +0.000 S 
ATOM      2  O   UNL     1       1.732   9.419  22.570  0.00  0.00    +0.000 OA
ATOM      3  O   UNL     1      -0.465   8.564  21.704  0.00  0.00    +0.000 OA
ENDROOT
BRANCH   1   4
ATOM      4  N   UNL     1       1.444   8.818  20.129  0.00  0.00    +0.000 N 
ATOM      5  C   UNL     1       1.836   7.499  19.971  0.00  0.00    +0.000 C 
ATOM      6  O   UNL     1       1.577   6.684  20.843  0.00  0.00    +0.000 OA
ATOM      7  N   UNL     1       2.551   7.268  18.831  0.00  0.00    +0.000 N 
ATOM      8  C   UNL     1       3.011   6.004  18.487  0.00  0.00    +0.000 A 
ATOM      9  N   UNL     1       2.545   4.950  19.144  0.00  0.00    +0.000 NA
ATOM     10  C   UNL     1       3.030   3.746  18.836  0.00  0.00    +0.000 A 
ATOM     11  C   UNL     1       3.975   3.551  17.872  0.00  0.00    +0.000 A 
ATOM     12  C   UNL     1       4.380   4.699  17.229  0.00  0.00    +0.000 A 
ATOM     13  N   UNL     1       3.908   5.934  17.501  0.00  0.00    +0.000 NA
ATOM     14  H   UNL     1       1.697   9.557  19.489  0.00  0.00    +0.000 HD
ATOM     15  H   UNL     1       2.858   8.012  18.232  0.00  0.00    +0.000 HD
BRANCH  10  16
ATOM     16  O   UNL     1       2.557   2.653  19.532  0.00  0.00    +0.000 OA
ATOM     17  C   UNL     1       1.221   2.854  20.008  0.00  0.00    +0.000 C 
ENDBRANCH  10  16
BRANCH  12  18
ATOM     18  O   UNL     1       5.353   4.536  16.261  0.00  0.00    +0.000 OA
ATOM     19  C   UNL     1       6.678   4.590  16.782  0.00  0.00    +0.000 C 
ENDBRANCH  12  18
ENDBRANCH   1   4
BRANCH   1  25
ATOM     20  C   UNL     1       0.407  11.964  20.310  0.00  0.00    +0.000 A 
ATOM     21  C   UNL     1      -0.457  13.056  20.582  0.00  0.00    +0.000 A 
ATOM     22  N   UNL     1      -1.220  12.816  21.651  0.00  0.00    +0.000 NA
ATOM     23  N   UNL     1      -0.848  11.590  22.070  0.00  0.00    +0.000 N 
ATOM     24  C   UNL     1      -1.510  11.064  23.243  0.00  0.00    +0.000 C 
ATOM     25  C   UNL     1       0.114  11.005  21.284  0.00  0.00    +0.000 A 
BRANCH  20  26
ATOM     26  C   UNL     1       1.377  11.842  19.238  0.00  0.00    +0.000 C 
ATOM     27  O   UNL     1       1.282  11.022  18.334  0.00  0.00    +0.000 OA
BRANCH  26  28
ATOM     28  O   UNL     1       2.368  12.774  19.323  0.00  0.00    +0.000 OA
BRANCH  28  30
ATOM     29  C   UNL     1       3.881  14.354  18.286  0.00  0.00    +0.000 C 
ATOM     30  C   UNL     1       2.574  13.596  18.169  0.00  0.00    +0.000 C 
ENDBRANCH  28  30
ENDBRANCH  26  28
ENDBRANCH  20  26
BRANCH  21  31
ATOM     31  C   UNL     1      -0.571  14.380  19.892  0.00  0.00    +0.000 C 
ATOM     32  C   UNL     1      -0.729  15.551  20.852  0.00  0.00    +0.000 C 
ENDBRANCH  21  31
ENDBRANCH   1  25
TORSDOF 8
ENDMDL
