MODEL 1
REMARK VINA RESULT:      -9.3      0.000      0.000
REMARK  Name = 
REMARK  3 active torsions:
REMARK  status: ('A' for Active; 'I' for Inactive)
REMARK    1  A    between atoms: N_4  and  C_5
REMARK    2  A    between atoms: C_5  and  C_6
REMARK    3  A    between atoms: C_13  and  C_14
REMARK                            x       y       z     vdW  Elec       q    Type
REMARK                         _______ _______ _______ _____ _____    ______ ____
ROOT
ATOM      1  C   UNL     1       4.406   2.417  19.886  0.00  0.00    +0.000 A 
ATOM      2  N   UNL     1       5.245   3.211  19.210  0.00  0.00    +0.000 NA
ATOM      3  C   UNL     1       4.895   4.503  19.100  0.00  0.00    +0.000 A 
ATOM      4  N   UNL     1       5.737   5.371  18.395  0.00  0.00    +0.000 N 
ATOM      5  C   UNL     1       3.695   4.997  19.653  0.00  0.00    +0.000 A 
ATOM      6  C   UNL     1       3.232   6.334  19.530  0.00  0.00    +0.000 A 
ATOM      7  C   UNL     1       2.020   6.774  20.095  0.00  0.00    +0.000 A 
ATOM      8  C   UNL     1       1.261   5.816  20.775  0.00  0.00    +0.000 A 
ATOM      9  C   UNL     1       1.700   4.487  20.879  0.00  0.00    +0.000 A 
ATOM     10  C   UNL     1       2.903   4.064  20.330  0.00  0.00    +0.000 A 
ATOM     11  N   UNL     1       3.252   2.780  20.459  0.00  0.00    +0.000 NA
ATOM     12  H   UNL     1       6.099   6.122  18.977  0.00  0.00    +0.000 HD
ENDROOT
BRANCH   7  13
ATOM     13  C   UNL     1       1.587   8.187  19.984  0.00  0.00    +0.000 A 
ATOM     14  C   UNL     1       1.592   8.879  18.744  0.00  0.00    +0.000 A 
ATOM     15  C   UNL     1       1.181  10.217  18.640  0.00  0.00    +0.000 A 
ATOM     16  C   UNL     1       0.784  10.856  19.790  0.00  0.00    +0.000 A 
ATOM     17  C   UNL     1       0.773  10.209  20.999  0.00  0.00    +0.000 A 
ATOM     18  C   UNL     1       1.152   8.890  21.125  0.00  0.00    +0.000 A 
ATOM     19  O   UNL     1       0.357  11.009  22.018  0.00  0.00    +0.000 OA
ATOM     20  C   UNL     1       0.161  12.253  21.315  0.00  0.00    +0.000 C 
ATOM     21  O   UNL     1       0.373  12.148  19.891  0.00  0.00    +0.000 OA
ENDBRANCH   7  13
BRANCH   4  22
ATOM     22  C   UNL     1       6.742   4.811  17.492  0.00  0.00    +0.000 C 
BRANCH  22  23
ATOM     23  C   UNL     1       6.394   4.925  16.004  0.00  0.00    +0.000 C 
ATOM     24  C   UNL     1       5.964   3.652  15.302  0.00  0.00    +0.000 C 
ATOM     25  C   UNL     1       6.110   4.065  13.856  0.00  0.00    +0.000 C 
ATOM     26  C   UNL     1       7.358   4.928  13.885  0.00  0.00    +0.000 C 
ATOM     27  O   UNL     1       7.503   5.428  15.227  0.00  0.00    +0.000 OA
ENDBRANCH  22  23
ENDBRANCH   4  22
TORSDOF 3
ENDMDL
MODEL 2
REMARK VINA RESULT:      -8.9      0.637      1.342
REMARK  Name = 
REMARK  3 active torsions:
REMARK  status: ('A' for Active; 'I' for Inactive)
REMARK    1  A    between atoms: N_4  and  C_5
REMARK    2  A    between atoms: C_5  and  C_6
REMARK    3  A    between atoms: C_13  and  C_14
REMARK                            x       y       z     vdW  Elec       q    Type
REMARK                         _______ _______ _______ _____ _____    ______ ____
ROOT
ATOM      1  C   UNL     1       4.377   2.311  19.571  0.00  0.00    +0.000 A 
ATOM      2  N   UNL     1       5.241   3.192  19.051  0.00  0.00    +0.000 NA
ATOM      3  C   UNL     1       4.891   4.487  19.114  0.00  0.00    +0.000 A 
ATOM      4  N   UNL     1       5.757   5.446  18.576  0.00  0.00    +0.000 N 
ATOM      5  C   UNL     1       3.666   4.899  19.681  0.00  0.00    +0.000 A 
ATOM      6  C   UNL     1       3.204   6.242  19.732  0.00  0.00    +0.000 A 
ATOM      7  C   UNL     1       1.968   6.598  20.303  0.00  0.00    +0.000 A 
ATOM      8  C   UNL     1       1.185   5.554  20.806  0.00  0.00    +0.000 A 
ATOM      9  C   UNL     1       1.624   4.223  20.737  0.00  0.00    +0.000 A 
ATOM     10  C   UNL     1       2.851   3.881  20.184  0.00  0.00    +0.000 A 
ATOM     11  N   UNL     1       3.199   2.591  20.141  0.00  0.00    +0.000 NA
ATOM     12  H   UNL     1       6.092   6.105  19.275  0.00  0.00    +0.000 HD
ENDROOT
BRANCH   7  13
ATOM     13  C   UNL     1       1.534   8.013  20.378  0.00  0.00    +0.000 A 
ATOM     14  C   UNL     1       1.108   8.606  21.597  0.00  0.00    +0.000 A 
ATOM     15  C   UNL     1       0.697   9.945  21.667  0.00  0.00    +0.000 A 
ATOM     16  C   UNL     1       0.701  10.677  20.503  0.00  0.00    +0.000 A 
ATOM     17  C   UNL     1       1.105  10.127  19.314  0.00  0.00    +0.000 A 
ATOM     18  C   UNL     1       1.532   8.819  19.223  0.00  0.00    +0.000 A 
ATOM     19  O   UNL     1       1.031  11.005  18.278  0.00  0.00    +0.000 OA
ATOM     20  C   UNL     1       0.478  12.157  18.945  0.00  0.00    +0.000 C 
ATOM     21  O   UNL     1       0.322  11.976  20.369  0.00  0.00    +0.000 OA
ENDBRANCH   7  13
BRANCH   4  22
ATOM     22  C   UNL     1       6.802   5.019  17.645  0.00  0.00    +0.000 C 
BRANCH  22  23
ATOM     23  C   UNL     1       6.395   5.067  16.168  0.00  0.00    +0.000 C 
ATOM     24  C   UNL     1       5.900   3.773  15.553  0.00  0.00    +0.000 C 
ATOM     25  C   UNL     1       5.996   4.106  14.082  0.00  0.00    +0.000 C 
ATOM     26  C   UNL     1       7.268   4.930  14.015  0.00  0.00    +0.000 C 
ATOM     27  O   UNL     1       7.483   5.495  15.321  0.00  0.00    +0.000 OA
ENDBRANCH  22  23
ENDBRANCH   4  22
TORSDOF 3
ENDMDL
MODEL 3
REMARK VINA RESULT:      -8.3      0.935      1.131
REMARK  Name = 
REMARK  3 active torsions:
REMARK  status: ('A' for Active; 'I' for Inactive)
REMARK    1  A    between atoms: N_4  and  C_5
REMARK    2  A    between atoms: C_5  and  C_6
REMARK    3  A    between atoms: C_13  and  C_14
REMARK                            x       y       z     vdW  Elec       q    Type
REMARK                         _______ _______ _______ _____ _____    ______ ____
ROOT
ATOM      1  C   UNL     1       4.431   2.319  19.607  0.00  0.00    +0.000 A 
ATOM      2  N   UNL     1       5.347   3.260  19.350  0.00  0.00    +0.000 NA
ATOM      3  C   UNL     1       4.949   4.537  19.474  0.00  0.00    +0.000 A 
ATOM      4  N   UNL     1       5.869   5.558  19.207  0.00  0.00    +0.000 N 
ATOM      5  C   UNL     1       3.628   4.872  19.838  0.00  0.00    +0.000 A 
ATOM      6  C   UNL     1       3.121   6.195  19.935  0.00  0.00    +0.000 A 
ATOM      7  C   UNL     1       1.789   6.474  20.295  0.00  0.00    +0.000 A 
ATOM      8  C   UNL     1       0.961   5.373  20.535  0.00  0.00    +0.000 A 
ATOM      9  C   UNL     1       1.448   4.063  20.418  0.00  0.00    +0.000 A 
ATOM     10  C   UNL     1       2.767   3.796  20.074  0.00  0.00    +0.000 A 
ATOM     11  N   UNL     1       3.159   2.522  19.970  0.00  0.00    +0.000 NA
ATOM     12  H   UNL     1       6.047   6.145  20.019  0.00  0.00    +0.000 HD
ENDROOT
BRANCH   7  13
ATOM     13  C   UNL     1       1.303   7.868  20.427  0.00  0.00    +0.000 A 
ATOM     14  C   UNL     1       1.521   8.840  19.414  0.00  0.00    +0.000 A 
ATOM     15  C   UNL     1       1.061  10.159  19.540  0.00  0.00    +0.000 A 
ATOM     16  C   UNL     1       0.397  10.497  20.696  0.00  0.00    +0.000 A 
ATOM     17  C   UNL     1       0.177   9.578  21.689  0.00  0.00    +0.000 A 
ATOM     18  C   UNL     1       0.601   8.271  21.581  0.00  0.00    +0.000 A 
ATOM     19  O   UNL     1      -0.488  10.104  22.753  0.00  0.00    +0.000 OA
ATOM     20  C   UNL     1      -0.610  11.479  22.335  0.00  0.00    +0.000 C 
ATOM     21  O   UNL     1      -0.104  11.723  21.006  0.00  0.00    +0.000 OA
ENDBRANCH   7  13
BRANCH   4  22
ATOM     22  C   UNL     1       7.082   5.244  18.453  0.00  0.00    +0.000 C 
BRANCH  22  23
ATOM     23  C   UNL     1       6.916   5.304  16.930  0.00  0.00    +0.000 C 
ATOM     24  C   UNL     1       5.649   5.949  16.405  0.00  0.00    +0.000 C 
ATOM     25  C   UNL     1       5.660   5.465  14.973  0.00  0.00    +0.000 C 
ATOM     26  C   UNL     1       6.189   4.050  15.109  0.00  0.00    +0.000 C 
ATOM     27  O   UNL     1       6.947   3.990  16.331  0.00  0.00    +0.000 OA
ENDBRANCH  22  23
ENDBRANCH   4  22
TORSDOF 3
ENDMDL
MODEL 4
REMARK VINA RESULT:      -8.3      1.937      7.812
REMARK  Name = 
REMARK  3 active torsions:
REMARK  status: ('A' for Active; 'I' for Inactive)
REMARK    1  A    between atoms: N_4  and  C_5
REMARK    2  A    between atoms: C_5  and  C_6
REMARK    3  A    between atoms: C_13  and  C_14
REMARK                            x       y       z     vdW  Elec       q    Type
REMARK                         _______ _______ _______ _____ _____    ______ ____
ROOT
ATOM      1  C   UNL     1       0.897   3.154  20.751  0.00  0.00    +0.000 A 
ATOM      2  N   UNL     1       1.040   4.486  20.719  0.00  0.00    +0.000 NA
ATOM      3  C   UNL     1       1.924   4.975  19.834  0.00  0.00    +0.000 A 
ATOM      4  N   UNL     1       2.115   6.360  19.768  0.00  0.00    +0.000 N 
ATOM      5  C   UNL     1       2.678   4.130  18.992  0.00  0.00    +0.000 A 
ATOM      6  C   UNL     1       3.668   4.570  18.073  0.00  0.00    +0.000 A 
ATOM      7  C   UNL     1       4.400   3.683  17.262  0.00  0.00    +0.000 A 
ATOM      8  C   UNL     1       4.125   2.320  17.417  0.00  0.00    +0.000 A 
ATOM      9  C   UNL     1       3.166   1.876  18.339  0.00  0.00    +0.000 A 
ATOM     10  C   UNL     1       2.439   2.759  19.128  0.00  0.00    +0.000 A 
ATOM     11  N   UNL     1       1.549   2.264  19.994  0.00  0.00    +0.000 NA
ATOM     12  H   UNL     1       1.873   6.745  18.858  0.00  0.00    +0.000 HD
ENDROOT
BRANCH   7  13
ATOM     13  C   UNL     1       5.397   4.178  16.284  0.00  0.00    +0.000 A 
ATOM     14  C   UNL     1       6.384   5.137  16.636  0.00  0.00    +0.000 A 
ATOM     15  C   UNL     1       7.328   5.605  15.709  0.00  0.00    +0.000 A 
ATOM     16  C   UNL     1       7.260   5.117  14.426  0.00  0.00    +0.000 A 
ATOM     17  C   UNL     1       6.314   4.194  14.061  0.00  0.00    +0.000 A 
ATOM     18  C   UNL     1       5.389   3.703  14.957  0.00  0.00    +0.000 A 
ATOM     19  O   UNL     1       6.405   3.841  12.750  0.00  0.00    +0.000 OA
ATOM     20  C   UNL     1       7.484   4.695  12.319  0.00  0.00    +0.000 C 
ATOM     21  O   UNL     1       8.071   5.464  13.390  0.00  0.00    +0.000 OA
ENDBRANCH   7  13
BRANCH   4  22
ATOM     22  C   UNL     1       1.662   7.194  20.881  0.00  0.00    +0.000 C 
BRANCH  22  23
ATOM     23  C   UNL     1       1.365   8.650  20.504  0.00  0.00    +0.000 C 
ATOM     24  C   UNL     1       0.006   9.195  20.895  0.00  0.00    +0.000 C 
ATOM     25  C   UNL     1      -0.059  10.435  20.033  0.00  0.00    +0.000 C 
ATOM     26  C   UNL     1       0.605   9.976  18.749  0.00  0.00    +0.000 C 
ATOM     27  O   UNL     1       1.464   8.870  19.080  0.00  0.00    +0.000 OA
ENDBRANCH  22  23
ENDBRANCH   4  22
TORSDOF 3
ENDMDL
MODEL 5
REMARK VINA RESULT:      -8.1      0.982      1.107
REMARK  Name = 
REMARK  3 active torsions:
REMARK  status: ('A' for Active; 'I' for Inactive)
REMARK    1  A    between atoms: N_4  and  C_5
REMARK    2  A    between atoms: C_5  and  C_6
REMARK    3  A    between atoms: C_13  and  C_14
REMARK                            x       y       z     vdW  Elec       q    Type
REMARK                         _______ _______ _______ _____ _____    ______ ____
ROOT
ATOM      1  C   UNL     1       4.088   2.218  19.485  0.00  0.00    +0.000 A 
ATOM      2  N   UNL     1       4.683   2.757  18.413  0.00  0.00    +0.000 NA
ATOM      3  C   UNL     1       4.400   4.044  18.152  0.00  0.00    +0.000 A 
ATOM      4  N   UNL     1       4.991   4.650  17.037  0.00  0.00    +0.000 N 
ATOM      5  C   UNL     1       3.508   4.787  18.954  0.00  0.00    +0.000 A 
ATOM      6  C   UNL     1       3.119   6.131  18.708  0.00  0.00    +0.000 A 
ATOM      7  C   UNL     1       2.217   6.824  19.537  0.00  0.00    +0.000 A 
ATOM      8  C   UNL     1       1.688   6.115  20.620  0.00  0.00    +0.000 A 
ATOM      9  C   UNL     1       2.049   4.780  20.855  0.00  0.00    +0.000 A 
ATOM     10  C   UNL     1       2.950   4.106  20.040  0.00  0.00    +0.000 A 
ATOM     11  N   UNL     1       3.238   2.831  20.317  0.00  0.00    +0.000 NA
ATOM     12  H   UNL     1       5.584   5.437  17.289  0.00  0.00    +0.000 HD
ENDROOT
BRANCH   7  13
ATOM     13  C   UNL     1       1.865   8.240  19.276  0.00  0.00    +0.000 A 
ATOM     14  C   UNL     1       2.271   8.910  18.091  0.00  0.00    +0.000 A 
ATOM     15  C   UNL     1       1.937  10.250  17.845  0.00  0.00    +0.000 A 
ATOM     16  C   UNL     1       1.208  10.915  18.803  0.00  0.00    +0.000 A 
ATOM     17  C   UNL     1       0.808  10.290  19.956  0.00  0.00    +0.000 A 
ATOM     18  C   UNL     1       1.105   8.969  20.213  0.00  0.00    +0.000 A 
ATOM     19  O   UNL     1       0.106  11.113  20.781  0.00  0.00    +0.000 OA
ATOM     20  C   UNL     1       0.162  12.347  20.036  0.00  0.00    +0.000 C 
ATOM     21  O   UNL     1       0.808  12.213  18.752  0.00  0.00    +0.000 OA
ENDBRANCH   7  13
BRANCH   4  22
ATOM     22  C   UNL     1       5.574   3.807  15.993  0.00  0.00    +0.000 C 
BRANCH  22  23
ATOM     23  C   UNL     1       5.995   4.562  14.728  0.00  0.00    +0.000 C 
ATOM     24  C   UNL     1       6.076   3.757  13.446  0.00  0.00    +0.000 C 
ATOM     25  C   UNL     1       6.879   4.695  12.575  0.00  0.00    +0.000 C 
ATOM     26  C   UNL     1       7.873   5.286  13.558  0.00  0.00    +0.000 C 
ATOM     27  O   UNL     1       7.295   5.174  14.871  0.00  0.00    +0.000 OA
ENDBRANCH  22  23
ENDBRANCH   4  22
TORSDOF 3
ENDMDL
MODEL 6
REMARK VINA RESULT:      -7.7      3.710      8.124
REMARK  Name = 
REMARK  3 active torsions:
REMARK  status: ('A' for Active; 'I' for Inactive)
REMARK    1  A    between atoms: N_4  and  C_5
REMARK    2  A    between atoms: C_5  and  C_6
REMARK    3  A    between atoms: C_13  and  C_14
REMARK                            x       y       z     vdW  Elec       q    Type
REMARK                         _______ _______ _______ _____ _____    ______ ____
ROOT
ATOM      1  C   UNL     1      -0.271  11.264  21.429  0.00  0.00    +0.000 A 
ATOM      2  N   UNL     1       0.174  11.840  20.305  0.00  0.00    +0.000 NA
ATOM      3  C   UNL     1       0.872  11.059  19.465  0.00  0.00    +0.000 A 
ATOM      4  N   UNL     1       1.366  11.618  18.280  0.00  0.00    +0.000 N 
ATOM      5  C   UNL     1       1.140   9.705  19.757  0.00  0.00    +0.000 A 
ATOM      6  C   UNL     1       1.916   8.835  18.946  0.00  0.00    +0.000 A 
ATOM      7  C   UNL     1       2.160   7.492  19.290  0.00  0.00    +0.000 A 
ATOM      8  C   UNL     1       1.618   7.046  20.499  0.00  0.00    +0.000 A 
ATOM      9  C   UNL     1       0.871   7.906  21.318  0.00  0.00    +0.000 A 
ATOM     10  C   UNL     1       0.624   9.226  20.966  0.00  0.00    +0.000 A 
ATOM     11  N   UNL     1      -0.086   9.992  21.800  0.00  0.00    +0.000 NA
ATOM     12  H   UNL     1       0.984  11.172  17.449  0.00  0.00    +0.000 HD
ENDROOT
BRANCH   7  13
ATOM     13  C   UNL     1       2.940   6.599  18.400  0.00  0.00    +0.000 A 
ATOM     14  C   UNL     1       2.723   5.195  18.366  0.00  0.00    +0.000 A 
ATOM     15  C   UNL     1       3.462   4.351  17.523  0.00  0.00    +0.000 A 
ATOM     16  C   UNL     1       4.428   4.924  16.730  0.00  0.00    +0.000 A 
ATOM     17  C   UNL     1       4.657   6.276  16.748  0.00  0.00    +0.000 A 
ATOM     18  C   UNL     1       3.932   7.129  17.551  0.00  0.00    +0.000 A 
ATOM     19  O   UNL     1       5.655   6.649  15.902  0.00  0.00    +0.000 OA
ATOM     20  C   UNL     1       6.066   5.364  15.392  0.00  0.00    +0.000 C 
ATOM     21  O   UNL     1       5.252   4.271  15.868  0.00  0.00    +0.000 OA
ENDBRANCH   7  13
BRANCH   4  22
ATOM     22  C   UNL     1       1.451  13.073  18.161  0.00  0.00    +0.000 C 
BRANCH  22  23
ATOM     23  C   UNL     1       2.825  13.660  18.501  0.00  0.00    +0.000 C 
ATOM     24  C   UNL     1       3.052  14.085  19.938  0.00  0.00    +0.000 C 
ATOM     25  C   UNL     1       4.286  14.943  19.787  0.00  0.00    +0.000 C 
ATOM     26  C   UNL     1       4.036  15.647  18.466  0.00  0.00    +0.000 C 
ATOM     27  O   UNL     1       3.124  14.830  17.710  0.00  0.00    +0.000 OA
ENDBRANCH  22  23
ENDBRANCH   4  22
TORSDOF 3
ENDMDL
MODEL 7
REMARK VINA RESULT:      -7.6      3.187      5.088
REMARK  Name = 
REMARK  3 active torsions:
REMARK  status: ('A' for Active; 'I' for Inactive)
REMARK    1  A    between atoms: N_4  and  C_5
REMARK    2  A    between atoms: C_5  and  C_6
REMARK    3  A    between atoms: C_13  and  C_14
REMARK                            x       y       z     vdW  Elec       q    Type
REMARK                         _______ _______ _______ _____ _____    ______ ____
ROOT
ATOM      1  C   UNL     1       3.619   6.622  17.769  0.00  0.00    +0.000 A 
ATOM      2  N   UNL     1       3.181   5.912  18.816  0.00  0.00    +0.000 NA
ATOM      3  C   UNL     1       2.317   6.525  19.641  0.00  0.00    +0.000 A 
ATOM      4  N   UNL     1       1.837   5.826  20.755  0.00  0.00    +0.000 N 
ATOM      5  C   UNL     1       1.904   7.857  19.427  0.00  0.00    +0.000 A 
ATOM      6  C   UNL     1       1.039   8.589  20.284  0.00  0.00    +0.000 A 
ATOM      7  C   UNL     1       0.664   9.921  20.028  0.00  0.00    +0.000 A 
ATOM      8  C   UNL     1       1.209  10.517  18.886  0.00  0.00    +0.000 A 
ATOM      9  C   UNL     1       2.084   9.809  18.048  0.00  0.00    +0.000 A 
ATOM     10  C   UNL     1       2.438   8.490  18.300  0.00  0.00    +0.000 A 
ATOM     11  N   UNL     1       3.286   7.882  17.465  0.00  0.00    +0.000 NA
ATOM     12  H   UNL     1       0.827   5.704  20.733  0.00  0.00    +0.000 HD
ENDROOT
BRANCH   7  13
ATOM     13  C   UNL     1      -0.274  10.642  20.920  0.00  0.00    +0.000 A 
ATOM     14  C   UNL     1      -0.360  10.357  22.310  0.00  0.00    +0.000 A 
ATOM     15  C   UNL     1      -1.248  11.040  23.153  0.00  0.00    +0.000 A 
ATOM     16  C   UNL     1      -2.059  11.997  22.589  0.00  0.00    +0.000 A 
ATOM     17  C   UNL     1      -1.996  12.287  21.251  0.00  0.00    +0.000 A 
ATOM     18  C   UNL     1      -1.119  11.645  20.404  0.00  0.00    +0.000 A 
ATOM     19  O   UNL     1      -2.880  13.254  20.883  0.00  0.00    +0.000 OA
ATOM     20  C   UNL     1      -3.547  13.497  22.139  0.00  0.00    +0.000 C 
ATOM     21  O   UNL     1      -2.990  12.745  23.238  0.00  0.00    +0.000 OA
ENDBRANCH   7  13
BRANCH   4  22
ATOM     22  C   UNL     1       2.549   4.631  21.206  0.00  0.00    +0.000 C 
BRANCH  22  23
ATOM     23  C   UNL     1       2.042   3.321  20.592  0.00  0.00    +0.000 C 
ATOM     24  C   UNL     1       2.942   2.650  19.573  0.00  0.00    +0.000 C 
ATOM     25  C   UNL     1       1.971   1.685  18.934  0.00  0.00    +0.000 C 
ATOM     26  C   UNL     1       0.686   2.490  18.893  0.00  0.00    +0.000 C 
ATOM     27  O   UNL     1       0.775   3.493  19.922  0.00  0.00    +0.000 OA
ENDBRANCH  22  23
ENDBRANCH   4  22
TORSDOF 3
ENDMDL
MODEL 8
REMARK VINA RESULT:      -7.5      4.399      8.476
REMARK  Name = 
REMARK  3 active torsions:
REMARK  status: ('A' for Active; 'I' for Inactive)
REMARK    1  A    between atoms: N_4  and  C_5
REMARK    2  A    between atoms: C_5  and  C_6
REMARK    3  A    between atoms: C_13  and  C_14
REMARK                            x       y       z     vdW  Elec       q    Type
REMARK                         _______ _______ _______ _____ _____    ______ ____
ROOT
ATOM      1  C   UNL     1      -1.293  12.707  22.561  0.00  0.00    +0.000 A 
ATOM      2  N   UNL     1      -1.003  13.120  21.321  0.00  0.00    +0.000 NA
ATOM      3  C   UNL     1      -0.360  12.246  20.530  0.00  0.00    +0.000 A 
ATOM      4  N   UNL     1      -0.027  12.635  19.226  0.00  0.00    +0.000 N 
ATOM      5  C   UNL     1       0.010  10.963  20.987  0.00  0.00    +0.000 A 
ATOM      6  C   UNL     1       0.738  10.008  20.229  0.00  0.00    +0.000 A 
ATOM      7  C   UNL     1       1.090   8.743  20.736  0.00  0.00    +0.000 A 
ATOM      8  C   UNL     1       0.707   8.468  22.053  0.00  0.00    +0.000 A 
ATOM      9  C   UNL     1       0.008   9.415  22.816  0.00  0.00    +0.000 A 
ATOM     10  C   UNL     1      -0.346  10.657  22.304  0.00  0.00    +0.000 A 
ATOM     11  N   UNL     1      -1.001  11.514  23.092  0.00  0.00    +0.000 NA
ATOM     12  H   UNL     1      -0.474  12.054  18.521  0.00  0.00    +0.000 HD
ENDROOT
BRANCH   7  13
ATOM     13  C   UNL     1       1.814   7.754  19.904  0.00  0.00    +0.000 A 
ATOM     14  C   UNL     1       2.318   8.080  18.616  0.00  0.00    +0.000 A 
ATOM     15  C   UNL     1       3.004   7.142  17.829  0.00  0.00    +0.000 A 
ATOM     16  C   UNL     1       3.163   5.874  18.337  0.00  0.00    +0.000 A 
ATOM     17  C   UNL     1       2.683   5.536  19.576  0.00  0.00    +0.000 A 
ATOM     18  C   UNL     1       2.024   6.443  20.377  0.00  0.00    +0.000 A 
ATOM     19  O   UNL     1       2.932   4.237  19.897  0.00  0.00    +0.000 OA
ATOM     20  C   UNL     1       3.576   3.783  18.689  0.00  0.00    +0.000 C 
ATOM     21  O   UNL     1       3.780   4.832  17.719  0.00  0.00    +0.000 OA
ENDBRANCH   7  13
BRANCH   4  22
ATOM     22  C   UNL     1      -0.034  14.057  18.885  0.00  0.00    +0.000 C 
BRANCH  22  23
ATOM     23  C   UNL     1       1.349  14.644  18.585  0.00  0.00    +0.000 C 
ATOM     24  C   UNL     1       2.459  13.659  18.276  0.00  0.00    +0.000 C 
ATOM     25  C   UNL     1       3.674  14.541  18.445  0.00  0.00    +0.000 C 
ATOM     26  C   UNL     1       3.285  15.412  19.624  0.00  0.00    +0.000 C 
ATOM     27  O   UNL     1       1.848  15.441  19.682  0.00  0.00    +0.000 OA
ENDBRANCH  22  23
ENDBRANCH   4  22
TORSDOF 3
ENDMDL
MODEL 9
REMARK VINA RESULT:      -7.4      4.550      8.406
REMARK  Name = 
REMARK  3 active torsions:
REMARK  status: ('A' for Active; 'I' for Inactive)
REMARK    1  A    between atoms: N_4  and  C_5
REMARK    2  A    between atoms: C_5  and  C_6
REMARK    3  A    between atoms: C_13  and  C_14
REMARK                            x       y       z     vdW  Elec       q    Type
REMARK                         _______ _______ _______ _____ _____    ______ ____
ROOT
ATOM      1  C   UNL     1      -1.322  12.084  22.153  0.00  0.00    +0.000 A 
ATOM      2  N   UNL     1      -1.709  11.943  20.879  0.00  0.00    +0.000 NA
ATOM      3  C   UNL     1      -1.165  10.923  20.194  0.00  0.00    +0.000 A 
ATOM      4  N   UNL     1      -1.531  10.739  18.855  0.00  0.00    +0.000 N 
ATOM      5  C   UNL     1      -0.219  10.055  20.781  0.00  0.00    +0.000 A 
ATOM      6  C   UNL     1       0.438   8.993  20.105  0.00  0.00    +0.000 A 
ATOM      7  C   UNL     1       1.382   8.160  20.737  0.00  0.00    +0.000 A 
ATOM      8  C   UNL     1       1.670   8.442  22.075  0.00  0.00    +0.000 A 
ATOM      9  C   UNL     1       1.043   9.505  22.742  0.00  0.00    +0.000 A 
ATOM     10  C   UNL     1       0.103  10.314  22.116  0.00  0.00    +0.000 A 
ATOM     11  N   UNL     1      -0.446  11.316  22.810  0.00  0.00    +0.000 NA
ATOM     12  H   UNL     1      -1.982   9.841  18.695  0.00  0.00    +0.000 HD
ENDROOT
BRANCH   7  13
ATOM     13  C   UNL     1       2.019   7.034  20.014  0.00  0.00    +0.000 A 
ATOM     14  C   UNL     1       2.587   7.194  18.722  0.00  0.00    +0.000 A 
ATOM     15  C   UNL     1       3.190   6.127  18.039  0.00  0.00    +0.000 A 
ATOM     16  C   UNL     1       3.203   4.898  18.656  0.00  0.00    +0.000 A 
ATOM     17  C   UNL     1       2.658   4.718  19.901  0.00  0.00    +0.000 A 
ATOM     18  C   UNL     1       2.078   5.754  20.601  0.00  0.00    +0.000 A 
ATOM     19  O   UNL     1       2.761   3.434  20.337  0.00  0.00    +0.000 OA
ATOM     20  C   UNL     1       3.385   2.814  19.194  0.00  0.00    +0.000 C 
ATOM     21  O   UNL     1       3.722   3.749  18.147  0.00  0.00    +0.000 OA
ENDBRANCH   7  13
BRANCH   4  22
ATOM     22  C   UNL     1      -2.172  11.839  18.135  0.00  0.00    +0.000 C 
BRANCH  22  23
ATOM     23  C   UNL     1      -2.596  11.498  16.703  0.00  0.00    +0.000 C 
ATOM     24  C   UNL     1      -4.082  11.338  16.449  0.00  0.00    +0.000 C 
ATOM     25  C   UNL     1      -4.065  10.635  15.111  0.00  0.00    +0.000 C 
ATOM     26  C   UNL     1      -2.875   9.704  15.245  0.00  0.00    +0.000 C 
ATOM     27  O   UNL     1      -2.001  10.266  16.241  0.00  0.00    +0.000 OA
ENDBRANCH  22  23
ENDBRANCH   4  22
TORSDOF 3
ENDMDL
