MODEL 1
REMARK VINA RESULT:      -8.6      0.000      0.000
REMARK  Name = 
REMARK  7 active torsions:
REMARK  status: ('A' for Active; 'I' for Inactive)
REMARK    1  A    between atoms: C_2  and  O_3
REMARK    2  A    between atoms: C_2  and  C_10
REMARK    3  A    between atoms: O_3  and  C_4
REMARK    4  A    between atoms: C_15  and  N_16
REMARK    5  A    between atoms: N_16  and  S_17
REMARK    6  A    between atoms: S_17  and  C_20
REMARK    7  A    between atoms: C_24  and  N_25
REMARK                            x       y       z     vdW  Elec       q    Type
REMARK                         _______ _______ _______ _____ _____    ______ ____
ROOT
ATOM      1  C   UNL     1       3.350   3.452  19.483  0.00  0.00    +0.000 A 
ATOM      2  C   UNL     1       2.763   2.285  20.018  0.00  0.00    +0.000 A 
ATOM      3  C   UNL     1       1.861   2.349  21.077  0.00  0.00    +0.000 A 
ATOM      4  C   UNL     1       1.548   3.580  21.638  0.00  0.00    +0.000 A 
ATOM      5  C   UNL     1       2.150   4.744  21.149  0.00  0.00    +0.000 A 
ATOM      6  C   UNL     1       3.037   4.696  20.059  0.00  0.00    +0.000 A 
ENDROOT
BRANCH   1   8
ATOM      7  O   UNL     1       3.981   2.276  17.522  0.00  0.00    +0.000 OA
ATOM      8  C   UNL     1       4.169   3.233  18.262  0.00  0.00    +0.000 C 
BRANCH   8   9
ATOM      9  O   UNL     1       5.103   4.190  18.045  0.00  0.00    +0.000 OA
BRANCH   9  10
ATOM     10  C   UNL     1       5.921   3.994  16.897  0.00  0.00    +0.000 C 
ATOM     11  C   UNL     1       5.368   4.631  15.640  0.00  0.00    +0.000 C 
ATOM     12  C   UNL     1       6.603   4.951  14.835  0.00  0.00    +0.000 C 
ATOM     13  O   UNL     1       7.710   5.012  15.737  0.00  0.00    +0.000 OA
ATOM     14  C   UNL     1       7.354   4.494  16.953  0.00  0.00    +0.000 C 
ATOM     15  O   UNL     1       8.111   4.395  17.903  0.00  0.00    +0.000 OA
ENDBRANCH   9  10
ENDBRANCH   8   9
ENDBRANCH   1   8
BRANCH   6  16
ATOM     16  N   UNL     1       3.596   5.949  19.610  0.00  0.00    +0.000 N 
ATOM     17  H   UNL     1       4.586   5.839  19.373  0.00  0.00    +0.000 HD
BRANCH  16  18
ATOM     18  S   UNL     1       2.854   6.635  18.235  0.00  0.00    +0.000 S 
ATOM     19  O   UNL     1       3.927   7.150  17.415  0.00  0.00    +0.000 OA
ATOM     20  O   UNL     1       1.850   5.733  17.719  0.00  0.00    +0.000 OA
BRANCH  18  21
ATOM     21  C   UNL     1       2.010   8.052  18.915  0.00  0.00    +0.000 A 
ATOM     22  C   UNL     1       1.622   9.095  18.064  0.00  0.00    +0.000 A 
ATOM     23  C   UNL     1       0.930  10.195  18.580  0.00  0.00    +0.000 A 
ATOM     24  C   UNL     1       0.615  10.249  19.941  0.00  0.00    +0.000 A 
ATOM     25  C   UNL     1       1.000   9.196  20.785  0.00  0.00    +0.000 A 
ATOM     26  C   UNL     1       1.704   8.094  20.282  0.00  0.00    +0.000 A 
BRANCH  25  27
ATOM     27  N   UNL     1       0.660   9.259  22.212  0.00  0.00    +0.000 N 
ATOM     28  O   UNL     1      -0.515   9.036  22.536  0.00  0.00    +0.000 OA
ATOM     29  O   UNL     1       1.566   9.547  23.007  0.00  0.00    +0.000 OA
ENDBRANCH  25  27
ENDBRANCH  18  21
ENDBRANCH  16  18
ENDBRANCH   6  16
TORSDOF 7
ENDMDL
MODEL 2
REMARK VINA RESULT:      -8.6      1.041      1.099
REMARK  Name = 
REMARK  7 active torsions:
REMARK  status: ('A' for Active; 'I' for Inactive)
REMARK    1  A    between atoms: C_2  and  O_3
REMARK    2  A    between atoms: C_2  and  C_10
REMARK    3  A    between atoms: O_3  and  C_4
REMARK    4  A    between atoms: C_15  and  N_16
REMARK    5  A    between atoms: N_16  and  S_17
REMARK    6  A    between atoms: S_17  and  C_20
REMARK    7  A    between atoms: C_24  and  N_25
REMARK                            x       y       z     vdW  Elec       q    Type
REMARK                         _______ _______ _______ _____ _____    ______ ____
ROOT
ATOM      1  C   UNL     1       3.593   3.958  19.459  0.00  0.00    +0.000 A 
ATOM      2  C   UNL     1       3.166   2.616  19.548  0.00  0.00    +0.000 A 
ATOM      3  C   UNL     1       1.901   2.289  20.032  0.00  0.00    +0.000 A 
ATOM      4  C   UNL     1       1.049   3.299  20.460  0.00  0.00    +0.000 A 
ATOM      5  C   UNL     1       1.469   4.632  20.418  0.00  0.00    +0.000 A 
ATOM      6  C   UNL     1       2.731   4.977  19.901  0.00  0.00    +0.000 A 
ENDROOT
BRANCH   1   8
ATOM      7  O   UNL     1       5.960   3.872  19.331  0.00  0.00    +0.000 OA
ATOM      8  C   UNL     1       4.902   4.150  18.782  0.00  0.00    +0.000 C 
BRANCH   8   9
ATOM      9  O   UNL     1       4.804   4.628  17.518  0.00  0.00    +0.000 OA
BRANCH   9  10
ATOM     10  C   UNL     1       5.946   4.415  16.695  0.00  0.00    +0.000 C 
ATOM     11  C   UNL     1       5.606   4.043  15.267  0.00  0.00    +0.000 C 
ATOM     12  C   UNL     1       6.776   4.575  14.477  0.00  0.00    +0.000 C 
ATOM     13  O   UNL     1       7.405   5.593  15.258  0.00  0.00    +0.000 OA
ATOM     14  C   UNL     1       6.935   5.556  16.543  0.00  0.00    +0.000 C 
ATOM     15  O   UNL     1       7.319   6.295  17.434  0.00  0.00    +0.000 OA
ENDBRANCH   9  10
ENDBRANCH   8   9
ENDBRANCH   1   8
BRANCH   6  16
ATOM     16  N   UNL     1       3.073   6.380  19.879  0.00  0.00    +0.000 N 
ATOM     17  H   UNL     1       4.083   6.508  19.981  0.00  0.00    +0.000 HD
BRANCH  16  18
ATOM     18  S   UNL     1       2.630   7.223  18.463  0.00  0.00    +0.000 S 
ATOM     19  O   UNL     1       3.853   7.773  17.925  0.00  0.00    +0.000 OA
ATOM     20  O   UNL     1       1.732   6.413  17.671  0.00  0.00    +0.000 OA
BRANCH  18  21
ATOM     21  C   UNL     1       1.694   8.599  19.106  0.00  0.00    +0.000 A 
ATOM     22  C   UNL     1       1.450   9.708  18.286  0.00  0.00    +0.000 A 
ATOM     23  C   UNL     1       0.689  10.777  18.767  0.00  0.00    +0.000 A 
ATOM     24  C   UNL     1       0.163  10.735  20.061  0.00  0.00    +0.000 A 
ATOM     25  C   UNL     1       0.405   9.618  20.874  0.00  0.00    +0.000 A 
ATOM     26  C   UNL     1       1.176   8.544  20.406  0.00  0.00    +0.000 A 
BRANCH  25  27
ATOM     27  N   UNL     1      -0.156   9.580  22.231  0.00  0.00    +0.000 N 
ATOM     28  O   UNL     1      -0.789   8.569  22.565  0.00  0.00    +0.000 OA
ATOM     29  O   UNL     1       0.022  10.570  22.954  0.00  0.00    +0.000 OA
ENDBRANCH  25  27
ENDBRANCH  18  21
ENDBRANCH  16  18
ENDBRANCH   6  16
TORSDOF 7
ENDMDL
MODEL 3
REMARK VINA RESULT:      -8.3      1.620      1.893
REMARK  Name = 
REMARK  7 active torsions:
REMARK  status: ('A' for Active; 'I' for Inactive)
REMARK    1  A    between atoms: C_2  and  O_3
REMARK    2  A    between atoms: C_2  and  C_10
REMARK    3  A    between atoms: O_3  and  C_4
REMARK    4  A    between atoms: C_15  and  N_16
REMARK    5  A    between atoms: N_16  and  S_17
REMARK    6  A    between atoms: S_17  and  C_20
REMARK    7  A    between atoms: C_24  and  N_25
REMARK                            x       y       z     vdW  Elec       q    Type
REMARK                         _______ _______ _______ _____ _____    ______ ____
ROOT
ATOM      1  C   UNL     1       3.580   3.530  18.024  0.00  0.00    +0.000 A 
ATOM      2  C   UNL     1       3.533   2.175  18.417  0.00  0.00    +0.000 A 
ATOM      3  C   UNL     1       2.331   1.564  18.767  0.00  0.00    +0.000 A 
ATOM      4  C   UNL     1       1.157   2.305  18.756  0.00  0.00    +0.000 A 
ATOM      5  C   UNL     1       1.188   3.659  18.410  0.00  0.00    +0.000 A 
ATOM      6  C   UNL     1       2.390   4.279  18.022  0.00  0.00    +0.000 A 
ENDROOT
BRANCH   1   8
ATOM      7  O   UNL     1       5.913   3.904  18.223  0.00  0.00    +0.000 OA
ATOM      8  C   UNL     1       4.905   3.990  17.534  0.00  0.00    +0.000 C 
BRANCH   8   9
ATOM      9  O   UNL     1       4.887   4.477  16.270  0.00  0.00    +0.000 OA
BRANCH   9  10
ATOM     10  C   UNL     1       6.069   4.246  15.511  0.00  0.00    +0.000 C 
ATOM     11  C   UNL     1       5.803   3.873  14.068  0.00  0.00    +0.000 C 
ATOM     12  C   UNL     1       7.020   4.387  13.341  0.00  0.00    +0.000 C 
ATOM     13  O   UNL     1       7.619   5.400  14.152  0.00  0.00    +0.000 OA
ATOM     14  C   UNL     1       7.080   5.375  15.410  0.00  0.00    +0.000 C 
ATOM     15  O   UNL     1       7.424   6.112  16.317  0.00  0.00    +0.000 OA
ENDBRANCH   9  10
ENDBRANCH   8   9
ENDBRANCH   1   8
BRANCH   6  16
ATOM     16  N   UNL     1       2.324   5.676  17.663  0.00  0.00    +0.000 N 
ATOM     17  H   UNL     1       1.360   6.015  17.706  0.00  0.00    +0.000 HD
BRANCH  16  18
ATOM     18  S   UNL     1       3.241   6.731  18.641  0.00  0.00    +0.000 S 
ATOM     19  O   UNL     1       3.475   6.027  19.881  0.00  0.00    +0.000 OA
ATOM     20  O   UNL     1       4.314   7.310  17.865  0.00  0.00    +0.000 OA
BRANCH  18  21
ATOM     21  C   UNL     1       2.076   8.032  19.008  0.00  0.00    +0.000 A 
ATOM     22  C   UNL     1       1.661   8.893  17.983  0.00  0.00    +0.000 A 
ATOM     23  C   UNL     1       0.723   9.894  18.251  0.00  0.00    +0.000 A 
ATOM     24  C   UNL     1       0.191  10.029  19.536  0.00  0.00    +0.000 A 
ATOM     25  C   UNL     1       0.604   9.158  20.555  0.00  0.00    +0.000 A 
ATOM     26  C   UNL     1       1.553   8.157  20.301  0.00  0.00    +0.000 A 
BRANCH  25  27
ATOM     27  N   UNL     1       0.036   9.303  21.901  0.00  0.00    +0.000 N 
ATOM     28  O   UNL     1       0.373  10.293  22.565  0.00  0.00    +0.000 OA
ATOM     29  O   UNL     1      -0.735   8.418  22.298  0.00  0.00    +0.000 OA
ENDBRANCH  25  27
ENDBRANCH  18  21
ENDBRANCH  16  18
ENDBRANCH   6  16
TORSDOF 7
ENDMDL
MODEL 4
REMARK VINA RESULT:      -8.2      0.881      1.199
REMARK  Name = 
REMARK  7 active torsions:
REMARK  status: ('A' for Active; 'I' for Inactive)
REMARK    1  A    between atoms: C_2  and  O_3
REMARK    2  A    between atoms: C_2  and  C_10
REMARK    3  A    between atoms: O_3  and  C_4
REMARK    4  A    between atoms: C_15  and  N_16
REMARK    5  A    between atoms: N_16  and  S_17
REMARK    6  A    between atoms: S_17  and  C_20
REMARK    7  A    between atoms: C_24  and  N_25
REMARK                            x       y       z     vdW  Elec       q    Type
REMARK                         _______ _______ _______ _____ _____    ______ ____
ROOT
ATOM      1  C   UNL     1       3.435   3.690  19.266  0.00  0.00    +0.000 A 
ATOM      2  C   UNL     1       2.964   2.427  19.682  0.00  0.00    +0.000 A 
ATOM      3  C   UNL     1       2.058   2.302  20.733  0.00  0.00    +0.000 A 
ATOM      4  C   UNL     1       1.627   3.439  21.404  0.00  0.00    +0.000 A 
ATOM      5  C   UNL     1       2.114   4.696  21.034  0.00  0.00    +0.000 A 
ATOM      6  C   UNL     1       3.003   4.838  19.953  0.00  0.00    +0.000 A 
ENDROOT
BRANCH   1   8
ATOM      7  O   UNL     1       3.815   3.343  16.950  0.00  0.00    +0.000 OA
ATOM      8  C   UNL     1       4.273   3.667  18.038  0.00  0.00    +0.000 C 
BRANCH   8   9
ATOM      9  O   UNL     1       5.555   4.057  18.239  0.00  0.00    +0.000 OA
BRANCH   9  10
ATOM     10  C   UNL     1       5.950   5.234  17.543  0.00  0.00    +0.000 C 
ATOM     11  C   UNL     1       6.764   6.194  18.385  0.00  0.00    +0.000 C 
ATOM     12  C   UNL     1       7.638   6.895  17.374  0.00  0.00    +0.000 C 
ATOM     13  O   UNL     1       7.720   6.062  16.215  0.00  0.00    +0.000 OA
ATOM     14  C   UNL     1       6.779   5.070  16.282  0.00  0.00    +0.000 C 
ATOM     15  O   UNL     1       6.606   4.232  15.414  0.00  0.00    +0.000 OA
ENDBRANCH   9  10
ENDBRANCH   8   9
ENDBRANCH   1   8
BRANCH   6  16
ATOM     16  N   UNL     1       3.438   6.176  19.630  0.00  0.00    +0.000 N 
ATOM     17  H   UNL     1       4.439   6.189  19.417  0.00  0.00    +0.000 HD
BRANCH  16  18
ATOM     18  S   UNL     1       2.662   6.899  18.294  0.00  0.00    +0.000 S 
ATOM     19  O   UNL     1       3.710   7.484  17.489  0.00  0.00    +0.000 OA
ATOM     20  O   UNL     1       1.681   5.990  17.745  0.00  0.00    +0.000 OA
BRANCH  18  21
ATOM     21  C   UNL     1       1.781   8.257  19.044  0.00  0.00    +0.000 A 
ATOM     22  C   UNL     1       1.268   9.277  18.232  0.00  0.00    +0.000 A 
ATOM     23  C   UNL     1       0.547  10.329  18.805  0.00  0.00    +0.000 A 
ATOM     24  C   UNL     1       0.328  10.357  20.185  0.00  0.00    +0.000 A 
ATOM     25  C   UNL     1       0.838   9.328  20.991  0.00  0.00    +0.000 A 
ATOM     26  C   UNL     1       1.572   8.274  20.429  0.00  0.00    +0.000 A 
BRANCH  25  27
ATOM     27  N   UNL     1       0.598   9.363  22.439  0.00  0.00    +0.000 N 
ATOM     28  O   UNL     1      -0.576   9.306  22.831  0.00  0.00    +0.000 OA
ATOM     29  O   UNL     1       1.584   9.466  23.183  0.00  0.00    +0.000 OA
ENDBRANCH  25  27
ENDBRANCH  18  21
ENDBRANCH  16  18
ENDBRANCH   6  16
TORSDOF 7
ENDMDL
MODEL 5
REMARK VINA RESULT:      -8.1      1.156      1.547
REMARK  Name = 
REMARK  7 active torsions:
REMARK  status: ('A' for Active; 'I' for Inactive)
REMARK    1  A    between atoms: C_2  and  O_3
REMARK    2  A    between atoms: C_2  and  C_10
REMARK    3  A    between atoms: O_3  and  C_4
REMARK    4  A    between atoms: C_15  and  N_16
REMARK    5  A    between atoms: N_16  and  S_17
REMARK    6  A    between atoms: S_17  and  C_20
REMARK    7  A    between atoms: C_24  and  N_25
REMARK                            x       y       z     vdW  Elec       q    Type
REMARK                         _______ _______ _______ _____ _____    ______ ____
ROOT
ATOM      1  C   UNL     1       2.575   3.362  18.606  0.00  0.00    +0.000 A 
ATOM      2  C   UNL     1       2.630   2.254  19.479  0.00  0.00    +0.000 A 
ATOM      3  C   UNL     1       1.964   2.263  20.702  0.00  0.00    +0.000 A 
ATOM      4  C   UNL     1       1.251   3.391  21.087  0.00  0.00    +0.000 A 
ATOM      5  C   UNL     1       1.219   4.514  20.254  0.00  0.00    +0.000 A 
ATOM      6  C   UNL     1       1.860   4.505  19.003  0.00  0.00    +0.000 A 
ENDROOT
BRANCH   1   8
ATOM      7  O   UNL     1       2.554   3.145  16.244  0.00  0.00    +0.000 OA
ATOM      8  C   UNL     1       3.207   3.139  17.280  0.00  0.00    +0.000 C 
BRANCH   8   9
ATOM      9  O   UNL     1       4.549   2.960  17.331  0.00  0.00    +0.000 OA
BRANCH   9  10
ATOM     10  C   UNL     1       5.330   4.123  17.080  0.00  0.00    +0.000 C 
ATOM     11  C   UNL     1       6.198   4.538  18.249  0.00  0.00    +0.000 C 
ATOM     12  C   UNL     1       7.373   5.216  17.591  0.00  0.00    +0.000 C 
ATOM     13  O   UNL     1       7.446   4.754  16.241  0.00  0.00    +0.000 OA
ATOM     14  C   UNL     1       6.296   4.091  15.909  0.00  0.00    +0.000 C 
ATOM     15  O   UNL     1       6.074   3.614  14.809  0.00  0.00    +0.000 OA
ENDBRANCH   9  10
ENDBRANCH   8   9
ENDBRANCH   1   8
BRANCH   6  16
ATOM     16  N   UNL     1       1.757   5.702  18.202  0.00  0.00    +0.000 N 
ATOM     17  H   UNL     1       0.850   6.156  18.343  0.00  0.00    +0.000 HD
BRANCH  16  18
ATOM     18  S   UNL     1       2.935   6.897  18.509  0.00  0.00    +0.000 S 
ATOM     19  O   UNL     1       3.736   6.398  19.603  0.00  0.00    +0.000 OA
ATOM     20  O   UNL     1       3.518   7.341  17.263  0.00  0.00    +0.000 OA
BRANCH  18  21
ATOM     21  C   UNL     1       1.964   8.243  19.162  0.00  0.00    +0.000 A 
ATOM     22  C   UNL     1       1.647   9.328  18.334  0.00  0.00    +0.000 A 
ATOM     23  C   UNL     1       0.858  10.372  18.825  0.00  0.00    +0.000 A 
ATOM     24  C   UNL     1       0.376  10.329  20.136  0.00  0.00    +0.000 A 
ATOM     25  C   UNL     1       0.690   9.236  20.956  0.00  0.00    +0.000 A 
ATOM     26  C   UNL     1       1.490   8.188  20.479  0.00  0.00    +0.000 A 
BRANCH  25  27
ATOM     27  N   UNL     1       0.175   9.196  22.331  0.00  0.00    +0.000 N 
ATOM     28  O   UNL     1      -0.840   8.519  22.546  0.00  0.00    +0.000 OA
ATOM     29  O   UNL     1       0.775   9.857  23.190  0.00  0.00    +0.000 OA
ENDBRANCH  25  27
ENDBRANCH  18  21
ENDBRANCH  16  18
ENDBRANCH   6  16
TORSDOF 7
ENDMDL
MODEL 6
REMARK VINA RESULT:      -8.1      1.999      2.292
REMARK  Name = 
REMARK  7 active torsions:
REMARK  status: ('A' for Active; 'I' for Inactive)
REMARK    1  A    between atoms: C_2  and  O_3
REMARK    2  A    between atoms: C_2  and  C_10
REMARK    3  A    between atoms: O_3  and  C_4
REMARK    4  A    between atoms: C_15  and  N_16
REMARK    5  A    between atoms: N_16  and  S_17
REMARK    6  A    between atoms: S_17  and  C_20
REMARK    7  A    between atoms: C_24  and  N_25
REMARK                            x       y       z     vdW  Elec       q    Type
REMARK                         _______ _______ _______ _____ _____    ______ ____
ROOT
ATOM      1  C   UNL     1       3.584   3.916  19.195  0.00  0.00    +0.000 A 
ATOM      2  C   UNL     1       3.165   2.570  19.140  0.00  0.00    +0.000 A 
ATOM      3  C   UNL     1       1.887   2.192  19.545  0.00  0.00    +0.000 A 
ATOM      4  C   UNL     1       1.012   3.152  20.037  0.00  0.00    +0.000 A 
ATOM      5  C   UNL     1       1.422   4.484  20.137  0.00  0.00    +0.000 A 
ATOM      6  C   UNL     1       2.698   4.884  19.701  0.00  0.00    +0.000 A 
ENDROOT
BRANCH   1   8
ATOM      7  O   UNL     1       5.955   3.873  19.152  0.00  0.00    +0.000 OA
ATOM      8  C   UNL     1       4.914   4.179  18.586  0.00  0.00    +0.000 C 
BRANCH   8   9
ATOM      9  O   UNL     1       4.855   4.754  17.360  0.00  0.00    +0.000 OA
BRANCH   9  10
ATOM     10  C   UNL     1       5.913   4.407  16.473  0.00  0.00    +0.000 C 
ATOM     11  C   UNL     1       5.453   4.122  15.059  0.00  0.00    +0.000 C 
ATOM     12  C   UNL     1       6.643   4.508  14.217  0.00  0.00    +0.000 C 
ATOM     13  O   UNL     1       7.446   5.410  14.981  0.00  0.00    +0.000 OA
ATOM     14  C   UNL     1       7.042   5.406  16.289  0.00  0.00    +0.000 C 
ATOM     15  O   UNL     1       7.569   6.062  17.171  0.00  0.00    +0.000 OA
ENDBRANCH   9  10
ENDBRANCH   8   9
ENDBRANCH   1   8
BRANCH   6  16
ATOM     16  N   UNL     1       3.028   6.284  19.825  0.00  0.00    +0.000 N 
ATOM     17  H   UNL     1       4.040   6.410  19.916  0.00  0.00    +0.000 HD
BRANCH  16  18
ATOM     18  S   UNL     1       2.543   7.273  18.522  0.00  0.00    +0.000 S 
ATOM     19  O   UNL     1       3.753   7.851  17.985  0.00  0.00    +0.000 OA
ATOM     20  O   UNL     1       1.591   6.564  17.697  0.00  0.00    +0.000 OA
BRANCH  18  21
ATOM     21  C   UNL     1       1.669   8.594  19.342  0.00  0.00    +0.000 A 
ATOM     22  C   UNL     1       1.201   8.404  20.649  0.00  0.00    +0.000 A 
ATOM     23  C   UNL     1       0.545   9.443  21.314  0.00  0.00    +0.000 A 
ATOM     24  C   UNL     1       0.365  10.676  20.680  0.00  0.00    +0.000 A 
ATOM     25  C   UNL     1       0.842  10.862  19.374  0.00  0.00    +0.000 A 
ATOM     26  C   UNL     1       1.492   9.823  18.693  0.00  0.00    +0.000 A 
BRANCH  25  27
ATOM     27  N   UNL     1       0.653  12.162  18.718  0.00  0.00    +0.000 N 
ATOM     28  O   UNL     1       1.651  12.713  18.232  0.00  0.00    +0.000 OA
ATOM     29  O   UNL     1      -0.490  12.639  18.705  0.00  0.00    +0.000 OA
ENDBRANCH  25  27
ENDBRANCH  18  21
ENDBRANCH  16  18
ENDBRANCH   6  16
TORSDOF 7
ENDMDL
MODEL 7
REMARK VINA RESULT:      -8.0      3.394      7.681
REMARK  Name = 
REMARK  7 active torsions:
REMARK  status: ('A' for Active; 'I' for Inactive)
REMARK    1  A    between atoms: C_2  and  O_3
REMARK    2  A    between atoms: C_2  and  C_10
REMARK    3  A    between atoms: O_3  and  C_4
REMARK    4  A    between atoms: C_15  and  N_16
REMARK    5  A    between atoms: N_16  and  S_17
REMARK    6  A    between atoms: S_17  and  C_20
REMARK    7  A    between atoms: C_24  and  N_25
REMARK                            x       y       z     vdW  Elec       q    Type
REMARK                         _______ _______ _______ _____ _____    ______ ____
ROOT
ATOM      1  C   UNL     1       2.951   5.318  17.728  0.00  0.00    +0.000 A 
ATOM      2  C   UNL     1       2.179   6.368  18.270  0.00  0.00    +0.000 A 
ATOM      3  C   UNL     1       2.586   7.696  18.161  0.00  0.00    +0.000 A 
ATOM      4  C   UNL     1       3.787   7.996  17.530  0.00  0.00    +0.000 A 
ATOM      5  C   UNL     1       4.586   6.966  17.024  0.00  0.00    +0.000 A 
ATOM      6  C   UNL     1       4.170   5.625  17.098  0.00  0.00    +0.000 A 
ENDROOT
BRANCH   1   8
ATOM      7  O   UNL     1       1.266   3.735  17.198  0.00  0.00    +0.000 OA
ATOM      8  C   UNL     1       2.309   3.979  17.791  0.00  0.00    +0.000 C 
BRANCH   8   9
ATOM      9  O   UNL     1       2.993   3.074  18.532  0.00  0.00    +0.000 OA
BRANCH   9  10
ATOM     10  C   UNL     1       2.978   3.300  19.937  0.00  0.00    +0.000 C 
ATOM     11  C   UNL     1       1.591   3.270  20.544  0.00  0.00    +0.000 C 
ATOM     12  C   UNL     1       1.834   2.797  21.955  0.00  0.00    +0.000 C 
ATOM     13  O   UNL     1       3.091   2.115  21.977  0.00  0.00    +0.000 OA
ATOM     14  C   UNL     1       3.776   2.355  20.817  0.00  0.00    +0.000 C 
ATOM     15  O   UNL     1       4.889   1.920  20.577  0.00  0.00    +0.000 OA
ENDBRANCH   9  10
ENDBRANCH   8   9
ENDBRANCH   1   8
BRANCH   6  16
ATOM     16  N   UNL     1       5.050   4.630  16.531  0.00  0.00    +0.000 N 
ATOM     17  H   UNL     1       4.681   4.287  15.640  0.00  0.00    +0.000 HD
BRANCH  16  18
ATOM     18  S   UNL     1       6.643   5.151  16.215  0.00  0.00    +0.000 S 
ATOM     19  O   UNL     1       6.636   6.586  16.382  0.00  0.00    +0.000 OA
ATOM     20  O   UNL     1       7.584   4.296  16.902  0.00  0.00    +0.000 OA
BRANCH  18  21
ATOM     21  C   UNL     1       6.811   4.845  14.465  0.00  0.00    +0.000 A 
ATOM     22  C   UNL     1       7.826   5.493  13.748  0.00  0.00    +0.000 A 
ATOM     23  C   UNL     1       7.990   5.235  12.384  0.00  0.00    +0.000 A 
ATOM     24  C   UNL     1       7.149   4.325  11.738  0.00  0.00    +0.000 A 
ATOM     25  C   UNL     1       6.141   3.674  12.464  0.00  0.00    +0.000 A 
ATOM     26  C   UNL     1       5.960   3.932  13.830  0.00  0.00    +0.000 A 
BRANCH  25  27
ATOM     27  N   UNL     1       5.265   2.715  11.778  0.00  0.00    +0.000 N 
ATOM     28  O   UNL     1       4.101   3.064  11.541  0.00  0.00    +0.000 OA
ATOM     29  O   UNL     1       5.739   1.606  11.493  0.00  0.00    +0.000 OA
ENDBRANCH  25  27
ENDBRANCH  18  21
ENDBRANCH  16  18
ENDBRANCH   6  16
TORSDOF 7
ENDMDL
MODEL 8
REMARK VINA RESULT:      -8.0      1.770      2.117
REMARK  Name = 
REMARK  7 active torsions:
REMARK  status: ('A' for Active; 'I' for Inactive)
REMARK    1  A    between atoms: C_2  and  O_3
REMARK    2  A    between atoms: C_2  and  C_10
REMARK    3  A    between atoms: O_3  and  C_4
REMARK    4  A    between atoms: C_15  and  N_16
REMARK    5  A    between atoms: N_16  and  S_17
REMARK    6  A    between atoms: S_17  and  C_20
REMARK    7  A    between atoms: C_24  and  N_25
REMARK                            x       y       z     vdW  Elec       q    Type
REMARK                         _______ _______ _______ _____ _____    ______ ____
ROOT
ATOM      1  C   UNL     1       3.070   3.416  19.047  0.00  0.00    +0.000 A 
ATOM      2  C   UNL     1       3.136   2.418  20.042  0.00  0.00    +0.000 A 
ATOM      3  C   UNL     1       2.280   2.434  21.141  0.00  0.00    +0.000 A 
ATOM      4  C   UNL     1       1.359   3.465  21.278  0.00  0.00    +0.000 A 
ATOM      5  C   UNL     1       1.307   4.485  20.324  0.00  0.00    +0.000 A 
ATOM      6  C   UNL     1       2.142   4.463  19.193  0.00  0.00    +0.000 A 
ENDROOT
BRANCH   1   8
ATOM      7  O   UNL     1       3.963   2.094  17.292  0.00  0.00    +0.000 OA
ATOM      8  C   UNL     1       3.939   3.175  17.866  0.00  0.00    +0.000 C 
BRANCH   8   9
ATOM      9  O   UNL     1       4.664   4.255  17.486  0.00  0.00    +0.000 OA
BRANCH   9  10
ATOM     10  C   UNL     1       5.705   3.991  16.551  0.00  0.00    +0.000 C 
ATOM     11  C   UNL     1       5.452   4.576  15.177  0.00  0.00    +0.000 C 
ATOM     12  C   UNL     1       6.838   4.837  14.645  0.00  0.00    +0.000 C 
ATOM     13  O   UNL     1       7.727   4.924  15.761  0.00  0.00    +0.000 OA
ATOM     14  C   UNL     1       7.105   4.470  16.893  0.00  0.00    +0.000 C 
ATOM     15  O   UNL     1       7.637   4.405  17.987  0.00  0.00    +0.000 OA
ENDBRANCH   9  10
ENDBRANCH   8   9
ENDBRANCH   1   8
BRANCH   6  16
ATOM     16  N   UNL     1       2.005   5.548  18.251  0.00  0.00    +0.000 N 
ATOM     17  H   UNL     1       1.040   5.890  18.231  0.00  0.00    +0.000 HD
BRANCH  16  18
ATOM     18  S   UNL     1       2.983   6.913  18.553  0.00  0.00    +0.000 S 
ATOM     19  O   UNL     1       3.947   6.503  19.549  0.00  0.00    +0.000 OA
ATOM     20  O   UNL     1       3.375   7.521  17.301  0.00  0.00    +0.000 OA
BRANCH  18  21
ATOM     21  C   UNL     1       1.854   8.029  19.367  0.00  0.00    +0.000 A 
ATOM     22  C   UNL     1       1.645   7.910  20.747  0.00  0.00    +0.000 A 
ATOM     23  C   UNL     1       0.789   8.800  21.401  0.00  0.00    +0.000 A 
ATOM     24  C   UNL     1       0.151   9.814  20.683  0.00  0.00    +0.000 A 
ATOM     25  C   UNL     1       0.372   9.932  19.302  0.00  0.00    +0.000 A 
ATOM     26  C   UNL     1       1.219   9.039  18.633  0.00  0.00    +0.000 A 
BRANCH  25  27
ATOM     27  N   UNL     1      -0.298  11.005  18.555  0.00  0.00    +0.000 N 
ATOM     28  O   UNL     1       0.032  12.173  18.803  0.00  0.00    +0.000 OA
ATOM     29  O   UNL     1      -1.167  10.678  17.735  0.00  0.00    +0.000 OA
ENDBRANCH  25  27
ENDBRANCH  18  21
ENDBRANCH  16  18
ENDBRANCH   6  16
TORSDOF 7
ENDMDL
MODEL 9
REMARK VINA RESULT:      -7.8      1.818      2.129
REMARK  Name = 
REMARK  7 active torsions:
REMARK  status: ('A' for Active; 'I' for Inactive)
REMARK    1  A    between atoms: C_2  and  O_3
REMARK    2  A    between atoms: C_2  and  C_10
REMARK    3  A    between atoms: O_3  and  C_4
REMARK    4  A    between atoms: C_15  and  N_16
REMARK    5  A    between atoms: N_16  and  S_17
REMARK    6  A    between atoms: S_17  and  C_20
REMARK    7  A    between atoms: C_24  and  N_25
REMARK                            x       y       z     vdW  Elec       q    Type
REMARK                         _______ _______ _______ _____ _____    ______ ____
ROOT
ATOM      1  C   UNL     1       3.529   3.484  18.274  0.00  0.00    +0.000 A 
ATOM      2  C   UNL     1       3.525   2.078  18.392  0.00  0.00    +0.000 A 
ATOM      3  C   UNL     1       2.335   1.366  18.524  0.00  0.00    +0.000 A 
ATOM      4  C   UNL     1       1.127   2.051  18.565  0.00  0.00    +0.000 A 
ATOM      5  C   UNL     1       1.113   3.447  18.491  0.00  0.00    +0.000 A 
ATOM      6  C   UNL     1       2.305   4.175  18.325  0.00  0.00    +0.000 A 
ENDROOT
BRANCH   1   8
ATOM      7  O   UNL     1       5.809   3.936  18.747  0.00  0.00    +0.000 OA
ATOM      8  C   UNL     1       4.860   4.079  17.987  0.00  0.00    +0.000 C 
BRANCH   8   9
ATOM      9  O   UNL     1       4.919   4.758  16.815  0.00  0.00    +0.000 OA
BRANCH   9  10
ATOM     10  C   UNL     1       6.014   4.420  15.970  0.00  0.00    +0.000 C 
ATOM     11  C   UNL     1       5.598   3.983  14.581  0.00  0.00    +0.000 C 
ATOM     12  C   UNL     1       6.768   4.387  13.720  0.00  0.00    +0.000 C 
ATOM     13  O   UNL     1       7.489   5.409  14.412  0.00  0.00    +0.000 OA
ATOM     14  C   UNL     1       7.067   5.483  15.712  0.00  0.00    +0.000 C 
ATOM     15  O   UNL     1       7.529   6.250  16.539  0.00  0.00    +0.000 OA
ENDBRANCH   9  10
ENDBRANCH   8   9
ENDBRANCH   1   8
BRANCH   6  16
ATOM     16  N   UNL     1       2.193   5.611  18.238  0.00  0.00    +0.000 N 
ATOM     17  H   UNL     1       1.237   5.886  17.998  0.00  0.00    +0.000 HD
BRANCH  16  18
ATOM     18  S   UNL     1       2.587   6.467  19.660  0.00  0.00    +0.000 S 
ATOM     19  O   UNL     1       1.750   5.921  20.703  0.00  0.00    +0.000 OA
ATOM     20  O   UNL     1       4.024   6.563  19.792  0.00  0.00    +0.000 OA
BRANCH  18  21
ATOM     21  C   UNL     1       1.965   8.103  19.314  0.00  0.00    +0.000 A 
ATOM     22  C   UNL     1       2.163   8.660  18.044  0.00  0.00    +0.000 A 
ATOM     23  C   UNL     1       1.650   9.927  17.750  0.00  0.00    +0.000 A 
ATOM     24  C   UNL     1       0.932  10.633  18.719  0.00  0.00    +0.000 A 
ATOM     25  C   UNL     1       0.732  10.066  19.986  0.00  0.00    +0.000 A 
ATOM     26  C   UNL     1       1.250   8.801  20.296  0.00  0.00    +0.000 A 
BRANCH  25  27
ATOM     27  N   UNL     1      -0.028  10.813  20.996  0.00  0.00    +0.000 N 
ATOM     28  O   UNL     1       0.493  10.974  22.108  0.00  0.00    +0.000 OA
ATOM     29  O   UNL     1      -1.155  11.223  20.682  0.00  0.00    +0.000 OA
ENDBRANCH  25  27
ENDBRANCH  18  21
ENDBRANCH  16  18
ENDBRANCH   6  16
TORSDOF 7
ENDMDL
