MODEL 1
REMARK VINA RESULT:      -8.7      0.000      0.000
REMARK  Name = 
REMARK  8 active torsions:
REMARK  status: ('A' for Active; 'I' for Inactive)
REMARK    1  A    between atoms: C_1  and  C_2
REMARK    2  A    between atoms: C_2  and  C_4
REMARK    3  A    between atoms: C_8  and  N_9
REMARK    4  A    between atoms: N_12  and  C_13
REMARK    5  A    between atoms: C_18  and  C_19
REMARK    6  A    between atoms: C_19  and  N_20
REMARK    7  A    between atoms: C_23  and  C_24
REMARK    8  A    between atoms: C_24  and  C_25
REMARK                            x       y       z     vdW  Elec       q    Type
REMARK                         _______ _______ _______ _____ _____    ______ ____
ROOT
ATOM      1  C   UNL     1       2.129   5.141  19.811  0.00  0.00    +0.000 C 
ATOM      2  C   UNL     1       1.247   4.386  18.799  0.00  0.00    +0.000 C 
ATOM      3  C   UNL     1       0.932   2.935  19.132  0.00  0.00    +0.000 C 
ATOM      4  C   UNL     1       2.087   2.172  19.763  0.00  0.00    +0.000 C 
ATOM      5  C   UNL     1       2.738   2.960  20.896  0.00  0.00    +0.000 C 
ATOM      6  C   UNL     1       3.280   4.334  20.435  0.00  0.00    +0.000 C 
ENDROOT
BRANCH   1  10
ATOM      7  N   UNL     1       0.281   7.787  21.532  0.00  0.00    +0.000 N 
ATOM      8  C   UNL     1       1.287   7.219  20.782  0.00  0.00    +0.000 C 
ATOM      9  O   UNL     1       2.097   7.853  20.110  0.00  0.00    +0.000 OA
ATOM     10  N   UNL     1       1.297   5.835  20.811  0.00  0.00    +0.000 N 
ATOM     11  H   UNL     1      -0.016   7.279  22.352  0.00  0.00    +0.000 HD
ATOM     12  H   UNL     1       0.460   5.375  21.132  0.00  0.00    +0.000 HD
BRANCH   7  17
ATOM     13  C   UNL     1      -0.821  11.013  19.999  0.00  0.00    +0.000 A 
ATOM     14  C   UNL     1      -0.890  11.843  21.123  0.00  0.00    +0.000 A 
ATOM     15  C   UNL     1      -0.570  11.337  22.374  0.00  0.00    +0.000 A 
ATOM     16  C   UNL     1      -0.182  10.005  22.505  0.00  0.00    +0.000 A 
ATOM     17  C   UNL     1      -0.127   9.144  21.402  0.00  0.00    +0.000 A 
ATOM     18  C   UNL     1      -0.439   9.661  20.137  0.00  0.00    +0.000 A 
BRANCH  13  20
ATOM     19  C   UNL     1      -1.746  10.626  17.616  0.00  0.00    +0.000 C 
ATOM     20  C   UNL     1      -1.144  11.554  18.644  0.00  0.00    +0.000 C 
ATOM     21  O   UNL     1      -0.931  12.737  18.394  0.00  0.00    +0.000 OA
ENDBRANCH  13  20
ENDBRANCH   7  17
ENDBRANCH   1  10
BRANCH   6  22
ATOM     22  C   UNL     1       4.539   4.112  19.523  0.00  0.00    +0.000 C 
BRANCH  22  23
ATOM     23  N   UNL     1       5.029   5.183  18.612  0.00  0.00    +0.000 NA
ATOM     24  C   UNL     1       6.508   5.231  18.696  0.00  0.00    +0.000 C 
ATOM     25  C   UNL     1       7.097   6.347  17.828  0.00  0.00    +0.000 C 
ATOM     26  C   UNL     1       6.750   6.157  16.345  0.00  0.00    +0.000 C 
ATOM     27  C   UNL     1       5.228   6.052  16.246  0.00  0.00    +0.000 C 
ATOM     28  C   UNL     1       4.617   5.020  17.205  0.00  0.00    +0.000 C 
BRANCH  26  29
ATOM     29  C   UNL     1       7.504   4.945  15.752  0.00  0.00    +0.000 C 
BRANCH  29  30
ATOM     30  C   UNL     1       7.159   4.597  14.322  0.00  0.00    +0.000 A 
ATOM     31  C   UNL     1       6.144   3.678  14.028  0.00  0.00    +0.000 A 
ATOM     32  C   UNL     1       5.811   3.392  12.701  0.00  0.00    +0.000 A 
ATOM     33  C   UNL     1       6.483   4.025  11.659  0.00  0.00    +0.000 A 
ATOM     34  C   UNL     1       7.490   4.948  11.939  0.00  0.00    +0.000 A 
ATOM     35  C   UNL     1       7.826   5.231  13.264  0.00  0.00    +0.000 A 
ENDBRANCH  29  30
ENDBRANCH  26  29
ENDBRANCH  22  23
ENDBRANCH   6  22
TORSDOF 7
ENDMDL
MODEL 2
REMARK VINA RESULT:      -8.4      1.159      1.882
REMARK  Name = 
REMARK  8 active torsions:
REMARK  status: ('A' for Active; 'I' for Inactive)
REMARK    1  A    between atoms: C_1  and  C_2
REMARK    2  A    between atoms: C_2  and  C_4
REMARK    3  A    between atoms: C_8  and  N_9
REMARK    4  A    between atoms: N_12  and  C_13
REMARK    5  A    between atoms: C_18  and  C_19
REMARK    6  A    between atoms: C_19  and  N_20
REMARK    7  A    between atoms: C_23  and  C_24
REMARK    8  A    between atoms: C_24  and  C_25
REMARK                            x       y       z     vdW  Elec       q    Type
REMARK                         _______ _______ _______ _____ _____    ______ ____
ROOT
ATOM      1  C   UNL     1       2.117   5.501  20.026  0.00  0.00    +0.000 C 
ATOM      2  C   UNL     1       1.119   4.710  19.160  0.00  0.00    +0.000 C 
ATOM      3  C   UNL     1       0.752   3.320  19.657  0.00  0.00    +0.000 C 
ATOM      4  C   UNL     1       1.908   2.549  20.277  0.00  0.00    +0.000 C 
ATOM      5  C   UNL     1       2.686   3.401  21.277  0.00  0.00    +0.000 C 
ATOM      6  C   UNL     1       3.266   4.687  20.645  0.00  0.00    +0.000 C 
ENDROOT
BRANCH   1  10
ATOM      7  N   UNL     1       0.338   8.332  21.511  0.00  0.00    +0.000 N 
ATOM      8  C   UNL     1       1.254   7.682  20.713  0.00  0.00    +0.000 C 
ATOM      9  O   UNL     1       1.872   8.209  19.791  0.00  0.00    +0.000 OA
ATOM     10  N   UNL     1       1.403   6.338  21.008  0.00  0.00    +0.000 N 
ATOM     11  H   UNL     1       0.236   7.990  22.455  0.00  0.00    +0.000 HD
ATOM     12  H   UNL     1       0.681   5.906  21.563  0.00  0.00    +0.000 HD
BRANCH   7  17
ATOM     13  C   UNL     1      -1.092  11.761  21.921  0.00  0.00    +0.000 A 
ATOM     14  C   UNL     1      -1.355  12.111  20.593  0.00  0.00    +0.000 A 
ATOM     15  C   UNL     1      -1.064  11.216  19.574  0.00  0.00    +0.000 A 
ATOM     16  C   UNL     1      -0.511   9.974  19.879  0.00  0.00    +0.000 A 
ATOM     17  C   UNL     1      -0.215   9.605  21.197  0.00  0.00    +0.000 A 
ATOM     18  C   UNL     1      -0.521  10.506  22.225  0.00  0.00    +0.000 A 
BRANCH  13  20
ATOM     19  C   UNL     1      -2.850  12.798  23.508  0.00  0.00    +0.000 C 
ATOM     20  C   UNL     1      -1.421  12.709  23.028  0.00  0.00    +0.000 C 
ATOM     21  O   UNL     1      -0.530  13.383  23.538  0.00  0.00    +0.000 OA
ENDBRANCH  13  20
ENDBRANCH   7  17
ENDBRANCH   1  10
BRANCH   6  22
ATOM     22  C   UNL     1       4.437   4.302  19.671  0.00  0.00    +0.000 C 
BRANCH  22  23
ATOM     23  N   UNL     1       5.014   5.298  18.728  0.00  0.00    +0.000 NA
ATOM     24  C   UNL     1       6.491   5.193  18.777  0.00  0.00    +0.000 C 
ATOM     25  C   UNL     1       7.172   6.224  17.872  0.00  0.00    +0.000 C 
ATOM     26  C   UNL     1       6.771   6.042  16.402  0.00  0.00    +0.000 C 
ATOM     27  C   UNL     1       5.245   6.095  16.339  0.00  0.00    +0.000 C 
ATOM     28  C   UNL     1       4.553   5.152  17.334  0.00  0.00    +0.000 C 
BRANCH  26  29
ATOM     29  C   UNL     1       7.381   4.747  15.819  0.00  0.00    +0.000 C 
BRANCH  29  30
ATOM     30  C   UNL     1       7.094   4.490  14.358  0.00  0.00    +0.000 A 
ATOM     31  C   UNL     1       6.080   3.607  13.965  0.00  0.00    +0.000 A 
ATOM     32  C   UNL     1       5.802   3.406  12.611  0.00  0.00    +0.000 A 
ATOM     33  C   UNL     1       6.528   4.090  11.638  0.00  0.00    +0.000 A 
ATOM     34  C   UNL     1       7.534   4.977  12.016  0.00  0.00    +0.000 A 
ATOM     35  C   UNL     1       7.816   5.176  13.369  0.00  0.00    +0.000 A 
ENDBRANCH  29  30
ENDBRANCH  26  29
ENDBRANCH  22  23
ENDBRANCH   6  22
TORSDOF 7
ENDMDL
MODEL 3
REMARK VINA RESULT:      -8.3      2.646      4.446
REMARK  Name = 
REMARK  8 active torsions:
REMARK  status: ('A' for Active; 'I' for Inactive)
REMARK    1  A    between atoms: C_1  and  C_2
REMARK    2  A    between atoms: C_2  and  C_4
REMARK    3  A    between atoms: C_8  and  N_9
REMARK    4  A    between atoms: N_12  and  C_13
REMARK    5  A    between atoms: C_18  and  C_19
REMARK    6  A    between atoms: C_19  and  N_20
REMARK    7  A    between atoms: C_23  and  C_24
REMARK    8  A    between atoms: C_24  and  C_25
REMARK                            x       y       z     vdW  Elec       q    Type
REMARK                         _______ _______ _______ _____ _____    ______ ____
ROOT
ATOM      1  C   UNL     1       2.747   5.925  18.682  0.00  0.00    +0.000 C 
ATOM      2  C   UNL     1       1.563   5.153  18.070  0.00  0.00    +0.000 C 
ATOM      3  C   UNL     1       1.079   3.937  18.845  0.00  0.00    +0.000 C 
ATOM      4  C   UNL     1       2.191   3.121  19.489  0.00  0.00    +0.000 C 
ATOM      5  C   UNL     1       3.181   4.006  20.242  0.00  0.00    +0.000 C 
ATOM      6  C   UNL     1       3.845   5.068  19.334  0.00  0.00    +0.000 C 
ENDROOT
BRANCH   1  10
ATOM      7  N   UNL     1       1.229   9.073  19.763  0.00  0.00    +0.000 N 
ATOM      8  C   UNL     1       1.941   8.216  18.953  0.00  0.00    +0.000 C 
ATOM      9  O   UNL     1       2.247   8.454  17.787  0.00  0.00    +0.000 OA
ATOM     10  N   UNL     1       2.264   7.011  19.554  0.00  0.00    +0.000 N 
ATOM     11  H   UNL     1       1.410   9.015  20.754  0.00  0.00    +0.000 HD
ATOM     12  H   UNL     1       1.752   6.760  20.385  0.00  0.00    +0.000 HD
BRANCH   7  17
ATOM     13  C   UNL     1      -1.332  11.147  17.998  0.00  0.00    +0.000 A 
ATOM     14  C   UNL     1      -0.874  12.440  18.270  0.00  0.00    +0.000 A 
ATOM     15  C   UNL     1       0.275  12.620  19.027  0.00  0.00    +0.000 A 
ATOM     16  C   UNL     1       0.965  11.511  19.513  0.00  0.00    +0.000 A 
ATOM     17  C   UNL     1       0.518  10.206  19.278  0.00  0.00    +0.000 A 
ATOM     18  C   UNL     1      -0.636  10.027  18.503  0.00  0.00    +0.000 A 
BRANCH  13  20
ATOM     19  C   UNL     1      -3.862  11.533  17.638  0.00  0.00    +0.000 C 
ATOM     20  C   UNL     1      -2.555  10.941  17.167  0.00  0.00    +0.000 C 
ATOM     21  O   UNL     1      -2.478  10.314  16.114  0.00  0.00    +0.000 OA
ENDBRANCH  13  20
ENDBRANCH   7  17
ENDBRANCH   1  10
BRANCH   6  22
ATOM     22  C   UNL     1       4.838   4.355  18.347  0.00  0.00    +0.000 C 
BRANCH  22  23
ATOM     23  N   UNL     1       6.198   4.904  18.093  0.00  0.00    +0.000 NA
ATOM     24  C   UNL     1       6.132   5.798  16.914  0.00  0.00    +0.000 C 
ATOM     25  C   UNL     1       7.505   6.368  16.546  0.00  0.00    +0.000 C 
ATOM     26  C   UNL     1       8.101   7.198  17.690  0.00  0.00    +0.000 C 
ATOM     27  C   UNL     1       8.128   6.306  18.931  0.00  0.00    +0.000 C 
ATOM     28  C   UNL     1       6.782   5.632  19.235  0.00  0.00    +0.000 C 
BRANCH  26  29
ATOM     29  C   UNL     1       7.319   8.518  17.881  0.00  0.00    +0.000 C 
BRANCH  29  30
ATOM     30  C   UNL     1       8.162   9.744  18.147  0.00  0.00    +0.000 A 
ATOM     31  C   UNL     1       7.934  10.941  17.456  0.00  0.00    +0.000 A 
ATOM     32  C   UNL     1       8.697  12.077  17.738  0.00  0.00    +0.000 A 
ATOM     33  C   UNL     1       9.687  12.031  18.717  0.00  0.00    +0.000 A 
ATOM     34  C   UNL     1       9.917  10.848  19.417  0.00  0.00    +0.000 A 
ATOM     35  C   UNL     1       9.159   9.711  19.133  0.00  0.00    +0.000 A 
ENDBRANCH  29  30
ENDBRANCH  26  29
ENDBRANCH  22  23
ENDBRANCH   6  22
TORSDOF 7
ENDMDL
MODEL 4
REMARK VINA RESULT:      -8.3      1.374      1.587
REMARK  Name = 
REMARK  8 active torsions:
REMARK  status: ('A' for Active; 'I' for Inactive)
REMARK    1  A    between atoms: C_1  and  C_2
REMARK    2  A    between atoms: C_2  and  C_4
REMARK    3  A    between atoms: C_8  and  N_9
REMARK    4  A    between atoms: N_12  and  C_13
REMARK    5  A    between atoms: C_18  and  C_19
REMARK    6  A    between atoms: C_19  and  N_20
REMARK    7  A    between atoms: C_23  and  C_24
REMARK    8  A    between atoms: C_24  and  C_25
REMARK                            x       y       z     vdW  Elec       q    Type
REMARK                         _______ _______ _______ _____ _____    ______ ____
ROOT
ATOM      1  C   UNL     1       2.364   5.375  19.683  0.00  0.00    +0.000 C 
ATOM      2  C   UNL     1       1.198   4.565  19.086  0.00  0.00    +0.000 C 
ATOM      3  C   UNL     1       0.678   3.412  19.931  0.00  0.00    +0.000 C 
ATOM      4  C   UNL     1       1.759   2.642  20.676  0.00  0.00    +0.000 C 
ATOM      5  C   UNL     1       2.727   3.577  21.397  0.00  0.00    +0.000 C 
ATOM      6  C   UNL     1       3.431   4.565  20.438  0.00  0.00    +0.000 C 
ENDROOT
BRANCH   1  10
ATOM      7  N   UNL     1       1.041   8.693  20.472  0.00  0.00    +0.000 N 
ATOM      8  C   UNL     1       1.787   7.747  19.805  0.00  0.00    +0.000 C 
ATOM      9  O   UNL     1       2.324   7.926  18.714  0.00  0.00    +0.000 OA
ATOM     10  N   UNL     1       1.857   6.526  20.453  0.00  0.00    +0.000 N 
ATOM     11  H   UNL     1       1.031   8.636  21.480  0.00  0.00    +0.000 HD
ATOM     12  H   UNL     1       1.177   6.349  21.177  0.00  0.00    +0.000 HD
BRANCH   7  17
ATOM     13  C   UNL     1      -1.135  11.064  18.569  0.00  0.00    +0.000 A 
ATOM     14  C   UNL     1      -0.375  12.237  18.621  0.00  0.00    +0.000 A 
ATOM     15  C   UNL     1       0.848  12.238  19.276  0.00  0.00    +0.000 A 
ATOM     16  C   UNL     1       1.312  11.072  19.880  0.00  0.00    +0.000 A 
ATOM     17  C   UNL     1       0.563   9.889  19.866  0.00  0.00    +0.000 A 
ATOM     18  C   UNL     1      -0.666   9.887  19.193  0.00  0.00    +0.000 A 
BRANCH  13  20
ATOM     19  C   UNL     1      -2.449  10.782  16.361  0.00  0.00    +0.000 C 
ATOM     20  C   UNL     1      -2.443  11.046  17.848  0.00  0.00    +0.000 C 
ATOM     21  O   UNL     1      -3.485  11.228  18.471  0.00  0.00    +0.000 OA
ENDBRANCH  13  20
ENDBRANCH   7  17
ENDBRANCH   1  10
BRANCH   6  22
ATOM     22  C   UNL     1       4.455   3.776  19.544  0.00  0.00    +0.000 C 
BRANCH  22  23
ATOM     23  N   UNL     1       5.613   4.464  18.909  0.00  0.00    +0.000 NA
ATOM     24  C   UNL     1       5.965   3.741  17.665  0.00  0.00    +0.000 C 
ATOM     25  C   UNL     1       7.186   4.351  16.971  0.00  0.00    +0.000 C 
ATOM     26  C   UNL     1       6.942   5.812  16.571  0.00  0.00    +0.000 C 
ATOM     27  C   UNL     1       6.525   6.563  17.835  0.00  0.00    +0.000 C 
ATOM     28  C   UNL     1       5.381   5.889  18.605  0.00  0.00    +0.000 C 
BRANCH  26  29
ATOM     29  C   UNL     1       5.918   5.906  15.417  0.00  0.00    +0.000 C 
BRANCH  29  30
ATOM     30  C   UNL     1       6.224   5.061  14.202  0.00  0.00    +0.000 A 
ATOM     31  C   UNL     1       5.353   4.044  13.791  0.00  0.00    +0.000 A 
ATOM     32  C   UNL     1       5.630   3.295  12.645  0.00  0.00    +0.000 A 
ATOM     33  C   UNL     1       6.774   3.559  11.895  0.00  0.00    +0.000 A 
ATOM     34  C   UNL     1       7.644   4.574  12.289  0.00  0.00    +0.000 A 
ATOM     35  C   UNL     1       7.371   5.320  13.436  0.00  0.00    +0.000 A 
ENDBRANCH  29  30
ENDBRANCH  26  29
ENDBRANCH  22  23
ENDBRANCH   6  22
TORSDOF 7
ENDMDL
MODEL 5
REMARK VINA RESULT:      -8.3      0.569      1.014
REMARK  Name = 
REMARK  8 active torsions:
REMARK  status: ('A' for Active; 'I' for Inactive)
REMARK    1  A    between atoms: C_1  and  C_2
REMARK    2  A    between atoms: C_2  and  C_4
REMARK    3  A    between atoms: C_8  and  N_9
REMARK    4  A    between atoms: N_12  and  C_13
REMARK    5  A    between atoms: C_18  and  C_19
REMARK    6  A    between atoms: C_19  and  N_20
REMARK    7  A    between atoms: C_23  and  C_24
REMARK    8  A    between atoms: C_24  and  C_25
REMARK                            x       y       z     vdW  Elec       q    Type
REMARK                         _______ _______ _______ _____ _____    ______ ____
ROOT
ATOM      1  C   UNL     1       2.183   5.464  19.989  0.00  0.00    +0.000 C 
ATOM      2  C   UNL     1       1.173   4.750  19.072  0.00  0.00    +0.000 C 
ATOM      3  C   UNL     1       0.786   3.334  19.471  0.00  0.00    +0.000 C 
ATOM      4  C   UNL     1       1.932   2.505  20.034  0.00  0.00    +0.000 C 
ATOM      5  C   UNL     1       2.722   3.273  21.090  0.00  0.00    +0.000 C 
ATOM      6  C   UNL     1       3.320   4.593  20.548  0.00  0.00    +0.000 C 
ENDROOT
BRANCH   1  10
ATOM      7  N   UNL     1       0.432   8.203  21.667  0.00  0.00    +0.000 N 
ATOM      8  C   UNL     1       1.337   7.601  20.821  0.00  0.00    +0.000 C 
ATOM      9  O   UNL     1       1.950   8.182  19.929  0.00  0.00    +0.000 OA
ATOM     10  N   UNL     1       1.482   6.240  21.029  0.00  0.00    +0.000 N 
ATOM     11  H   UNL     1       0.336   7.803  22.588  0.00  0.00    +0.000 HD
ATOM     12  H   UNL     1       0.762   5.777  21.562  0.00  0.00    +0.000 HD
BRANCH   7  17
ATOM     13  C   UNL     1      -1.236  11.083  19.964  0.00  0.00    +0.000 A 
ATOM     14  C   UNL     1      -1.169  12.066  20.956  0.00  0.00    +0.000 A 
ATOM     15  C   UNL     1      -0.573  11.776  22.175  0.00  0.00    +0.000 A 
ATOM     16  C   UNL     1      -0.045  10.507  22.404  0.00  0.00    +0.000 A 
ATOM     17  C   UNL     1      -0.118   9.496  21.439  0.00  0.00    +0.000 A 
ATOM     18  C   UNL     1      -0.710   9.795  20.204  0.00  0.00    +0.000 A 
BRANCH  13  20
ATOM     19  C   UNL     1      -3.329  11.721  18.588  0.00  0.00    +0.000 C 
ATOM     20  C   UNL     1      -1.857  11.390  18.640  0.00  0.00    +0.000 C 
ATOM     21  O   UNL     1      -1.164  11.386  17.627  0.00  0.00    +0.000 OA
ENDBRANCH  13  20
ENDBRANCH   7  17
ENDBRANCH   1  10
BRANCH   6  22
ATOM     22  C   UNL     1       4.486   4.260  19.548  0.00  0.00    +0.000 C 
BRANCH  22  23
ATOM     23  N   UNL     1       5.042   5.299  18.640  0.00  0.00    +0.000 NA
ATOM     24  C   UNL     1       6.521   5.243  18.711  0.00  0.00    +0.000 C 
ATOM     25  C   UNL     1       7.180   6.320  17.844  0.00  0.00    +0.000 C 
ATOM     26  C   UNL     1       6.809   6.164  16.364  0.00  0.00    +0.000 C 
ATOM     27  C   UNL     1       5.283   6.166  16.277  0.00  0.00    +0.000 C 
ATOM     28  C   UNL     1       4.609   5.173  17.235  0.00  0.00    +0.000 C 
BRANCH  26  29
ATOM     29  C   UNL     1       7.472   4.906  15.758  0.00  0.00    +0.000 C 
BRANCH  29  30
ATOM     30  C   UNL     1       7.124   4.614  14.316  0.00  0.00    +0.000 A 
ATOM     31  C   UNL     1       7.818   5.230  13.267  0.00  0.00    +0.000 A 
ATOM     32  C   UNL     1       7.510   4.923  11.939  0.00  0.00    +0.000 A 
ATOM     33  C   UNL     1       6.513   3.996  11.647  0.00  0.00    +0.000 A 
ATOM     34  C   UNL     1       5.820   3.371  12.683  0.00  0.00    +0.000 A 
ATOM     35  C   UNL     1       6.124   3.679  14.010  0.00  0.00    +0.000 A 
ENDBRANCH  29  30
ENDBRANCH  26  29
ENDBRANCH  22  23
ENDBRANCH   6  22
TORSDOF 7
ENDMDL
MODEL 6
REMARK VINA RESULT:      -8.2      2.366      4.139
REMARK  Name = 
REMARK  8 active torsions:
REMARK  status: ('A' for Active; 'I' for Inactive)
REMARK    1  A    between atoms: C_1  and  C_2
REMARK    2  A    between atoms: C_2  and  C_4
REMARK    3  A    between atoms: C_8  and  N_9
REMARK    4  A    between atoms: N_12  and  C_13
REMARK    5  A    between atoms: C_18  and  C_19
REMARK    6  A    between atoms: C_19  and  N_20
REMARK    7  A    between atoms: C_23  and  C_24
REMARK    8  A    between atoms: C_24  and  C_25
REMARK                            x       y       z     vdW  Elec       q    Type
REMARK                         _______ _______ _______ _____ _____    ______ ____
ROOT
ATOM      1  C   UNL     1       2.364   5.002  18.985  0.00  0.00    +0.000 C 
ATOM      2  C   UNL     1       1.342   3.995  18.426  0.00  0.00    +0.000 C 
ATOM      3  C   UNL     1       1.523   2.546  18.852  0.00  0.00    +0.000 C 
ATOM      4  C   UNL     1       2.973   2.096  18.946  0.00  0.00    +0.000 C 
ATOM      5  C   UNL     1       3.831   3.098  19.713  0.00  0.00    +0.000 C 
ATOM      6  C   UNL     1       3.818   4.508  19.076  0.00  0.00    +0.000 C 
ENDROOT
BRANCH   1  10
ATOM      7  N   UNL     1       1.012   7.429  21.365  0.00  0.00    +0.000 N 
ATOM      8  C   UNL     1       1.742   6.973  20.290  0.00  0.00    +0.000 C 
ATOM      9  O   UNL     1       2.215   7.693  19.414  0.00  0.00    +0.000 OA
ATOM     10  N   UNL     1       1.874   5.596  20.243  0.00  0.00    +0.000 N 
ATOM     11  H   UNL     1       1.059   6.880  22.211  0.00  0.00    +0.000 HD
ATOM     12  H   UNL     1       1.239   5.053  20.807  0.00  0.00    +0.000 HD
BRANCH   7  17
ATOM     13  C   UNL     1      -0.103  10.860  20.386  0.00  0.00    +0.000 A 
ATOM     14  C   UNL     1      -0.543  11.367  21.614  0.00  0.00    +0.000 A 
ATOM     15  C   UNL     1      -0.465  10.580  22.752  0.00  0.00    +0.000 A 
ATOM     16  C   UNL     1       0.049   9.288  22.669  0.00  0.00    +0.000 A 
ATOM     17  C   UNL     1       0.475   8.744  21.451  0.00  0.00    +0.000 A 
ATOM     18  C   UNL     1       0.407   9.546  20.303  0.00  0.00    +0.000 A 
BRANCH  13  20
ATOM     19  C   UNL     1      -1.512  12.038  18.568  0.00  0.00    +0.000 C 
ATOM     20  C   UNL     1      -0.162  11.707  19.157  0.00  0.00    +0.000 C 
ATOM     21  O   UNL     1       0.877  12.131  18.659  0.00  0.00    +0.000 OA
ENDBRANCH  13  20
ENDBRANCH   7  17
ENDBRANCH   1  10
BRANCH   6  22
ATOM     22  C   UNL     1       4.617   4.470  17.723  0.00  0.00    +0.000 C 
BRANCH  22  23
ATOM     23  N   UNL     1       6.014   4.977  17.639  0.00  0.00    +0.000 NA
ATOM     24  C   UNL     1       6.096   5.947  16.522  0.00  0.00    +0.000 C 
ATOM     25  C   UNL     1       7.518   6.481  16.328  0.00  0.00    +0.000 C 
ATOM     26  C   UNL     1       8.027   7.212  17.577  0.00  0.00    +0.000 C 
ATOM     27  C   UNL     1       7.899   6.242  18.752  0.00  0.00    +0.000 C 
ATOM     28  C   UNL     1       6.507   5.606  18.879  0.00  0.00    +0.000 C 
BRANCH  26  29
ATOM     29  C   UNL     1       7.276   8.548  17.780  0.00  0.00    +0.000 C 
BRANCH  29  30
ATOM     30  C   UNL     1       8.140   9.733  18.145  0.00  0.00    +0.000 A 
ATOM     31  C   UNL     1       9.139   9.625  19.121  0.00  0.00    +0.000 A 
ATOM     32  C   UNL     1       9.954  10.719  19.423  0.00  0.00    +0.000 A 
ATOM     33  C   UNL     1       9.784  11.927  18.751  0.00  0.00    +0.000 A 
ATOM     34  C   UNL     1       8.798  12.044  17.772  0.00  0.00    +0.000 A 
ATOM     35  C   UNL     1       7.980  10.953  17.472  0.00  0.00    +0.000 A 
ENDBRANCH  29  30
ENDBRANCH  26  29
ENDBRANCH  22  23
ENDBRANCH   6  22
TORSDOF 7
ENDMDL
MODEL 7
REMARK VINA RESULT:      -8.1      1.316      2.044
REMARK  Name = 
REMARK  8 active torsions:
REMARK  status: ('A' for Active; 'I' for Inactive)
REMARK    1  A    between atoms: C_1  and  C_2
REMARK    2  A    between atoms: C_2  and  C_4
REMARK    3  A    between atoms: C_8  and  N_9
REMARK    4  A    between atoms: N_12  and  C_13
REMARK    5  A    between atoms: C_18  and  C_19
REMARK    6  A    between atoms: C_19  and  N_20
REMARK    7  A    between atoms: C_23  and  C_24
REMARK    8  A    between atoms: C_24  and  C_25
REMARK                            x       y       z     vdW  Elec       q    Type
REMARK                         _______ _______ _______ _____ _____    ______ ____
ROOT
ATOM      1  C   UNL     1       2.435   5.008  19.860  0.00  0.00    +0.000 C 
ATOM      2  C   UNL     1       1.241   4.372  19.124  0.00  0.00    +0.000 C 
ATOM      3  C   UNL     1       0.708   3.071  19.705  0.00  0.00    +0.000 C 
ATOM      4  C   UNL     1       1.783   2.136  20.240  0.00  0.00    +0.000 C 
ATOM      5  C   UNL     1       2.783   2.870  21.129  0.00  0.00    +0.000 C 
ATOM      6  C   UNL     1       3.495   4.031  20.396  0.00  0.00    +0.000 C 
ENDROOT
BRANCH   1  10
ATOM      7  N   UNL     1       1.071   8.048  21.372  0.00  0.00    +0.000 N 
ATOM      8  C   UNL     1       1.779   7.281  20.472  0.00  0.00    +0.000 C 
ATOM      9  O   UNL     1       2.190   7.684  19.387  0.00  0.00    +0.000 OA
ATOM     10  N   UNL     1       1.966   5.970  20.875  0.00  0.00    +0.000 N 
ATOM     11  H   UNL     1       1.171   7.810  22.348  0.00  0.00    +0.000 HD
ATOM     12  H   UNL     1       1.375   5.628  21.616  0.00  0.00    +0.000 HD
BRANCH   7  17
ATOM     13  C   UNL     1      -0.736  11.300  21.725  0.00  0.00    +0.000 A 
ATOM     14  C   UNL     1      -0.723  11.767  20.406  0.00  0.00    +0.000 A 
ATOM     15  C   UNL     1      -0.125  11.008  19.412  0.00  0.00    +0.000 A 
ATOM     16  C   UNL     1       0.461   9.784  19.731  0.00  0.00    +0.000 A 
ATOM     17  C   UNL     1       0.484   9.302  21.046  0.00  0.00    +0.000 A 
ATOM     18  C   UNL     1      -0.132  10.066  22.046  0.00  0.00    +0.000 A 
BRANCH  13  20
ATOM     19  C   UNL     1      -0.902  13.501  23.071  0.00  0.00    +0.000 C 
ATOM     20  C   UNL     1      -1.397  12.100  22.800  0.00  0.00    +0.000 C 
ATOM     21  O   UNL     1      -2.335  11.618  23.429  0.00  0.00    +0.000 OA
ENDBRANCH  13  20
ENDBRANCH   7  17
ENDBRANCH   1  10
BRANCH   6  22
ATOM     22  C   UNL     1       4.486   3.440  19.330  0.00  0.00    +0.000 C 
BRANCH  22  23
ATOM     23  N   UNL     1       5.558   4.277  18.727  0.00  0.00    +0.000 NA
ATOM     24  C   UNL     1       6.007   3.633  17.470  0.00  0.00    +0.000 C 
ATOM     25  C   UNL     1       7.152   4.403  16.806  0.00  0.00    +0.000 C 
ATOM     26  C   UNL     1       6.737   5.833  16.438  0.00  0.00    +0.000 C 
ATOM     27  C   UNL     1       6.221   6.497  17.714  0.00  0.00    +0.000 C 
ATOM     28  C   UNL     1       5.158   5.671  18.454  0.00  0.00    +0.000 C 
BRANCH  26  29
ATOM     29  C   UNL     1       5.721   5.832  15.274  0.00  0.00    +0.000 C 
BRANCH  29  30
ATOM     30  C   UNL     1       6.087   4.969  14.088  0.00  0.00    +0.000 A 
ATOM     31  C   UNL     1       5.210   3.985  13.613  0.00  0.00    +0.000 A 
ATOM     32  C   UNL     1       5.546   3.219  12.494  0.00  0.00    +0.000 A 
ATOM     33  C   UNL     1       6.754   3.433  11.836  0.00  0.00    +0.000 A 
ATOM     34  C   UNL     1       7.631   4.414  12.294  0.00  0.00    +0.000 A 
ATOM     35  C   UNL     1       7.299   5.178  13.414  0.00  0.00    +0.000 A 
ENDBRANCH  29  30
ENDBRANCH  26  29
ENDBRANCH  22  23
ENDBRANCH   6  22
TORSDOF 7
ENDMDL
MODEL 8
REMARK VINA RESULT:      -8.1      2.275      4.026
REMARK  Name = 
REMARK  8 active torsions:
REMARK  status: ('A' for Active; 'I' for Inactive)
REMARK    1  A    between atoms: C_1  and  C_2
REMARK    2  A    between atoms: C_2  and  C_4
REMARK    3  A    between atoms: C_8  and  N_9
REMARK    4  A    between atoms: N_12  and  C_13
REMARK    5  A    between atoms: C_18  and  C_19
REMARK    6  A    between atoms: C_19  and  N_20
REMARK    7  A    between atoms: C_23  and  C_24
REMARK    8  A    between atoms: C_24  and  C_25
REMARK                            x       y       z     vdW  Elec       q    Type
REMARK                         _______ _______ _______ _____ _____    ______ ____
ROOT
ATOM      1  C   UNL     1       2.275   5.379  19.439  0.00  0.00    +0.000 C 
ATOM      2  C   UNL     1       1.146   4.374  19.145  0.00  0.00    +0.000 C 
ATOM      3  C   UNL     1       1.169   3.081  19.946  0.00  0.00    +0.000 C 
ATOM      4  C   UNL     1       2.563   2.520  20.189  0.00  0.00    +0.000 C 
ATOM      5  C   UNL     1       3.530   3.593  20.681  0.00  0.00    +0.000 C 
ATOM      6  C   UNL     1       3.666   4.774  19.691  0.00  0.00    +0.000 C 
ENDROOT
BRANCH   1  10
ATOM      7  N   UNL     1       1.048   8.433  21.037  0.00  0.00    +0.000 N 
ATOM      8  C   UNL     1       1.711   7.660  20.109  0.00  0.00    +0.000 C 
ATOM      9  O   UNL     1       2.115   8.071  19.023  0.00  0.00    +0.000 OA
ATOM     10  N   UNL     1       1.861   6.336  20.481  0.00  0.00    +0.000 N 
ATOM     11  H   UNL     1       1.160   8.172  22.006  0.00  0.00    +0.000 HD
ATOM     12  H   UNL     1       1.273   5.999  21.228  0.00  0.00    +0.000 HD
BRANCH   7  17
ATOM     13  C   UNL     1      -1.089  11.099  19.523  0.00  0.00    +0.000 A 
ATOM     14  C   UNL     1      -0.568  12.247  20.129  0.00  0.00    +0.000 A 
ATOM     15  C   UNL     1       0.484  12.136  21.026  0.00  0.00    +0.000 A 
ATOM     16  C   UNL     1       1.016  10.882  21.320  0.00  0.00    +0.000 A 
ATOM     17  C   UNL     1       0.499   9.713  20.747  0.00  0.00    +0.000 A 
ATOM     18  C   UNL     1      -0.556   9.829  19.832  0.00  0.00    +0.000 A 
BRANCH  13  20
ATOM     19  C   UNL     1      -2.158  10.371  17.285  0.00  0.00    +0.000 C 
ATOM     20  C   UNL     1      -2.208  11.210  18.540  0.00  0.00    +0.000 C 
ATOM     21  O   UNL     1      -3.151  11.961  18.772  0.00  0.00    +0.000 OA
ENDBRANCH  13  20
ENDBRANCH   7  17
ENDBRANCH   1  10
BRANCH   6  22
ATOM     22  C   UNL     1       4.447   4.291  18.416  0.00  0.00    +0.000 C 
BRANCH  22  23
ATOM     23  N   UNL     1       5.838   4.747  18.146  0.00  0.00    +0.000 NA
ATOM     24  C   UNL     1       5.834   5.564  16.910  0.00  0.00    +0.000 C 
ATOM     25  C   UNL     1       7.240   6.032  16.525  0.00  0.00    +0.000 C 
ATOM     26  C   UNL     1       7.869   6.903  17.620  0.00  0.00    +0.000 C 
ATOM     27  C   UNL     1       7.834   6.094  18.917  0.00  0.00    +0.000 C 
ATOM     28  C   UNL     1       6.450   5.516  19.246  0.00  0.00    +0.000 C 
BRANCH  26  29
ATOM     29  C   UNL     1       7.160   8.272  17.713  0.00  0.00    +0.000 C 
BRANCH  29  30
ATOM     30  C   UNL     1       8.036   9.436  18.114  0.00  0.00    +0.000 A 
ATOM     31  C   UNL     1       8.979   9.309  19.142  0.00  0.00    +0.000 A 
ATOM     32  C   UNL     1       9.808  10.383  19.479  0.00  0.00    +0.000 A 
ATOM     33  C   UNL     1       9.707  11.588  18.789  0.00  0.00    +0.000 A 
ATOM     34  C   UNL     1       8.778  11.725  17.759  0.00  0.00    +0.000 A 
ATOM     35  C   UNL     1       7.946  10.655  17.424  0.00  0.00    +0.000 A 
ENDBRANCH  29  30
ENDBRANCH  26  29
ENDBRANCH  22  23
ENDBRANCH   6  22
TORSDOF 7
ENDMDL
MODEL 9
REMARK VINA RESULT:      -8.1      1.227      2.113
REMARK  Name = 
REMARK  8 active torsions:
REMARK  status: ('A' for Active; 'I' for Inactive)
REMARK    1  A    between atoms: C_1  and  C_2
REMARK    2  A    between atoms: C_2  and  C_4
REMARK    3  A    between atoms: C_8  and  N_9
REMARK    4  A    between atoms: N_12  and  C_13
REMARK    5  A    between atoms: C_18  and  C_19
REMARK    6  A    between atoms: C_19  and  N_20
REMARK    7  A    between atoms: C_23  and  C_24
REMARK    8  A    between atoms: C_24  and  C_25
REMARK                            x       y       z     vdW  Elec       q    Type
REMARK                         _______ _______ _______ _____ _____    ______ ____
ROOT
ATOM      1  C   UNL     1       2.383   5.056  19.900  0.00  0.00    +0.000 C 
ATOM      2  C   UNL     1       1.201   4.342  19.219  0.00  0.00    +0.000 C 
ATOM      3  C   UNL     1       0.717   3.061  19.881  0.00  0.00    +0.000 C 
ATOM      4  C   UNL     1       1.828   2.191  20.451  0.00  0.00    +0.000 C 
ATOM      5  C   UNL     1       2.816   3.005  21.282  0.00  0.00    +0.000 C 
ATOM      6  C   UNL     1       3.481   4.144  20.475  0.00  0.00    +0.000 C 
ENDROOT
BRANCH   1  10
ATOM      7  N   UNL     1       1.072   8.185  21.268  0.00  0.00    +0.000 N 
ATOM      8  C   UNL     1       1.799   7.369  20.429  0.00  0.00    +0.000 C 
ATOM      9  O   UNL     1       2.296   7.730  19.365  0.00  0.00    +0.000 OA
ATOM     10  N   UNL     1       1.898   6.059  20.866  0.00  0.00    +0.000 N 
ATOM     11  H   UNL     1       1.099   7.963  22.252  0.00  0.00    +0.000 HD
ATOM     12  H   UNL     1       1.246   5.760  21.574  0.00  0.00    +0.000 HD
BRANCH   7  17
ATOM     13  C   UNL     1      -0.529  11.557  21.465  0.00  0.00    +0.000 A 
ATOM     14  C   UNL     1      -0.480  11.964  20.128  0.00  0.00    +0.000 A 
ATOM     15  C   UNL     1       0.074  11.125  19.172  0.00  0.00    +0.000 A 
ATOM     16  C   UNL     1       0.580   9.883  19.549  0.00  0.00    +0.000 A 
ATOM     17  C   UNL     1       0.567   9.459  20.883  0.00  0.00    +0.000 A 
ATOM     18  C   UNL     1      -0.005  10.303  21.845  0.00  0.00    +0.000 A 
BRANCH  13  20
ATOM     19  C   UNL     1      -2.379  11.967  23.223  0.00  0.00    +0.000 C 
ATOM     20  C   UNL     1      -1.143  12.444  22.499  0.00  0.00    +0.000 C 
ATOM     21  O   UNL     1      -0.629  13.529  22.754  0.00  0.00    +0.000 OA
ENDBRANCH  13  20
ENDBRANCH   7  17
ENDBRANCH   1  10
BRANCH   6  22
ATOM     22  C   UNL     1       4.476   3.524  19.429  0.00  0.00    +0.000 C 
BRANCH  22  23
ATOM     23  N   UNL     1       5.566   4.339  18.826  0.00  0.00    +0.000 NA
ATOM     24  C   UNL     1       6.002   3.685  17.570  0.00  0.00    +0.000 C 
ATOM     25  C   UNL     1       7.164   4.430  16.906  0.00  0.00    +0.000 C 
ATOM     26  C   UNL     1       6.779   5.868  16.537  0.00  0.00    +0.000 C 
ATOM     27  C   UNL     1       6.276   6.544  17.812  0.00  0.00    +0.000 C 
ATOM     28  C   UNL     1       5.196   5.740  18.551  0.00  0.00    +0.000 C 
BRANCH  26  29
ATOM     29  C   UNL     1       5.764   5.887  15.372  0.00  0.00    +0.000 C 
BRANCH  29  30
ATOM     30  C   UNL     1       6.161   5.097  14.146  0.00  0.00    +0.000 A 
ATOM     31  C   UNL     1       7.352   5.373  13.463  0.00  0.00    +0.000 A 
ATOM     32  C   UNL     1       7.724   4.611  12.353  0.00  0.00    +0.000 A 
ATOM     33  C   UNL     1       6.915   3.563  11.920  0.00  0.00    +0.000 A 
ATOM     34  C   UNL     1       5.731   3.274  12.596  0.00  0.00    +0.000 A 
ATOM     35  C   UNL     1       5.356   4.037  13.703  0.00  0.00    +0.000 A 
ENDBRANCH  29  30
ENDBRANCH  26  29
ENDBRANCH  22  23
ENDBRANCH   6  22
TORSDOF 7
ENDMDL
