MODEL 1
REMARK VINA RESULT:      -8.2      0.000      0.000
REMARK  Name = 
REMARK  13 active torsions:
REMARK  status: ('A' for Active; 'I' for Inactive)
REMARK    1  A    between atoms: C_1  and  C_2
REMARK    2  A    between atoms: C_2  and  C_3
REMARK    3  A    between atoms: C_2  and  C_4
REMARK    4  A    between atoms: C_6  and  C_7
REMARK    5  A    between atoms: C_7  and  N_8
REMARK    6  A    between atoms: N_8  and  C_9
REMARK    7  A    between atoms: C_9  and  C_10
REMARK    8  A    between atoms: C_16  and  O_17
REMARK    9  A    between atoms: O_17  and  C_18
REMARK   10  A    between atoms: C_18  and  C_19
REMARK   11  A    between atoms: C_19  and  O_20
REMARK   12  A    between atoms: C_19  and  C_21
REMARK   13  A    between atoms: C_21  and  N_22
REMARK                            x       y       z     vdW  Elec       q    Type
REMARK                         _______ _______ _______ _____ _____    ______ ____
ROOT
ATOM      1  C   UNL     1       4.192   4.518  18.725  0.00  0.00    +0.000 A 
ATOM      2  C   UNL     1       3.634   3.231  18.789  0.00  0.00    +0.000 A 
ATOM      3  C   UNL     1       2.293   2.996  18.462  0.00  0.00    +0.000 A 
ATOM      4 CL   UNL     1       1.659   1.401  18.581  0.00  0.00    +0.000 Cl
ATOM      5  C   UNL     1       1.461   4.036  18.065  0.00  0.00    +0.000 A 
ATOM      6  C   UNL     1       1.975   5.323  17.998  0.00  0.00    +0.000 A 
ATOM      7  C   UNL     1       3.323   5.563  18.314  0.00  0.00    +0.000 A 
ENDROOT
BRANCH   1   8
ATOM      8  C   UNL     1       5.640   4.783  19.112  0.00  0.00    +0.000 C 
BRANCH   8   9
ATOM      9  N   UNL     1       6.728   4.407  18.170  0.00  0.00    +0.000 NA
ATOM     10  H   UNL     1       7.545   4.226  18.758  0.00  0.00    +0.000 HD
BRANCH   9  11
ATOM     11  C   UNL     1       7.136   5.488  17.241  0.00  0.00    +0.000 C 
BRANCH  11  14
ATOM     12  C   UNL     1       6.366   4.376  13.779  0.00  0.00    +0.000 A 
ATOM     13  C   UNL     1       5.874   4.452  15.115  0.00  0.00    +0.000 A 
ATOM     14  C   UNL     1       6.825   5.183  15.801  0.00  0.00    +0.000 A 
ATOM     15  O   UNL     1       7.706   5.686  14.884  0.00  0.00    +0.000 OA
ATOM     16  N   UNL     1       7.425   5.182  13.622  0.00  0.00    +0.000 NA
BRANCH  12  18
ATOM     17  C   UNL     1       4.671   3.468  12.018  0.00  0.00    +0.000 C 
ATOM     18  C   UNL     1       6.007   3.322  12.754  0.00  0.00    +0.000 C 
ATOM     19  C   UNL     1       7.153   3.249  11.735  0.00  0.00    +0.000 C 
ENDBRANCH  12  18
ENDBRANCH  11  14
ENDBRANCH   9  11
ENDBRANCH   8   9
ENDBRANCH   1   8
BRANCH   7  20
ATOM     20  O   UNL     1       3.637   6.886  18.417  0.00  0.00    +0.000 OA
BRANCH  20  21
ATOM     21  C   UNL     1       3.023   7.746  17.458  0.00  0.00    +0.000 C 
BRANCH  21  22
ATOM     22  C   UNL     1       2.519   8.965  18.254  0.00  0.00    +0.000 C 
BRANCH  22  23
ATOM     23  O   UNL     1       2.021   9.960  17.367  0.00  0.00    +0.000 OA
ATOM     24  H   UNL     1       1.932   9.566  16.485  0.00  0.00    +0.000 HD
ENDBRANCH  22  23
BRANCH  22  25
ATOM     25  C   UNL     1       1.468   8.505  19.316  0.00  0.00    +0.000 C 
BRANCH  25  26
ATOM     26  N   UNL     1       1.053   9.397  20.453  0.00  0.00    +0.000 NA
ATOM     27  C   UNL     1       0.274  10.497  19.882  0.00  0.00    +0.000 C 
ATOM     28  C   UNL     1      -0.078  11.705  20.754  0.00  0.00    +0.000 C 
ATOM     29  C   UNL     1      -1.126  11.469  21.826  0.00  0.00    +0.000 C 
ATOM     30  C   UNL     1      -0.632  10.601  22.964  0.00  0.00    +0.000 C 
ATOM     31  C   UNL     1      -0.478   9.135  22.637  0.00  0.00    +0.000 C 
ATOM     32  C   UNL     1       0.502   8.627  21.563  0.00  0.00    +0.000 C 
ENDBRANCH  25  26
ENDBRANCH  22  25
ENDBRANCH  21  22
ENDBRANCH  20  21
ENDBRANCH   7  20
TORSDOF 11
ENDMDL
MODEL 2
REMARK VINA RESULT:      -7.9      1.483      2.022
REMARK  Name = 
REMARK  13 active torsions:
REMARK  status: ('A' for Active; 'I' for Inactive)
REMARK    1  A    between atoms: C_1  and  C_2
REMARK    2  A    between atoms: C_2  and  C_3
REMARK    3  A    between atoms: C_2  and  C_4
REMARK    4  A    between atoms: C_6  and  C_7
REMARK    5  A    between atoms: C_7  and  N_8
REMARK    6  A    between atoms: N_8  and  C_9
REMARK    7  A    between atoms: C_9  and  C_10
REMARK    8  A    between atoms: C_16  and  O_17
REMARK    9  A    between atoms: O_17  and  C_18
REMARK   10  A    between atoms: C_18  and  C_19
REMARK   11  A    between atoms: C_19  and  O_20
REMARK   12  A    between atoms: C_19  and  C_21
REMARK   13  A    between atoms: C_21  and  N_22
REMARK                            x       y       z     vdW  Elec       q    Type
REMARK                         _______ _______ _______ _____ _____    ______ ____
ROOT
ATOM      1  C   UNL     1       4.086   6.063  17.866  0.00  0.00    +0.000 A 
ATOM      2  C   UNL     1       4.294   4.780  18.399  0.00  0.00    +0.000 A 
ATOM      3  C   UNL     1       3.546   4.308  19.485  0.00  0.00    +0.000 A 
ATOM      4 CL   UNL     1       3.861   2.737  20.110  0.00  0.00    +0.000 Cl
ATOM      5  C   UNL     1       2.570   5.099  20.078  0.00  0.00    +0.000 A 
ATOM      6  C   UNL     1       2.342   6.374  19.583  0.00  0.00    +0.000 A 
ATOM      7  C   UNL     1       3.082   6.850  18.487  0.00  0.00    +0.000 A 
ENDROOT
BRANCH   1   8
ATOM      8  C   UNL     1       4.920   6.593  16.707  0.00  0.00    +0.000 C 
BRANCH   8   9
ATOM      9  N   UNL     1       6.401   6.642  16.836  0.00  0.00    +0.000 NA
ATOM     10  H   UNL     1       6.706   7.359  16.175  0.00  0.00    +0.000 HD
BRANCH   9  11
ATOM     11  C   UNL     1       7.094   5.397  16.424  0.00  0.00    +0.000 C 
BRANCH  11  14
ATOM     12  C   UNL     1       6.221   3.971  13.104  0.00  0.00    +0.000 A 
ATOM     13  C   UNL     1       5.747   4.222  14.426  0.00  0.00    +0.000 A 
ATOM     14  C   UNL     1       6.750   4.960  15.027  0.00  0.00    +0.000 A 
ATOM     15  O   UNL     1       7.653   5.303  14.058  0.00  0.00    +0.000 OA
ATOM     16  N   UNL     1       7.327   4.686  12.859  0.00  0.00    +0.000 NA
BRANCH  12  18
ATOM     17  C   UNL     1       4.552   3.063  11.319  0.00  0.00    +0.000 C 
ATOM     18  C   UNL     1       5.785   2.839  12.200  0.00  0.00    +0.000 C 
ATOM     19  C   UNL     1       6.984   2.452  11.323  0.00  0.00    +0.000 C 
ENDBRANCH  12  18
ENDBRANCH  11  14
ENDBRANCH   9  11
ENDBRANCH   8   9
ENDBRANCH   1   8
BRANCH   7  20
ATOM     20  O   UNL     1       2.912   8.181  18.245  0.00  0.00    +0.000 OA
BRANCH  20  21
ATOM     21  C   UNL     1       1.633   8.563  17.741  0.00  0.00    +0.000 C 
BRANCH  21  22
ATOM     22  C   UNL     1       1.374   9.978  18.292  0.00  0.00    +0.000 C 
BRANCH  22  23
ATOM     23  O   UNL     1       2.097  10.941  17.534  0.00  0.00    +0.000 OA
ATOM     24  H   UNL     1       1.469  11.599  17.197  0.00  0.00    +0.000 HD
ENDBRANCH  22  23
BRANCH  22  25
ATOM     25  C   UNL     1      -0.165  10.256  18.332  0.00  0.00    +0.000 C 
BRANCH  25  26
ATOM     26  N   UNL     1      -0.884  10.522  19.625  0.00  0.00    +0.000 NA
ATOM     27  C   UNL     1       0.086  10.351  20.707  0.00  0.00    +0.000 C 
ATOM     28  C   UNL     1      -0.401  10.309  22.158  0.00  0.00    +0.000 C 
ATOM     29  C   UNL     1      -0.873  11.629  22.739  0.00  0.00    +0.000 C 
ATOM     30  C   UNL     1      -2.185  12.104  22.154  0.00  0.00    +0.000 C 
ATOM     31  C   UNL     1      -2.110  12.628  20.740  0.00  0.00    +0.000 C 
ATOM     32  C   UNL     1      -1.674  11.747  19.555  0.00  0.00    +0.000 C 
ENDBRANCH  25  26
ENDBRANCH  22  25
ENDBRANCH  21  22
ENDBRANCH  20  21
ENDBRANCH   7  20
TORSDOF 11
ENDMDL
MODEL 3
REMARK VINA RESULT:      -7.8      1.497      1.913
REMARK  Name = 
REMARK  13 active torsions:
REMARK  status: ('A' for Active; 'I' for Inactive)
REMARK    1  A    between atoms: C_1  and  C_2
REMARK    2  A    between atoms: C_2  and  C_3
REMARK    3  A    between atoms: C_2  and  C_4
REMARK    4  A    between atoms: C_6  and  C_7
REMARK    5  A    between atoms: C_7  and  N_8
REMARK    6  A    between atoms: N_8  and  C_9
REMARK    7  A    between atoms: C_9  and  C_10
REMARK    8  A    between atoms: C_16  and  O_17
REMARK    9  A    between atoms: O_17  and  C_18
REMARK   10  A    between atoms: C_18  and  C_19
REMARK   11  A    between atoms: C_19  and  O_20
REMARK   12  A    between atoms: C_19  and  C_21
REMARK   13  A    between atoms: C_21  and  N_22
REMARK                            x       y       z     vdW  Elec       q    Type
REMARK                         _______ _______ _______ _____ _____    ______ ____
ROOT
ATOM      1  C   UNL     1       4.115   4.919  19.237  0.00  0.00    +0.000 A 
ATOM      2  C   UNL     1       3.805   3.858  20.102  0.00  0.00    +0.000 A 
ATOM      3  C   UNL     1       2.529   3.718  20.663  0.00  0.00    +0.000 A 
ATOM      4 CL   UNL     1       2.215   2.410  21.735  0.00  0.00    +0.000 Cl
ATOM      5  C   UNL     1       1.522   4.633  20.384  0.00  0.00    +0.000 A 
ATOM      6  C   UNL     1       1.793   5.699  19.540  0.00  0.00    +0.000 A 
ATOM      7  C   UNL     1       3.069   5.839  18.965  0.00  0.00    +0.000 A 
ENDROOT
BRANCH   1   8
ATOM      8  C   UNL     1       5.510   5.094  18.652  0.00  0.00    +0.000 C 
BRANCH   8   9
ATOM      9  N   UNL     1       6.041   4.071  17.712  0.00  0.00    +0.000 NA
ATOM     10  H   UNL     1       6.386   3.313  18.305  0.00  0.00    +0.000 HD
BRANCH   9  11
ATOM     11  C   UNL     1       7.209   4.519  16.914  0.00  0.00    +0.000 C 
BRANCH  11  14
ATOM     12  C   UNL     1       6.516   4.372  13.266  0.00  0.00    +0.000 A 
ATOM     13  C   UNL     1       6.013   4.051  14.561  0.00  0.00    +0.000 A 
ATOM     14  C   UNL     1       6.921   4.610  15.441  0.00  0.00    +0.000 A 
ATOM     15  O   UNL     1       7.780   5.389  14.715  0.00  0.00    +0.000 OA
ATOM     16  N   UNL     1       7.532   5.241  13.358  0.00  0.00    +0.000 NA
BRANCH  12  18
ATOM     17  C   UNL     1       7.048   2.378  11.673  0.00  0.00    +0.000 C 
ATOM     18  C   UNL     1       6.217   3.627  11.983  0.00  0.00    +0.000 C 
ATOM     19  C   UNL     1       4.725   3.268  11.985  0.00  0.00    +0.000 C 
ENDBRANCH  12  18
ENDBRANCH  11  14
ENDBRANCH   9  11
ENDBRANCH   8   9
ENDBRANCH   1   8
BRANCH   7  20
ATOM     20  O   UNL     1       3.262   7.034  18.339  0.00  0.00    +0.000 OA
BRANCH  20  21
ATOM     21  C   UNL     1       2.082   7.688  17.871  0.00  0.00    +0.000 C 
BRANCH  21  22
ATOM     22  C   UNL     1       2.175   9.136  18.389  0.00  0.00    +0.000 C 
BRANCH  22  23
ATOM     23  O   UNL     1       2.164  10.050  17.298  0.00  0.00    +0.000 OA
ATOM     24  H   UNL     1       2.473  10.912  17.620  0.00  0.00    +0.000 HD
ENDBRANCH  22  23
BRANCH  22  25
ATOM     25  C   UNL     1       1.034   9.400  19.425  0.00  0.00    +0.000 C 
BRANCH  25  26
ATOM     26  N   UNL     1       0.178  10.634  19.358  0.00  0.00    +0.000 NA
ATOM     27  C   UNL     1      -1.045  10.278  18.636  0.00  0.00    +0.000 C 
ATOM     28  C   UNL     1      -2.004  11.383  18.186  0.00  0.00    +0.000 C 
ATOM     29  C   UNL     1      -2.805  12.056  19.285  0.00  0.00    +0.000 C 
ATOM     30  C   UNL     1      -1.964  12.942  20.180  0.00  0.00    +0.000 C 
ATOM     31  C   UNL     1      -1.054  12.214  21.138  0.00  0.00    +0.000 C 
ATOM     32  C   UNL     1       0.079  11.288  20.659  0.00  0.00    +0.000 C 
ENDBRANCH  25  26
ENDBRANCH  22  25
ENDBRANCH  21  22
ENDBRANCH  20  21
ENDBRANCH   7  20
TORSDOF 11
ENDMDL
MODEL 4
REMARK VINA RESULT:      -7.7      1.580      1.851
REMARK  Name = 
REMARK  13 active torsions:
REMARK  status: ('A' for Active; 'I' for Inactive)
REMARK    1  A    between atoms: C_1  and  C_2
REMARK    2  A    between atoms: C_2  and  C_3
REMARK    3  A    between atoms: C_2  and  C_4
REMARK    4  A    between atoms: C_6  and  C_7
REMARK    5  A    between atoms: C_7  and  N_8
REMARK    6  A    between atoms: N_8  and  C_9
REMARK    7  A    between atoms: C_9  and  C_10
REMARK    8  A    between atoms: C_16  and  O_17
REMARK    9  A    between atoms: O_17  and  C_18
REMARK   10  A    between atoms: C_18  and  C_19
REMARK   11  A    between atoms: C_19  and  O_20
REMARK   12  A    between atoms: C_19  and  C_21
REMARK   13  A    between atoms: C_21  and  N_22
REMARK                            x       y       z     vdW  Elec       q    Type
REMARK                         _______ _______ _______ _____ _____    ______ ____
ROOT
ATOM      1  C   UNL     1       4.165   5.238  18.172  0.00  0.00    +0.000 A 
ATOM      2  C   UNL     1       3.909   3.860  18.076  0.00  0.00    +0.000 A 
ATOM      3  C   UNL     1       2.607   3.364  17.931  0.00  0.00    +0.000 A 
ATOM      4 CL   UNL     1       2.354   1.665  17.842  0.00  0.00    +0.000 Cl
ATOM      5  C   UNL     1       1.517   4.224  17.882  0.00  0.00    +0.000 A 
ATOM      6  C   UNL     1       1.730   5.591  17.981  0.00  0.00    +0.000 A 
ATOM      7  C   UNL     1       3.035   6.095  18.116  0.00  0.00    +0.000 A 
ENDROOT
BRANCH   1   8
ATOM      8  C   UNL     1       5.575   5.779  18.364  0.00  0.00    +0.000 C 
BRANCH   8   9
ATOM      9  N   UNL     1       6.667   4.849  18.760  0.00  0.00    +0.000 NA
ATOM     10  H   UNL     1       7.161   5.322  19.520  0.00  0.00    +0.000 HD
BRANCH   9  11
ATOM     11  C   UNL     1       7.683   4.612  17.707  0.00  0.00    +0.000 C 
BRANCH  11  14
ATOM     12  C   UNL     1       6.428   4.323  14.220  0.00  0.00    +0.000 A 
ATOM     13  C   UNL     1       6.339   3.787  15.539  0.00  0.00    +0.000 A 
ATOM     14  C   UNL     1       7.112   4.630  16.315  0.00  0.00    +0.000 A 
ATOM     15  O   UNL     1       7.455   5.708  15.547  0.00  0.00    +0.000 OA
ATOM     16  N   UNL     1       7.032   5.518  14.239  0.00  0.00    +0.000 NA
BRANCH  12  18
ATOM     17  C   UNL     1       4.789   3.561  12.341  0.00  0.00    +0.000 C 
ATOM     18  C   UNL     1       6.203   3.563  12.931  0.00  0.00    +0.000 C 
ATOM     19  C   UNL     1       7.196   4.099  11.891  0.00  0.00    +0.000 C 
ENDBRANCH  12  18
ENDBRANCH  11  14
ENDBRANCH   9  11
ENDBRANCH   8   9
ENDBRANCH   1   8
BRANCH   7  20
ATOM     20  O   UNL     1       3.083   7.423  18.419  0.00  0.00    +0.000 OA
BRANCH  20  21
ATOM     21  C   UNL     1       2.170   8.257  17.706  0.00  0.00    +0.000 C 
BRANCH  21  22
ATOM     22  C   UNL     1       1.360   9.004  18.782  0.00  0.00    +0.000 C 
BRANCH  22  23
ATOM     23  O   UNL     1       1.614   8.445  20.066  0.00  0.00    +0.000 OA
ATOM     24  H   UNL     1       2.569   8.492  20.236  0.00  0.00    +0.000 HD
ENDBRANCH  22  23
BRANCH  22  25
ATOM     25  C   UNL     1       1.667  10.536  18.706  0.00  0.00    +0.000 C 
BRANCH  25  26
ATOM     26  N   UNL     1       0.593  11.567  18.919  0.00  0.00    +0.000 NA
ATOM     27  C   UNL     1      -0.694  10.909  18.691  0.00  0.00    +0.000 C 
ATOM     28  C   UNL     1      -1.966  11.754  18.587  0.00  0.00    +0.000 C 
ATOM     29  C   UNL     1      -2.466  12.366  19.883  0.00  0.00    +0.000 C 
ATOM     30  C   UNL     1      -1.583  13.483  20.395  0.00  0.00    +0.000 C 
ATOM     31  C   UNL     1      -0.263  13.047  20.983  0.00  0.00    +0.000 C 
ATOM     32  C   UNL     1       0.808  12.315  20.153  0.00  0.00    +0.000 C 
ENDBRANCH  25  26
ENDBRANCH  22  25
ENDBRANCH  21  22
ENDBRANCH  20  21
ENDBRANCH   7  20
TORSDOF 11
ENDMDL
MODEL 5
REMARK VINA RESULT:      -7.7      1.335      1.485
REMARK  Name = 
REMARK  13 active torsions:
REMARK  status: ('A' for Active; 'I' for Inactive)
REMARK    1  A    between atoms: C_1  and  C_2
REMARK    2  A    between atoms: C_2  and  C_3
REMARK    3  A    between atoms: C_2  and  C_4
REMARK    4  A    between atoms: C_6  and  C_7
REMARK    5  A    between atoms: C_7  and  N_8
REMARK    6  A    between atoms: N_8  and  C_9
REMARK    7  A    between atoms: C_9  and  C_10
REMARK    8  A    between atoms: C_16  and  O_17
REMARK    9  A    between atoms: O_17  and  C_18
REMARK   10  A    between atoms: C_18  and  C_19
REMARK   11  A    between atoms: C_19  and  O_20
REMARK   12  A    between atoms: C_19  and  C_21
REMARK   13  A    between atoms: C_21  and  N_22
REMARK                            x       y       z     vdW  Elec       q    Type
REMARK                         _______ _______ _______ _____ _____    ______ ____
ROOT
ATOM      1  C   UNL     1       3.894   4.182  19.361  0.00  0.00    +0.000 A 
ATOM      2  C   UNL     1       3.313   3.467  20.421  0.00  0.00    +0.000 A 
ATOM      3  C   UNL     1       1.943   3.180  20.448  0.00  0.00    +0.000 A 
ATOM      4 CL   UNL     1       1.284   2.321  21.785  0.00  0.00    +0.000 Cl
ATOM      5  C   UNL     1       1.105   3.600  19.422  0.00  0.00    +0.000 A 
ATOM      6  C   UNL     1       1.641   4.315  18.362  0.00  0.00    +0.000 A 
ATOM      7  C   UNL     1       3.018   4.596  18.323  0.00  0.00    +0.000 A 
ENDROOT
BRANCH   1   8
ATOM      8  C   UNL     1       5.377   4.525  19.344  0.00  0.00    +0.000 C 
BRANCH   8   9
ATOM      9  N   UNL     1       6.247   3.954  18.282  0.00  0.00    +0.000 NA
ATOM     10  H   UNL     1       6.975   3.435  18.778  0.00  0.00    +0.000 HD
BRANCH   9  11
ATOM     11  C   UNL     1       6.963   4.965  17.465  0.00  0.00    +0.000 C 
BRANCH  11  14
ATOM     12  C   UNL     1       6.307   4.293  13.869  0.00  0.00    +0.000 A 
ATOM     13  C   UNL     1       5.800   4.145  15.193  0.00  0.00    +0.000 A 
ATOM     14  C   UNL     1       6.687   4.842  15.992  0.00  0.00    +0.000 A 
ATOM     15  O   UNL     1       7.535   5.532  15.170  0.00  0.00    +0.000 OA
ATOM     16  N   UNL     1       7.302   5.189  13.845  0.00  0.00    +0.000 NA
BRANCH  12  18
ATOM     17  C   UNL     1       4.676   3.474  12.007  0.00  0.00    +0.000 C 
ATOM     18  C   UNL     1       6.037   3.369  12.702  0.00  0.00    +0.000 C 
ATOM     19  C   UNL     1       7.159   3.574  11.673  0.00  0.00    +0.000 C 
ENDBRANCH  12  18
ENDBRANCH  11  14
ENDBRANCH   9  11
ENDBRANCH   8   9
ENDBRANCH   1   8
BRANCH   7  20
ATOM     20  O   UNL     1       3.371   5.483  17.350  0.00  0.00    +0.000 OA
BRANCH  20  21
ATOM     21  C   UNL     1       3.673   6.805  17.794  0.00  0.00    +0.000 C 
BRANCH  21  22
ATOM     22  C   UNL     1       2.470   7.242  18.651  0.00  0.00    +0.000 C 
BRANCH  22  23
ATOM     23  O   UNL     1       2.814   7.214  20.032  0.00  0.00    +0.000 OA
ATOM     24  H   UNL     1       1.997   7.292  20.551  0.00  0.00    +0.000 HD
ENDBRANCH  22  23
BRANCH  22  25
ATOM     25  C   UNL     1       1.959   8.640  18.172  0.00  0.00    +0.000 C 
BRANCH  25  26
ATOM     26  N   UNL     1       1.353   9.629  19.129  0.00  0.00    +0.000 NA
ATOM     27  C   UNL     1       0.433  10.469  18.362  0.00  0.00    +0.000 C 
ATOM     28  C   UNL     1      -0.150  11.731  19.004  0.00  0.00    +0.000 C 
ATOM     29  C   UNL     1      -1.194  11.506  20.082  0.00  0.00    +0.000 C 
ATOM     30  C   UNL     1      -0.619  10.938  21.362  0.00  0.00    +0.000 C 
ATOM     31  C   UNL     1      -0.213   9.486  21.298  0.00  0.00    +0.000 C 
ATOM     32  C   UNL     1       0.884   8.976  20.346  0.00  0.00    +0.000 C 
ENDBRANCH  25  26
ENDBRANCH  22  25
ENDBRANCH  21  22
ENDBRANCH  20  21
ENDBRANCH   7  20
TORSDOF 11
ENDMDL
MODEL 6
REMARK VINA RESULT:      -7.5      0.823      1.378
REMARK  Name = 
REMARK  13 active torsions:
REMARK  status: ('A' for Active; 'I' for Inactive)
REMARK    1  A    between atoms: C_1  and  C_2
REMARK    2  A    between atoms: C_2  and  C_3
REMARK    3  A    between atoms: C_2  and  C_4
REMARK    4  A    between atoms: C_6  and  C_7
REMARK    5  A    between atoms: C_7  and  N_8
REMARK    6  A    between atoms: N_8  and  C_9
REMARK    7  A    between atoms: C_9  and  C_10
REMARK    8  A    between atoms: C_16  and  O_17
REMARK    9  A    between atoms: O_17  and  C_18
REMARK   10  A    between atoms: C_18  and  C_19
REMARK   11  A    between atoms: C_19  and  O_20
REMARK   12  A    between atoms: C_19  and  C_21
REMARK   13  A    between atoms: C_21  and  N_22
REMARK                            x       y       z     vdW  Elec       q    Type
REMARK                         _______ _______ _______ _____ _____    ______ ____
ROOT
ATOM      1  C   UNL     1       4.047   5.030  18.614  0.00  0.00    +0.000 A 
ATOM      2  C   UNL     1       3.681   3.676  18.690  0.00  0.00    +0.000 A 
ATOM      3  C   UNL     1       2.353   3.265  18.523  0.00  0.00    +0.000 A 
ATOM      4 CL   UNL     1       1.962   1.594  18.651  0.00  0.00    +0.000 Cl
ATOM      5  C   UNL     1       1.344   4.188  18.280  0.00  0.00    +0.000 A 
ATOM      6  C   UNL     1       1.666   5.535  18.206  0.00  0.00    +0.000 A 
ATOM      7  C   UNL     1       2.999   5.953  18.361  0.00  0.00    +0.000 A 
ENDROOT
BRANCH   1   8
ATOM      8  C   UNL     1       5.484   5.484  18.828  0.00  0.00    +0.000 C 
BRANCH   8   9
ATOM      9  N   UNL     1       6.580   4.826  18.068  0.00  0.00    +0.000 NA
ATOM     10  H   UNL     1       7.300   4.612  18.761  0.00  0.00    +0.000 HD
BRANCH   9  11
ATOM     11  C   UNL     1       7.237   5.695  17.062  0.00  0.00    +0.000 C 
BRANCH  11  14
ATOM     12  C   UNL     1       6.404   4.400  13.678  0.00  0.00    +0.000 A 
ATOM     13  C   UNL     1       5.910   4.612  14.999  0.00  0.00    +0.000 A 
ATOM     14  C   UNL     1       6.912   5.312  15.643  0.00  0.00    +0.000 A 
ATOM     15  O   UNL     1       7.839   5.674  14.704  0.00  0.00    +0.000 OA
ATOM     16  N   UNL     1       7.526   5.104  13.478  0.00  0.00    +0.000 NA
BRANCH  12  18
ATOM     17  C   UNL     1       4.664   3.515  11.951  0.00  0.00    +0.000 C 
ATOM     18  C   UNL     1       5.968   3.307  12.727  0.00  0.00    +0.000 C 
ATOM     19  C   UNL     1       7.119   3.054  11.744  0.00  0.00    +0.000 C 
ENDBRANCH  12  18
ENDBRANCH  11  14
ENDBRANCH   9  11
ENDBRANCH   8   9
ENDBRANCH   1   8
BRANCH   7  20
ATOM     20  O   UNL     1       3.142   7.304  18.483  0.00  0.00    +0.000 OA
BRANCH  20  21
ATOM     21  C   UNL     1       2.571   8.085  17.433  0.00  0.00    +0.000 C 
BRANCH  21  22
ATOM     22  C   UNL     1       2.047   9.368  18.106  0.00  0.00    +0.000 C 
BRANCH  22  23
ATOM     23  O   UNL     1       2.635  10.515  17.504  0.00  0.00    +0.000 OA
ATOM     24  H   UNL     1       2.756  11.192  18.190  0.00  0.00    +0.000 HD
ENDBRANCH  22  23
BRANCH  22  25
ATOM     25  C   UNL     1       0.484   9.384  18.067  0.00  0.00    +0.000 C 
BRANCH  25  26
ATOM     26  N   UNL     1      -0.327   9.943  19.203  0.00  0.00    +0.000 NA
ATOM     27  C   UNL     1       0.442   9.738  20.431  0.00  0.00    +0.000 C 
ATOM     28  C   UNL     1      -0.225   9.974  21.788  0.00  0.00    +0.000 C 
ATOM     29  C   UNL     1      -0.493  11.422  22.154  0.00  0.00    +0.000 C 
ATOM     30  C   UNL     1      -1.598  12.051  21.332  0.00  0.00    +0.000 C 
ATOM     31  C   UNL     1      -1.238  12.365  19.901  0.00  0.00    +0.000 C 
ATOM     32  C   UNL     1      -0.839  11.273  18.891  0.00  0.00    +0.000 C 
ENDBRANCH  25  26
ENDBRANCH  22  25
ENDBRANCH  21  22
ENDBRANCH  20  21
ENDBRANCH   7  20
TORSDOF 11
ENDMDL
MODEL 7
REMARK VINA RESULT:      -7.4      1.402      1.993
REMARK  Name = 
REMARK  13 active torsions:
REMARK  status: ('A' for Active; 'I' for Inactive)
REMARK    1  A    between atoms: C_1  and  C_2
REMARK    2  A    between atoms: C_2  and  C_3
REMARK    3  A    between atoms: C_2  and  C_4
REMARK    4  A    between atoms: C_6  and  C_7
REMARK    5  A    between atoms: C_7  and  N_8
REMARK    6  A    between atoms: N_8  and  C_9
REMARK    7  A    between atoms: C_9  and  C_10
REMARK    8  A    between atoms: C_16  and  O_17
REMARK    9  A    between atoms: O_17  and  C_18
REMARK   10  A    between atoms: C_18  and  C_19
REMARK   11  A    between atoms: C_19  and  O_20
REMARK   12  A    between atoms: C_19  and  C_21
REMARK   13  A    between atoms: C_21  and  N_22
REMARK                            x       y       z     vdW  Elec       q    Type
REMARK                         _______ _______ _______ _____ _____    ______ ____
ROOT
ATOM      1  C   UNL     1       3.783   5.656  18.644  0.00  0.00    +0.000 A 
ATOM      2  C   UNL     1       3.865   4.384  19.235  0.00  0.00    +0.000 A 
ATOM      3  C   UNL     1       3.006   4.000  20.271  0.00  0.00    +0.000 A 
ATOM      4 CL   UNL     1       3.170   2.437  20.971  0.00  0.00    +0.000 Cl
ATOM      5  C   UNL     1       2.038   4.871  20.757  0.00  0.00    +0.000 A 
ATOM      6  C   UNL     1       1.932   6.138  20.204  0.00  0.00    +0.000 A 
ATOM      7  C   UNL     1       2.784   6.526  19.155  0.00  0.00    +0.000 A 
ENDROOT
BRANCH   1   8
ATOM      8  C   UNL     1       4.737   6.090  17.540  0.00  0.00    +0.000 C 
BRANCH   8   9
ATOM      9  N   UNL     1       6.195   5.837  17.693  0.00  0.00    +0.000 NA
ATOM     10  H   UNL     1       6.656   6.616  17.220  0.00  0.00    +0.000 HD
BRANCH   9  11
ATOM     11  C   UNL     1       6.680   4.611  17.013  0.00  0.00    +0.000 C 
BRANCH  11  14
ATOM     12  C   UNL     1       6.444   4.430  13.308  0.00  0.00    +0.000 A 
ATOM     13  C   UNL     1       5.762   4.170  14.533  0.00  0.00    +0.000 A 
ATOM     14  C   UNL     1       6.587   4.688  15.514  0.00  0.00    +0.000 A 
ATOM     15  O   UNL     1       7.581   5.394  14.893  0.00  0.00    +0.000 OA
ATOM     16  N   UNL     1       7.496   5.233  13.517  0.00  0.00    +0.000 NA
BRANCH  12  18
ATOM     17  C   UNL     1       7.123   2.433  11.776  0.00  0.00    +0.000 C 
ATOM     18  C   UNL     1       6.261   3.678  12.008  0.00  0.00    +0.000 C 
ATOM     19  C   UNL     1       4.776   3.308  11.885  0.00  0.00    +0.000 C 
ENDBRANCH  12  18
ENDBRANCH  11  14
ENDBRANCH   9  11
ENDBRANCH   8   9
ENDBRANCH   1   8
BRANCH   7  20
ATOM     20  O   UNL     1       2.720   7.854  18.857  0.00  0.00    +0.000 OA
BRANCH  20  21
ATOM     21  C   UNL     1       1.894   8.202  17.745  0.00  0.00    +0.000 C 
BRANCH  21  22
ATOM     22  C   UNL     1       1.240   9.546  18.116  0.00  0.00    +0.000 C 
BRANCH  22  23
ATOM     23  O   UNL     1      -0.040   9.655  17.506  0.00  0.00    +0.000 OA
ATOM     24  H   UNL     1      -0.002   9.223  16.637  0.00  0.00    +0.000 HD
ENDBRANCH  22  23
BRANCH  22  25
ATOM     25  C   UNL     1       1.196   9.700  19.672  0.00  0.00    +0.000 C 
BRANCH  25  26
ATOM     26  N   UNL     1       0.037  10.360  20.366  0.00  0.00    +0.000 NA
ATOM     27  C   UNL     1       0.214  10.152  21.804  0.00  0.00    +0.000 C 
ATOM     28  C   UNL     1      -0.931  10.490  22.762  0.00  0.00    +0.000 C 
ATOM     29  C   UNL     1      -1.209  11.967  22.972  0.00  0.00    +0.000 C 
ATOM     30  C   UNL     1      -1.823  12.637  21.761  0.00  0.00    +0.000 C 
ATOM     31  C   UNL     1      -0.883  12.866  20.604  0.00  0.00    +0.000 C 
ATOM     32  C   UNL     1      -0.193  11.709  19.858  0.00  0.00    +0.000 C 
ENDBRANCH  25  26
ENDBRANCH  22  25
ENDBRANCH  21  22
ENDBRANCH  20  21
ENDBRANCH   7  20
TORSDOF 11
ENDMDL
MODEL 8
REMARK VINA RESULT:      -7.4      0.926      1.177
REMARK  Name = 
REMARK  13 active torsions:
REMARK  status: ('A' for Active; 'I' for Inactive)
REMARK    1  A    between atoms: C_1  and  C_2
REMARK    2  A    between atoms: C_2  and  C_3
REMARK    3  A    between atoms: C_2  and  C_4
REMARK    4  A    between atoms: C_6  and  C_7
REMARK    5  A    between atoms: C_7  and  N_8
REMARK    6  A    between atoms: N_8  and  C_9
REMARK    7  A    between atoms: C_9  and  C_10
REMARK    8  A    between atoms: C_16  and  O_17
REMARK    9  A    between atoms: O_17  and  C_18
REMARK   10  A    between atoms: C_18  and  C_19
REMARK   11  A    between atoms: C_19  and  O_20
REMARK   12  A    between atoms: C_19  and  C_21
REMARK   13  A    between atoms: C_21  and  N_22
REMARK                            x       y       z     vdW  Elec       q    Type
REMARK                         _______ _______ _______ _____ _____    ______ ____
ROOT
ATOM      1  C   UNL     1       4.425   5.075  18.074  0.00  0.00    +0.000 A 
ATOM      2  C   UNL     1       4.607   3.726  18.417  0.00  0.00    +0.000 A 
ATOM      3  C   UNL     1       3.536   2.824  18.435  0.00  0.00    +0.000 A 
ATOM      4 CL   UNL     1       3.815   1.187  18.886  0.00  0.00    +0.000 Cl
ATOM      5  C   UNL     1       2.248   3.237  18.118  0.00  0.00    +0.000 A 
ATOM      6  C   UNL     1       2.029   4.564  17.782  0.00  0.00    +0.000 A 
ATOM      7  C   UNL     1       3.101   5.472  17.750  0.00  0.00    +0.000 A 
ENDROOT
BRANCH   1   8
ATOM      8  C   UNL     1       5.581   6.067  18.085  0.00  0.00    +0.000 C 
BRANCH   8   9
ATOM      9  N   UNL     1       6.966   5.577  17.855  0.00  0.00    +0.000 NA
ATOM     10  H   UNL     1       7.412   6.288  17.271  0.00  0.00    +0.000 HD
BRANCH   9  11
ATOM     11  C   UNL     1       7.050   4.313  17.083  0.00  0.00    +0.000 C 
BRANCH  11  14
ATOM     12  C   UNL     1       6.595   4.425  13.395  0.00  0.00    +0.000 A 
ATOM     13  C   UNL     1       6.006   4.023  14.630  0.00  0.00    +0.000 A 
ATOM     14  C   UNL     1       6.860   4.508  15.603  0.00  0.00    +0.000 A 
ATOM     15  O   UNL     1       7.771   5.324  14.990  0.00  0.00    +0.000 OA
ATOM     16  N   UNL     1       7.610   5.272  13.613  0.00  0.00    +0.000 NA
BRANCH  12  18
ATOM     17  C   UNL     1       7.282   2.601  11.665  0.00  0.00    +0.000 C 
ATOM     18  C   UNL     1       6.375   3.774  12.048  0.00  0.00    +0.000 C 
ATOM     19  C   UNL     1       4.905   3.336  11.973  0.00  0.00    +0.000 C 
ENDBRANCH  12  18
ENDBRANCH  11  14
ENDBRANCH   9  11
ENDBRANCH   8   9
ENDBRANCH   1   8
BRANCH   7  20
ATOM     20  O   UNL     1       2.717   6.774  17.620  0.00  0.00    +0.000 OA
BRANCH  20  21
ATOM     21  C   UNL     1       2.279   7.415  18.818  0.00  0.00    +0.000 C 
BRANCH  21  22
ATOM     22  C   UNL     1       2.200   8.916  18.482  0.00  0.00    +0.000 C 
BRANCH  22  23
ATOM     23  O   UNL     1       2.443   9.123  17.095  0.00  0.00    +0.000 OA
ATOM     24  H   UNL     1       3.323   9.523  16.996  0.00  0.00    +0.000 HD
ENDBRANCH  22  23
BRANCH  22  25
ATOM     25  C   UNL     1       0.827   9.492  18.959  0.00  0.00    +0.000 C 
BRANCH  25  26
ATOM     26  N   UNL     1       0.616   9.957  20.374  0.00  0.00    +0.000 NA
ATOM     27  C   UNL     1      -0.236  11.146  20.319  0.00  0.00    +0.000 C 
ATOM     28  C   UNL     1      -0.426  11.997  21.577  0.00  0.00    +0.000 C 
ATOM     29  C   UNL     1      -1.284  11.387  22.670  0.00  0.00    +0.000 C 
ATOM     30  C   UNL     1      -0.616  10.224  23.374  0.00  0.00    +0.000 C 
ATOM     31  C   UNL     1      -0.533   8.947  22.574  0.00  0.00    +0.000 C 
ATOM     32  C   UNL     1       0.249   8.851  21.251  0.00  0.00    +0.000 C 
ENDBRANCH  25  26
ENDBRANCH  22  25
ENDBRANCH  21  22
ENDBRANCH  20  21
ENDBRANCH   7  20
TORSDOF 11
ENDMDL
MODEL 9
REMARK VINA RESULT:      -7.4      1.404      1.519
REMARK  Name = 
REMARK  13 active torsions:
REMARK  status: ('A' for Active; 'I' for Inactive)
REMARK    1  A    between atoms: C_1  and  C_2
REMARK    2  A    between atoms: C_2  and  C_3
REMARK    3  A    between atoms: C_2  and  C_4
REMARK    4  A    between atoms: C_6  and  C_7
REMARK    5  A    between atoms: C_7  and  N_8
REMARK    6  A    between atoms: N_8  and  C_9
REMARK    7  A    between atoms: C_9  and  C_10
REMARK    8  A    between atoms: C_16  and  O_17
REMARK    9  A    between atoms: O_17  and  C_18
REMARK   10  A    between atoms: C_18  and  C_19
REMARK   11  A    between atoms: C_19  and  O_20
REMARK   12  A    between atoms: C_19  and  C_21
REMARK   13  A    between atoms: C_21  and  N_22
REMARK                            x       y       z     vdW  Elec       q    Type
REMARK                         _______ _______ _______ _____ _____    ______ ____
ROOT
ATOM      1  C   UNL     1       3.776   4.928  19.672  0.00  0.00    +0.000 A 
ATOM      2  C   UNL     1       3.316   3.840  20.432  0.00  0.00    +0.000 A 
ATOM      3  C   UNL     1       1.978   3.740  20.834  0.00  0.00    +0.000 A 
ATOM      4 CL   UNL     1       1.478   2.397  21.785  0.00  0.00    +0.000 Cl
ATOM      5  C   UNL     1       1.055   4.723  20.496  0.00  0.00    +0.000 A 
ATOM      6  C   UNL     1       1.475   5.815  19.753  0.00  0.00    +0.000 A 
ATOM      7  C   UNL     1       2.814   5.916  19.336  0.00  0.00    +0.000 A 
ENDROOT
BRANCH   1   8
ATOM      8  C   UNL     1       5.236   5.057  19.261  0.00  0.00    +0.000 C 
BRANCH   8   9
ATOM      9  N   UNL     1       5.818   4.072  18.311  0.00  0.00    +0.000 NA
ATOM     10  H   UNL     1       6.709   4.476  18.013  0.00  0.00    +0.000 HD
BRANCH   9  11
ATOM     11  C   UNL     1       5.031   3.880  17.069  0.00  0.00    +0.000 C 
BRANCH  11  14
ATOM     12  C   UNL     1       6.842   4.606  13.905  0.00  0.00    +0.000 A 
ATOM     13  C   UNL     1       5.616   4.141  14.465  0.00  0.00    +0.000 A 
ATOM     14  C   UNL     1       5.761   4.318  15.829  0.00  0.00    +0.000 A 
ATOM     15  O   UNL     1       6.906   5.036  16.037  0.00  0.00    +0.000 OA
ATOM     16  N   UNL     1       7.584   5.214  14.839  0.00  0.00    +0.000 NA
BRANCH  12  18
ATOM     17  C   UNL     1       6.695   3.111  11.773  0.00  0.00    +0.000 C 
ATOM     18  C   UNL     1       7.418   4.207  12.564  0.00  0.00    +0.000 C 
ATOM     19  C   UNL     1       7.529   5.475  11.705  0.00  0.00    +0.000 C 
ENDBRANCH  12  18
ENDBRANCH  11  14
ENDBRANCH   9  11
ENDBRANCH   8   9
ENDBRANCH   1   8
BRANCH   7  20
ATOM     20  O   UNL     1       3.136   7.130  18.808  0.00  0.00    +0.000 OA
BRANCH  20  21
ATOM     21  C   UNL     1       2.165   7.703  17.931  0.00  0.00    +0.000 C 
BRANCH  21  22
ATOM     22  C   UNL     1       1.976   9.154  18.411  0.00  0.00    +0.000 C 
BRANCH  22  23
ATOM     23  O   UNL     1       2.273  10.064  17.358  0.00  0.00    +0.000 OA
ATOM     24  H   UNL     1       1.494  10.128  16.782  0.00  0.00    +0.000 HD
ENDBRANCH  22  23
BRANCH  22  25
ATOM     25  C   UNL     1       0.535   9.335  18.993  0.00  0.00    +0.000 C 
BRANCH  25  26
ATOM     26  N   UNL     1       0.295  10.041  20.298  0.00  0.00    +0.000 NA
ATOM     27  C   UNL     1      -0.792  10.997  20.083  0.00  0.00    +0.000 C 
ATOM     28  C   UNL     1      -1.101  12.044  21.156  0.00  0.00    +0.000 C 
ATOM     29  C   UNL     1      -1.758  11.525  22.421  0.00  0.00    +0.000 C 
ATOM     30  C   UNL     1      -0.828  10.697  23.282  0.00  0.00    +0.000 C 
ATOM     31  C   UNL     1      -0.511   9.321  22.750  0.00  0.00    +0.000 C 
ATOM     32  C   UNL     1       0.212   9.099  21.409  0.00  0.00    +0.000 C 
ENDBRANCH  25  26
ENDBRANCH  22  25
ENDBRANCH  21  22
ENDBRANCH  20  21
ENDBRANCH   7  20
TORSDOF 11
ENDMDL
