MODEL 1
REMARK VINA RESULT:      -7.1      0.000      0.000
REMARK  Name = 
REMARK  8 active torsions:
REMARK  status: ('A' for Active; 'I' for Inactive)
REMARK    1  A    between atoms: C_1  and  O_2
REMARK    2  A    between atoms: O_2  and  C_3
REMARK    3  A    between atoms: C_3  and  C_4
REMARK    4  A    between atoms: C_6  and  C_7
REMARK    5  A    between atoms: C_7  and  C_8
REMARK    6  A    between atoms: C_8  and  C_9
REMARK    7  A    between atoms: C_9  and  N_10
REMARK    8  A    between atoms: N_15  and  C_16
REMARK                            x       y       z     vdW  Elec       q    Type
REMARK                         _______ _______ _______ _____ _____    ______ ____
ROOT
ATOM      1  C   UNL     1       5.317   5.931  17.042  0.00  0.00    +0.000 A 
ATOM      2  N   UNL     1       4.618   4.766  17.223  0.00  0.00    +0.000 NA
ATOM      3  C   UNL     1       3.436   5.177  17.646  0.00  0.00    +0.000 A 
ATOM      4  N   UNL     1       3.462   6.560  17.800  0.00  0.00    +0.000 N 
ATOM      5  N   UNL     1       4.604   7.038  17.251  0.00  0.00    +0.000 NA
ENDROOT
BRANCH   4   6
ATOM      6  C   UNL     1       2.588   7.466  18.456  0.00  0.00    +0.000 A 
ATOM      7  C   UNL     1       2.255   7.333  19.803  0.00  0.00    +0.000 A 
ATOM      8  C   UNL     1       1.470   8.322  20.378  0.00  0.00    +0.000 A 
ATOM      9  N   UNL     1       0.995   9.395  19.713  0.00  0.00    +0.000 NA
ATOM     10  C   UNL     1       1.335   9.505  18.412  0.00  0.00    +0.000 A 
ATOM     11  C   UNL     1       2.128   8.585  17.750  0.00  0.00    +0.000 A 
ENDBRANCH   4   6
BRANCH   1  12
ATOM     12  C   UNL     1       6.773   5.986  16.702  0.00  0.00    +0.000 C 
BRANCH  12  14
ATOM     13  C   UNL     1       7.649   5.880  18.920  0.00  0.00    +0.000 C 
ATOM     14  O   UNL     1       7.588   6.621  17.706  0.00  0.00    +0.000 OA
ENDBRANCH  12  14
ENDBRANCH   1  12
BRANCH   3  15
ATOM     15  C   UNL     1       2.226   4.312  17.842  0.00  0.00    +0.000 C 
BRANCH  15  16
ATOM     16  C   UNL     1       2.401   2.855  17.398  0.00  0.00    +0.000 C 
BRANCH  16  17
ATOM     17  C   UNL     1       3.026   1.952  18.466  0.00  0.00    +0.000 C 
BRANCH  17  18
ATOM     18  N   UNL     1       2.583   2.318  19.797  0.00  0.00    +0.000 N 
ATOM     19  C   UNL     1       3.352   2.643  20.870  0.00  0.00    +0.000 A 
ATOM     20  N   UNL     1       2.580   2.905  21.900  0.00  0.00    +0.000 NA
ATOM     21  C   UNL     1       1.324   2.731  21.392  0.00  0.00    +0.000 A 
ATOM     22  N   UNL     1       1.273   2.359  20.108  0.00  0.00    +0.000 NA
ENDBRANCH  17  18
ENDBRANCH  16  17
ENDBRANCH  15  16
ENDBRANCH   3  15
TORSDOF 7
ENDMDL
MODEL 2
REMARK VINA RESULT:      -7.0      0.410      1.084
REMARK  Name = 
REMARK  8 active torsions:
REMARK  status: ('A' for Active; 'I' for Inactive)
REMARK    1  A    between atoms: C_1  and  O_2
REMARK    2  A    between atoms: O_2  and  C_3
REMARK    3  A    between atoms: C_3  and  C_4
REMARK    4  A    between atoms: C_6  and  C_7
REMARK    5  A    between atoms: C_7  and  C_8
REMARK    6  A    between atoms: C_8  and  C_9
REMARK    7  A    between atoms: C_9  and  N_10
REMARK    8  A    between atoms: N_15  and  C_16
REMARK                            x       y       z     vdW  Elec       q    Type
REMARK                         _______ _______ _______ _____ _____    ______ ____
ROOT
ATOM      1  C   UNL     1       5.259   5.871  16.971  0.00  0.00    +0.000 A 
ATOM      2  N   UNL     1       4.525   4.744  17.232  0.00  0.00    +0.000 NA
ATOM      3  C   UNL     1       3.378   5.220  17.683  0.00  0.00    +0.000 A 
ATOM      4  N   UNL     1       3.463   6.606  17.774  0.00  0.00    +0.000 N 
ATOM      5  N   UNL     1       4.598   7.013  17.159  0.00  0.00    +0.000 NA
ENDROOT
BRANCH   4   6
ATOM      6  C   UNL     1       2.651   7.574  18.422  0.00  0.00    +0.000 A 
ATOM      7  C   UNL     1       2.103   8.658  17.738  0.00  0.00    +0.000 A 
ATOM      8  C   UNL     1       1.246   9.498  18.435  0.00  0.00    +0.000 A 
ATOM      9  N   UNL     1       0.923   9.341  19.735  0.00  0.00    +0.000 NA
ATOM     10  C   UNL     1       1.461   8.281  20.374  0.00  0.00    +0.000 A 
ATOM     11  C   UNL     1       2.310   7.375  19.765  0.00  0.00    +0.000 A 
ENDBRANCH   4   6
BRANCH   1  12
ATOM     12  C   UNL     1       6.701   5.854  16.571  0.00  0.00    +0.000 C 
BRANCH  12  14
ATOM     13  C   UNL     1       7.913   7.173  18.150  0.00  0.00    +0.000 C 
ATOM     14  O   UNL     1       7.397   7.089  16.826  0.00  0.00    +0.000 OA
ENDBRANCH  12  14
ENDBRANCH   1  12
BRANCH   3  15
ATOM     15  C   UNL     1       2.145   4.413  17.966  0.00  0.00    +0.000 C 
BRANCH  15  16
ATOM     16  C   UNL     1       2.196   2.966  17.462  0.00  0.00    +0.000 C 
BRANCH  16  17
ATOM     17  C   UNL     1       2.801   1.980  18.465  0.00  0.00    +0.000 C 
BRANCH  17  18
ATOM     18  N   UNL     1       2.449   2.327  19.829  0.00  0.00    +0.000 N 
ATOM     19  C   UNL     1       3.290   2.575  20.867  0.00  0.00    +0.000 A 
ATOM     20  N   UNL     1       2.589   2.846  21.944  0.00  0.00    +0.000 NA
ATOM     21  C   UNL     1       1.301   2.757  21.500  0.00  0.00    +0.000 A 
ATOM     22  N   UNL     1       1.162   2.430  20.211  0.00  0.00    +0.000 NA
ENDBRANCH  17  18
ENDBRANCH  16  17
ENDBRANCH  15  16
ENDBRANCH   3  15
TORSDOF 7
ENDMDL
MODEL 3
REMARK VINA RESULT:      -7.0      0.668      1.012
REMARK  Name = 
REMARK  8 active torsions:
REMARK  status: ('A' for Active; 'I' for Inactive)
REMARK    1  A    between atoms: C_1  and  O_2
REMARK    2  A    between atoms: O_2  and  C_3
REMARK    3  A    between atoms: C_3  and  C_4
REMARK    4  A    between atoms: C_6  and  C_7
REMARK    5  A    between atoms: C_7  and  C_8
REMARK    6  A    between atoms: C_8  and  C_9
REMARK    7  A    between atoms: C_9  and  N_10
REMARK    8  A    between atoms: N_15  and  C_16
REMARK                            x       y       z     vdW  Elec       q    Type
REMARK                         _______ _______ _______ _____ _____    ______ ____
ROOT
ATOM      1  C   UNL     1       5.487   5.902  17.330  0.00  0.00    +0.000 A 
ATOM      2  N   UNL     1       4.766   4.755  17.532  0.00  0.00    +0.000 NA
ATOM      3  C   UNL     1       3.560   5.197  17.841  0.00  0.00    +0.000 A 
ATOM      4  N   UNL     1       3.588   6.586  17.910  0.00  0.00    +0.000 N 
ATOM      5  N   UNL     1       4.771   7.023  17.418  0.00  0.00    +0.000 NA
ENDROOT
BRANCH   4   6
ATOM      6  C   UNL     1       2.676   7.536  18.442  0.00  0.00    +0.000 A 
ATOM      7  C   UNL     1       2.232   7.480  19.762  0.00  0.00    +0.000 A 
ATOM      8  C   UNL     1       1.418   8.506  20.218  0.00  0.00    +0.000 A 
ATOM      9  N   UNL     1       1.016   9.547  19.459  0.00  0.00    +0.000 NA
ATOM     10  C   UNL     1       1.463   9.584  18.188  0.00  0.00    +0.000 A 
ATOM     11  C   UNL     1       2.293   8.621  17.643  0.00  0.00    +0.000 A 
ENDBRANCH   4   6
BRANCH   1  12
ATOM     12  C   UNL     1       6.964   5.929  17.095  0.00  0.00    +0.000 C 
BRANCH  12  14
ATOM     13  C   UNL     1       7.109   4.917  14.937  0.00  0.00    +0.000 C 
ATOM     14  O   UNL     1       7.337   6.089  15.713  0.00  0.00    +0.000 OA
ENDBRANCH  12  14
ENDBRANCH   1  12
BRANCH   3  15
ATOM     15  C   UNL     1       2.331   4.352  18.001  0.00  0.00    +0.000 C 
BRANCH  15  16
ATOM     16  C   UNL     1       2.435   2.947  17.395  0.00  0.00    +0.000 C 
BRANCH  16  17
ATOM     17  C   UNL     1       2.723   1.849  18.422  0.00  0.00    +0.000 C 
BRANCH  17  18
ATOM     18  N   UNL     1       2.437   2.295  19.772  0.00  0.00    +0.000 N 
ATOM     19  C   UNL     1       3.326   2.638  20.741  0.00  0.00    +0.000 A 
ATOM     20  N   UNL     1       2.678   2.980  21.831  0.00  0.00    +0.000 NA
ATOM     21  C   UNL     1       1.370   2.835  21.466  0.00  0.00    +0.000 A 
ATOM     22  N   UNL     1       1.169   2.405  20.215  0.00  0.00    +0.000 NA
ENDBRANCH  17  18
ENDBRANCH  16  17
ENDBRANCH  15  16
ENDBRANCH   3  15
TORSDOF 7
ENDMDL
MODEL 4
REMARK VINA RESULT:      -6.9      2.502      6.657
REMARK  Name = 
REMARK  8 active torsions:
REMARK  status: ('A' for Active; 'I' for Inactive)
REMARK    1  A    between atoms: C_1  and  O_2
REMARK    2  A    between atoms: O_2  and  C_3
REMARK    3  A    between atoms: C_3  and  C_4
REMARK    4  A    between atoms: C_6  and  C_7
REMARK    5  A    between atoms: C_7  and  C_8
REMARK    6  A    between atoms: C_8  and  C_9
REMARK    7  A    between atoms: C_9  and  N_10
REMARK    8  A    between atoms: N_15  and  C_16
REMARK                            x       y       z     vdW  Elec       q    Type
REMARK                         _______ _______ _______ _____ _____    ______ ____
ROOT
ATOM      1  C   UNL     1       2.076   3.665  18.452  0.00  0.00    +0.000 A 
ATOM      2  N   UNL     1       1.938   5.012  18.660  0.00  0.00    +0.000 NA
ATOM      3  C   UNL     1       2.982   5.530  18.038  0.00  0.00    +0.000 A 
ATOM      4  N   UNL     1       3.776   4.499  17.546  0.00  0.00    +0.000 N 
ATOM      5  N   UNL     1       3.101   3.332  17.668  0.00  0.00    +0.000 NA
ENDROOT
BRANCH   4   6
ATOM      6  C   UNL     1       5.105   4.470  17.046  0.00  0.00    +0.000 A 
ATOM      7  C   UNL     1       5.382   4.421  15.681  0.00  0.00    +0.000 A 
ATOM      8  C   UNL     1       6.710   4.492  15.285  0.00  0.00    +0.000 A 
ATOM      9  N   UNL     1       7.750   4.589  16.139  0.00  0.00    +0.000 NA
ATOM     10  C   UNL     1       7.457   4.641  17.454  0.00  0.00    +0.000 A 
ATOM     11  C   UNL     1       6.167   4.597  17.950  0.00  0.00    +0.000 A 
ENDBRANCH   4   6
BRANCH   1  12
ATOM     12  C   UNL     1       1.204   2.629  19.090  0.00  0.00    +0.000 C 
BRANCH  12  14
ATOM     13  C   UNL     1       1.628   2.649  21.439  0.00  0.00    +0.000 C 
ATOM     14  O   UNL     1       0.720   2.991  20.397  0.00  0.00    +0.000 OA
ENDBRANCH  12  14
ENDBRANCH   1  12
BRANCH   3  15
ATOM     15  C   UNL     1       3.232   6.991  17.812  0.00  0.00    +0.000 C 
BRANCH  15  16
ATOM     16  C   UNL     1       2.308   7.929  18.597  0.00  0.00    +0.000 C 
BRANCH  16  17
ATOM     17  C   UNL     1       1.967   9.227  17.859  0.00  0.00    +0.000 C 
BRANCH  17  18
ATOM     18  N   UNL     1       1.380  10.208  18.751  0.00  0.00    +0.000 N 
ATOM     19  C   UNL     1       1.516  11.559  18.706  0.00  0.00    +0.000 A 
ATOM     20  N   UNL     1       0.839  12.101  19.692  0.00  0.00    +0.000 NA
ATOM     21  C   UNL     1       0.290  11.018  20.318  0.00  0.00    +0.000 A 
ATOM     22  N   UNL     1       0.602   9.832  19.785  0.00  0.00    +0.000 NA
ENDBRANCH  17  18
ENDBRANCH  16  17
ENDBRANCH  15  16
ENDBRANCH   3  15
TORSDOF 7
ENDMDL
MODEL 5
REMARK VINA RESULT:      -6.8      0.901      1.351
REMARK  Name = 
REMARK  8 active torsions:
REMARK  status: ('A' for Active; 'I' for Inactive)
REMARK    1  A    between atoms: C_1  and  O_2
REMARK    2  A    between atoms: O_2  and  C_3
REMARK    3  A    between atoms: C_3  and  C_4
REMARK    4  A    between atoms: C_6  and  C_7
REMARK    5  A    between atoms: C_7  and  C_8
REMARK    6  A    between atoms: C_8  and  C_9
REMARK    7  A    between atoms: C_9  and  N_10
REMARK    8  A    between atoms: N_15  and  C_16
REMARK                            x       y       z     vdW  Elec       q    Type
REMARK                         _______ _______ _______ _____ _____    ______ ____
ROOT
ATOM      1  C   UNL     1       5.021   6.112  17.324  0.00  0.00    +0.000 A 
ATOM      2  N   UNL     1       4.233   4.996  17.428  0.00  0.00    +0.000 NA
ATOM      3  C   UNL     1       3.056   5.480  17.782  0.00  0.00    +0.000 A 
ATOM      4  N   UNL     1       3.166   6.854  17.972  0.00  0.00    +0.000 N 
ATOM      5  N   UNL     1       4.374   7.261  17.514  0.00  0.00    +0.000 NA
ENDROOT
BRANCH   4   6
ATOM      6  C   UNL     1       2.313   7.806  18.590  0.00  0.00    +0.000 A 
ATOM      7  C   UNL     1       1.991   7.744  19.945  0.00  0.00    +0.000 A 
ATOM      8  C   UNL     1       1.229   8.772  20.479  0.00  0.00    +0.000 A 
ATOM      9  N   UNL     1       0.766   9.820  19.766  0.00  0.00    +0.000 NA
ATOM     10  C   UNL     1       1.095   9.862  18.459  0.00  0.00    +0.000 A 
ATOM     11  C   UNL     1       1.866   8.897  17.835  0.00  0.00    +0.000 A 
ENDBRANCH   4   6
BRANCH   1  12
ATOM     12  C   UNL     1       6.497   6.071  17.084  0.00  0.00    +0.000 C 
BRANCH  12  14
ATOM     13  C   UNL     1       6.969   4.684  15.199  0.00  0.00    +0.000 C 
ATOM     14  O   UNL     1       6.983   4.798  16.618  0.00  0.00    +0.000 OA
ENDBRANCH  12  14
ENDBRANCH   1  12
BRANCH   3  15
ATOM     15  C   UNL     1       1.779   4.699  17.873  0.00  0.00    +0.000 C 
BRANCH  15  16
ATOM     16  C   UNL     1       1.914   3.208  17.545  0.00  0.00    +0.000 C 
BRANCH  16  17
ATOM     17  C   UNL     1       1.255   2.283  18.573  0.00  0.00    +0.000 C 
BRANCH  17  18
ATOM     18  N   UNL     1       1.808   2.484  19.898  0.00  0.00    +0.000 N 
ATOM     19  C   UNL     1       1.139   2.789  21.041  0.00  0.00    +0.000 A 
ATOM     20  N   UNL     1       1.992   2.899  22.034  0.00  0.00    +0.000 NA
ATOM     21  C   UNL     1       3.192   2.637  21.435  0.00  0.00    +0.000 A 
ATOM     22  N   UNL     1       3.133   2.388  20.123  0.00  0.00    +0.000 NA
ENDBRANCH  17  18
ENDBRANCH  16  17
ENDBRANCH  15  16
ENDBRANCH   3  15
TORSDOF 7
ENDMDL
MODEL 6
REMARK VINA RESULT:      -6.8      2.509      6.658
REMARK  Name = 
REMARK  8 active torsions:
REMARK  status: ('A' for Active; 'I' for Inactive)
REMARK    1  A    between atoms: C_1  and  O_2
REMARK    2  A    between atoms: O_2  and  C_3
REMARK    3  A    between atoms: C_3  and  C_4
REMARK    4  A    between atoms: C_6  and  C_7
REMARK    5  A    between atoms: C_7  and  C_8
REMARK    6  A    between atoms: C_8  and  C_9
REMARK    7  A    between atoms: C_9  and  N_10
REMARK    8  A    between atoms: N_15  and  C_16
REMARK                            x       y       z     vdW  Elec       q    Type
REMARK                         _______ _______ _______ _____ _____    ______ ____
ROOT
ATOM      1  C   UNL     1       2.025   3.794  18.296  0.00  0.00    +0.000 A 
ATOM      2  N   UNL     1       1.851   5.131  18.538  0.00  0.00    +0.000 NA
ATOM      3  C   UNL     1       2.934   5.683  18.020  0.00  0.00    +0.000 A 
ATOM      4  N   UNL     1       3.780   4.681  17.557  0.00  0.00    +0.000 N 
ATOM      5  N   UNL     1       3.114   3.502  17.585  0.00  0.00    +0.000 NA
ENDROOT
BRANCH   4   6
ATOM      6  C   UNL     1       5.144   4.686  17.163  0.00  0.00    +0.000 A 
ATOM      7  C   UNL     1       6.183   4.733  18.091  0.00  0.00    +0.000 A 
ATOM      8  C   UNL     1       7.483   4.637  17.616  0.00  0.00    +0.000 A 
ATOM      9  N   UNL     1       7.805   4.518  16.311  0.00  0.00    +0.000 NA
ATOM     10  C   UNL     1       6.783   4.468  15.433  0.00  0.00    +0.000 A 
ATOM     11  C   UNL     1       5.453   4.536  15.806  0.00  0.00    +0.000 A 
ENDBRANCH   4   6
BRANCH   1  12
ATOM     12  C   UNL     1       1.122   2.725  18.826  0.00  0.00    +0.000 C 
BRANCH  12  14
ATOM     13  C   UNL     1       1.869   2.614  21.091  0.00  0.00    +0.000 C 
ATOM     14  O   UNL     1       0.779   2.882  20.216  0.00  0.00    +0.000 OA
ENDBRANCH  12  14
ENDBRANCH   1  12
BRANCH   3  15
ATOM     15  C   UNL     1       3.178   7.155  17.865  0.00  0.00    +0.000 C 
BRANCH  15  16
ATOM     16  C   UNL     1       2.218   8.052  18.655  0.00  0.00    +0.000 C 
BRANCH  16  17
ATOM     17  C   UNL     1       1.718   9.269  17.870  0.00  0.00    +0.000 C 
BRANCH  17  18
ATOM     18  N   UNL     1       1.364  10.362  18.755  0.00  0.00    +0.000 N 
ATOM     19  C   UNL     1       0.578  10.313  19.863  0.00  0.00    +0.000 A 
ATOM     20  N   UNL     1       0.488  11.513  20.390  0.00  0.00    +0.000 NA
ATOM     21  C   UNL     1       1.259  12.272  19.555  0.00  0.00    +0.000 A 
ATOM     22  N   UNL     1       1.809  11.613  18.530  0.00  0.00    +0.000 NA
ENDBRANCH  17  18
ENDBRANCH  16  17
ENDBRANCH  15  16
ENDBRANCH   3  15
TORSDOF 7
ENDMDL
MODEL 7
REMARK VINA RESULT:      -6.8      2.256      5.400
REMARK  Name = 
REMARK  8 active torsions:
REMARK  status: ('A' for Active; 'I' for Inactive)
REMARK    1  A    between atoms: C_1  and  O_2
REMARK    2  A    between atoms: O_2  and  C_3
REMARK    3  A    between atoms: C_3  and  C_4
REMARK    4  A    between atoms: C_6  and  C_7
REMARK    5  A    between atoms: C_7  and  C_8
REMARK    6  A    between atoms: C_8  and  C_9
REMARK    7  A    between atoms: C_9  and  N_10
REMARK    8  A    between atoms: N_15  and  C_16
REMARK                            x       y       z     vdW  Elec       q    Type
REMARK                         _______ _______ _______ _____ _____    ______ ____
ROOT
ATOM      1  C   UNL     1       2.782   7.659  17.849  0.00  0.00    +0.000 A 
ATOM      2  N   UNL     1       3.853   7.000  17.303  0.00  0.00    +0.000 NA
ATOM      3  C   UNL     1       3.668   5.746  17.677  0.00  0.00    +0.000 A 
ATOM      4  N   UNL     1       2.553   5.677  18.507  0.00  0.00    +0.000 N 
ATOM      5  N   UNL     1       1.907   6.867  18.467  0.00  0.00    +0.000 NA
ENDROOT
BRANCH   4   6
ATOM      6  C   UNL     1       2.069   4.665  19.376  0.00  0.00    +0.000 A 
ATOM      7  C   UNL     1       1.289   3.604  18.917  0.00  0.00    +0.000 A 
ATOM      8  C   UNL     1       0.943   2.613  19.824  0.00  0.00    +0.000 A 
ATOM      9  N   UNL     1       1.299   2.620  21.126  0.00  0.00    +0.000 NA
ATOM     10  C   UNL     1       2.058   3.653  21.545  0.00  0.00    +0.000 A 
ATOM     11  C   UNL     1       2.472   4.680  20.717  0.00  0.00    +0.000 A 
ENDBRANCH   4   6
BRANCH   1  12
ATOM     12  C   UNL     1       2.617   9.146  17.825  0.00  0.00    +0.000 C 
BRANCH  12  14
ATOM     13  C   UNL     1       1.128  10.716  18.834  0.00  0.00    +0.000 C 
ATOM     14  O   UNL     1       1.255   9.589  17.974  0.00  0.00    +0.000 OA
ENDBRANCH  12  14
ENDBRANCH   1  12
BRANCH   3  15
ATOM     15  C   UNL     1       4.467   4.566  17.210  0.00  0.00    +0.000 C 
BRANCH  15  16
ATOM     16  C   UNL     1       5.292   4.811  15.941  0.00  0.00    +0.000 C 
BRANCH  16  17
ATOM     17  C   UNL     1       6.798   4.602  16.130  0.00  0.00    +0.000 C 
BRANCH  17  18
ATOM     18  N   UNL     1       7.301   5.359  17.259  0.00  0.00    +0.000 N 
ATOM     19  C   UNL     1       7.485   6.703  17.345  0.00  0.00    +0.000 A 
ATOM     20  N   UNL     1       7.967   7.005  18.529  0.00  0.00    +0.000 NA
ATOM     21  C   UNL     1       8.053   5.789  19.143  0.00  0.00    +0.000 A 
ATOM     22  N   UNL     1       7.667   4.745  18.401  0.00  0.00    +0.000 NA
ENDBRANCH  17  18
ENDBRANCH  16  17
ENDBRANCH  15  16
ENDBRANCH   3  15
TORSDOF 7
ENDMDL
MODEL 8
REMARK VINA RESULT:      -6.8      0.743      1.370
REMARK  Name = 
REMARK  8 active torsions:
REMARK  status: ('A' for Active; 'I' for Inactive)
REMARK    1  A    between atoms: C_1  and  O_2
REMARK    2  A    between atoms: O_2  and  C_3
REMARK    3  A    between atoms: C_3  and  C_4
REMARK    4  A    between atoms: C_6  and  C_7
REMARK    5  A    between atoms: C_7  and  C_8
REMARK    6  A    between atoms: C_8  and  C_9
REMARK    7  A    between atoms: C_9  and  N_10
REMARK    8  A    between atoms: N_15  and  C_16
REMARK                            x       y       z     vdW  Elec       q    Type
REMARK                         _______ _______ _______ _____ _____    ______ ____
ROOT
ATOM      1  C   UNL     1       5.565   5.600  17.276  0.00  0.00    +0.000 A 
ATOM      2  N   UNL     1       4.729   4.516  17.348  0.00  0.00    +0.000 NA
ATOM      3  C   UNL     1       3.555   5.049  17.635  0.00  0.00    +0.000 A 
ATOM      4  N   UNL     1       3.709   6.419  17.819  0.00  0.00    +0.000 N 
ATOM      5  N   UNL     1       4.953   6.775  17.420  0.00  0.00    +0.000 NA
ENDROOT
BRANCH   4   6
ATOM      6  C   UNL     1       2.862   7.410  18.382  0.00  0.00    +0.000 A 
ATOM      7  C   UNL     1       2.392   8.492  17.640  0.00  0.00    +0.000 A 
ATOM      8  C   UNL     1       1.494   9.356  18.250  0.00  0.00    +0.000 A 
ATOM      9  N   UNL     1       1.060   9.224  19.521  0.00  0.00    +0.000 NA
ATOM     10  C   UNL     1       1.524   8.166  20.217  0.00  0.00    +0.000 A 
ATOM     11  C   UNL     1       2.406   7.237  19.695  0.00  0.00    +0.000 A 
ENDBRANCH   4   6
BRANCH   1  12
ATOM     12  C   UNL     1       7.049   5.500  17.113  0.00  0.00    +0.000 C 
BRANCH  12  14
ATOM     13  C   UNL     1       7.866   5.648  19.352  0.00  0.00    +0.000 C 
ATOM     14  O   UNL     1       7.715   4.827  18.198  0.00  0.00    +0.000 OA
ENDBRANCH  12  14
ENDBRANCH   1  12
BRANCH   3  15
ATOM     15  C   UNL     1       2.246   4.318  17.667  0.00  0.00    +0.000 C 
BRANCH  15  16
ATOM     16  C   UNL     1       2.326   2.840  17.268  0.00  0.00    +0.000 C 
BRANCH  16  17
ATOM     17  C   UNL     1       2.891   1.931  18.363  0.00  0.00    +0.000 C 
BRANCH  17  18
ATOM     18  N   UNL     1       2.440   2.341  19.679  0.00  0.00    +0.000 N 
ATOM     19  C   UNL     1       1.163   2.404  20.138  0.00  0.00    +0.000 A 
ATOM     20  N   UNL     1       1.163   2.831  21.380  0.00  0.00    +0.000 NA
ATOM     21  C   UNL     1       2.492   3.011  21.640  0.00  0.00    +0.000 A 
ATOM     22  N   UNL     1       3.316   2.734  20.624  0.00  0.00    +0.000 NA
ENDBRANCH  17  18
ENDBRANCH  16  17
ENDBRANCH  15  16
ENDBRANCH   3  15
TORSDOF 7
ENDMDL
MODEL 9
REMARK VINA RESULT:      -6.7      2.272      5.520
REMARK  Name = 
REMARK  8 active torsions:
REMARK  status: ('A' for Active; 'I' for Inactive)
REMARK    1  A    between atoms: C_1  and  O_2
REMARK    2  A    between atoms: O_2  and  C_3
REMARK    3  A    between atoms: C_3  and  C_4
REMARK    4  A    between atoms: C_6  and  C_7
REMARK    5  A    between atoms: C_7  and  C_8
REMARK    6  A    between atoms: C_8  and  C_9
REMARK    7  A    between atoms: C_9  and  N_10
REMARK    8  A    between atoms: N_15  and  C_16
REMARK                            x       y       z     vdW  Elec       q    Type
REMARK                         _______ _______ _______ _____ _____    ______ ____
ROOT
ATOM      1  C   UNL     1       2.773   7.667  17.929  0.00  0.00    +0.000 A 
ATOM      2  N   UNL     1       3.809   7.070  17.260  0.00  0.00    +0.000 NA
ATOM      3  C   UNL     1       3.702   5.796  17.595  0.00  0.00    +0.000 A 
ATOM      4  N   UNL     1       2.672   5.654  18.520  0.00  0.00    +0.000 N 
ATOM      5  N   UNL     1       1.985   6.819  18.590  0.00  0.00    +0.000 NA
ENDROOT
BRANCH   4   6
ATOM      6  C   UNL     1       2.304   4.590  19.386  0.00  0.00    +0.000 A 
ATOM      7  C   UNL     1       2.534   4.640  20.760  0.00  0.00    +0.000 A 
ATOM      8  C   UNL     1       2.054   3.596  21.536  0.00  0.00    +0.000 A 
ATOM      9  N   UNL     1       1.393   2.528  21.044  0.00  0.00    +0.000 NA
ATOM     10  C   UNL     1       1.177   2.505  19.713  0.00  0.00    +0.000 A 
ATOM     11  C   UNL     1       1.597   3.504  18.855  0.00  0.00    +0.000 A 
ENDBRANCH   4   6
BRANCH   1  12
ATOM     12  C   UNL     1       2.557   9.146  17.984  0.00  0.00    +0.000 C 
BRANCH  12  14
ATOM     13  C   UNL     1       1.145  10.918  18.736  0.00  0.00    +0.000 C 
ATOM     14  O   UNL     1       1.241   9.532  18.425  0.00  0.00    +0.000 OA
ENDBRANCH  12  14
ENDBRANCH   1  12
BRANCH   3  15
ATOM     15  C   UNL     1       4.494   4.666  17.008  0.00  0.00    +0.000 C 
BRANCH  15  16
ATOM     16  C   UNL     1       5.268   5.019  15.733  0.00  0.00    +0.000 C 
BRANCH  16  17
ATOM     17  C   UNL     1       6.789   4.940  15.887  0.00  0.00    +0.000 C 
BRANCH  17  18
ATOM     18  N   UNL     1       7.263   5.818  16.940  0.00  0.00    +0.000 N 
ATOM     19  C   UNL     1       7.628   5.479  18.204  0.00  0.00    +0.000 A 
ATOM     20  N   UNL     1       7.991   6.557  18.860  0.00  0.00    +0.000 NA
ATOM     21  C   UNL     1       7.835   7.547  17.931  0.00  0.00    +0.000 A 
ATOM     22  N   UNL     1       7.379   7.145  16.740  0.00  0.00    +0.000 NA
ENDBRANCH  17  18
ENDBRANCH  16  17
ENDBRANCH  15  16
ENDBRANCH   3  15
TORSDOF 7
ENDMDL
