MODEL 1
REMARK VINA RESULT:      -6.3      0.000      0.000
REMARK  Name = 
REMARK  8 active torsions:
REMARK  status: ('A' for Active; 'I' for Inactive)
REMARK    1  A    between atoms: C_1  and  C_2
REMARK    2  A    between atoms: C_5  and  N_6
REMARK    3  A    between atoms: N_6  and  C_7
REMARK    4  A    between atoms: N_6  and  C_8
REMARK    5  A    between atoms: C_8  and  C_9
REMARK    6  A    between atoms: C_8  and  C_10
REMARK    7  A    between atoms: C_11  and  C_12
REMARK    8  A    between atoms: C_21  and  C_22
REMARK                            x       y       z     vdW  Elec       q    Type
REMARK                         _______ _______ _______ _____ _____    ______ ____
ROOT
ATOM      1  C   UNL     1       4.964   3.604  13.022  0.00  0.00    +0.000 C 
ATOM      2  C   UNL     1       5.579   4.229  14.232  0.00  0.00    +0.000 A 
ATOM      3  C   UNL     1       6.883   4.684  14.223  0.00  0.00    +0.000 A 
ATOM      4  C   UNL     1       7.415   5.272  15.373  0.00  0.00    +0.000 A 
ATOM      5  C   UNL     1       6.670   5.507  16.561  0.00  0.00    +0.000 A 
ATOM      6  C   UNL     1       5.279   5.179  16.485  0.00  0.00    +0.000 A 
ATOM      7  C   UNL     1       4.825   4.410  15.394  0.00  0.00    +0.000 A 
ENDROOT
BRANCH   6   8
ATOM      8  C   UNL     1       4.219   5.532  17.500  0.00  0.00    +0.000 C 
ATOM      9  O   UNL     1       3.922   6.721  17.632  0.00  0.00    +0.000 OA
ATOM     10  N   UNL     1       3.506   4.533  18.244  0.00  0.00    +0.000 N 
ATOM     11  C   UNL     1       2.243   4.967  18.868  0.00  0.00    +0.000 C 
ATOM     12  C   UNL     1       1.082   4.126  18.377  0.00  0.00    +0.000 C 
ATOM     13  S   UNL     1       1.301   2.437  18.864  0.00  0.00    +0.000 S 
ATOM     14  O   UNL     1       0.377   1.624  18.092  0.00  0.00    +0.000 OA
ATOM     15  O   UNL     1       1.300   2.359  20.310  0.00  0.00    +0.000 OA
ATOM     16  C   UNL     1       2.926   2.078  18.276  0.00  0.00    +0.000 C 
ATOM     17  C   UNL     1       3.935   3.160  18.630  0.00  0.00    +0.000 C 
ATOM     18  C   UNL     1       4.387   3.096  20.106  0.00  0.00    +0.000 C 
ENDBRANCH   6   8
BRANCH   5  19
ATOM     19  N   UNL     1       7.400   6.042  17.640  0.00  0.00    +0.000 N 
ATOM     20  C   UNL     1       7.910   5.219  18.728  0.00  0.00    +0.000 C 
BRANCH  19  21
ATOM     21  C   UNL     1       7.889   7.456  17.570  0.00  0.00    +0.000 C 
ATOM     22  C   UNL     1       6.743   8.410  17.216  0.00  0.00    +0.000 C 
ATOM     23  C   UNL     1       8.576   7.915  18.859  0.00  0.00    +0.000 C 
ENDBRANCH  19  21
ENDBRANCH   5  19
TORSDOF 3
ENDMDL
MODEL 2
REMARK VINA RESULT:      -6.1      2.889      6.358
REMARK  Name = 
REMARK  8 active torsions:
REMARK  status: ('A' for Active; 'I' for Inactive)
REMARK    1  A    between atoms: C_1  and  C_2
REMARK    2  A    between atoms: C_5  and  N_6
REMARK    3  A    between atoms: N_6  and  C_7
REMARK    4  A    between atoms: N_6  and  C_8
REMARK    5  A    between atoms: C_8  and  C_9
REMARK    6  A    between atoms: C_8  and  C_10
REMARK    7  A    between atoms: C_11  and  C_12
REMARK    8  A    between atoms: C_21  and  C_22
REMARK                            x       y       z     vdW  Elec       q    Type
REMARK                         _______ _______ _______ _____ _____    ______ ____
ROOT
ATOM      1  C   UNL     1       2.207   8.670  18.735  0.00  0.00    +0.000 C 
ATOM      2  C   UNL     1       2.358   7.230  19.105  0.00  0.00    +0.000 A 
ATOM      3  C   UNL     1       1.263   6.451  19.424  0.00  0.00    +0.000 A 
ATOM      4  C   UNL     1       1.448   5.106  19.753  0.00  0.00    +0.000 A 
ATOM      5  C   UNL     1       2.706   4.445  19.714  0.00  0.00    +0.000 A 
ATOM      6  C   UNL     1       3.795   5.232  19.220  0.00  0.00    +0.000 A 
ATOM      7  C   UNL     1       3.617   6.625  19.090  0.00  0.00    +0.000 A 
ENDROOT
BRANCH   6   8
ATOM      8  C   UNL     1       5.171   4.730  18.858  0.00  0.00    +0.000 C 
ATOM      9  O   UNL     1       5.713   3.930  19.623  0.00  0.00    +0.000 OA
ATOM     10  N   UNL     1       5.820   5.090  17.629  0.00  0.00    +0.000 N 
ATOM     11  C   UNL     1       6.938   4.227  17.208  0.00  0.00    +0.000 C 
ATOM     12  C   UNL     1       6.677   3.637  15.837  0.00  0.00    +0.000 C 
ATOM     13  S   UNL     1       6.585   4.924  14.625  0.00  0.00    +0.000 S 
ATOM     14  O   UNL     1       5.996   4.365  13.419  0.00  0.00    +0.000 OA
ATOM     15  O   UNL     1       7.862   5.603  14.558  0.00  0.00    +0.000 OA
ATOM     16  C   UNL     1       5.392   6.022  15.324  0.00  0.00    +0.000 C 
ATOM     17  C   UNL     1       5.648   6.313  16.795  0.00  0.00    +0.000 C 
ATOM     18  C   UNL     1       6.798   7.321  17.014  0.00  0.00    +0.000 C 
ENDBRANCH   6   8
BRANCH   5  19
ATOM     19  N   UNL     1       2.704   3.107  20.152  0.00  0.00    +0.000 N 
ATOM     20  C   UNL     1       2.852   2.740  21.554  0.00  0.00    +0.000 C 
BRANCH  19  21
ATOM     21  C   UNL     1       2.297   2.021  19.205  0.00  0.00    +0.000 C 
ATOM     22  C   UNL     1       0.862   2.241  18.712  0.00  0.00    +0.000 C 
ATOM     23  C   UNL     1       3.247   1.881  18.013  0.00  0.00    +0.000 C 
ENDBRANCH  19  21
ENDBRANCH   5  19
TORSDOF 3
ENDMDL
MODEL 3
REMARK VINA RESULT:      -6.1      8.820     11.482
REMARK  Name = 
REMARK  8 active torsions:
REMARK  status: ('A' for Active; 'I' for Inactive)
REMARK    1  A    between atoms: C_1  and  C_2
REMARK    2  A    between atoms: C_5  and  N_6
REMARK    3  A    between atoms: N_6  and  C_7
REMARK    4  A    between atoms: N_6  and  C_8
REMARK    5  A    between atoms: C_8  and  C_9
REMARK    6  A    between atoms: C_8  and  C_10
REMARK    7  A    between atoms: C_11  and  C_12
REMARK    8  A    between atoms: C_21  and  C_22
REMARK                            x       y       z     vdW  Elec       q    Type
REMARK                         _______ _______ _______ _____ _____    ______ ____
ROOT
ATOM      1  C   UNL     1       1.116   7.945  21.145  0.00  0.00    +0.000 C 
ATOM      2  C   UNL     1       0.300   9.139  21.521  0.00  0.00    +0.000 A 
ATOM      3  C   UNL     1      -0.008   9.414  22.839  0.00  0.00    +0.000 A 
ATOM      4  C   UNL     1      -0.764  10.548  23.147  0.00  0.00    +0.000 A 
ATOM      5  C   UNL     1      -1.190  11.504  22.185  0.00  0.00    +0.000 A 
ATOM      6  C   UNL     1      -0.716  11.282  20.852  0.00  0.00    +0.000 A 
ATOM      7  C   UNL     1      -0.132  10.037  20.542  0.00  0.00    +0.000 A 
ENDROOT
BRANCH   6   8
ATOM      8  C   UNL     1      -0.817  12.244  19.694  0.00  0.00    +0.000 C 
ATOM      9  O   UNL     1      -1.891  12.309  19.092  0.00  0.00    +0.000 OA
ATOM     10  N   UNL     1       0.257  13.126  19.333  0.00  0.00    +0.000 N 
ATOM     11  C   UNL     1      -0.106  14.277  18.487  0.00  0.00    +0.000 C 
ATOM     12  C   UNL     1       0.264  15.582  19.163  0.00  0.00    +0.000 C 
ATOM     13  S   UNL     1       2.018  15.682  19.382  0.00  0.00    +0.000 S 
ATOM     14  O   UNL     1       2.293  16.752  20.326  0.00  0.00    +0.000 OA
ATOM     15  O   UNL     1       2.657  15.682  18.082  0.00  0.00    +0.000 OA
ATOM     16  C   UNL     1       2.389  14.161  20.198  0.00  0.00    +0.000 C 
ATOM     17  C   UNL     1       1.722  12.961  19.542  0.00  0.00    +0.000 C 
ATOM     18  C   UNL     1       2.437  12.514  18.247  0.00  0.00    +0.000 C 
ENDBRANCH   6   8
BRANCH   5  19
ATOM     19  N   UNL     1      -2.006  12.540  22.677  0.00  0.00    +0.000 N 
ATOM     20  C   UNL     1      -3.460  12.493  22.611  0.00  0.00    +0.000 C 
BRANCH  19  21
ATOM     21  C   UNL     1      -1.398  13.622  23.515  0.00  0.00    +0.000 C 
ATOM     22  C   UNL     1      -0.468  14.503  22.674  0.00  0.00    +0.000 C 
ATOM     23  C   UNL     1      -2.444  14.487  24.223  0.00  0.00    +0.000 C 
ENDBRANCH  19  21
ENDBRANCH   5  19
TORSDOF 3
ENDMDL
MODEL 4
REMARK VINA RESULT:      -6.1      0.580      1.312
REMARK  Name = 
REMARK  8 active torsions:
REMARK  status: ('A' for Active; 'I' for Inactive)
REMARK    1  A    between atoms: C_1  and  C_2
REMARK    2  A    between atoms: C_5  and  N_6
REMARK    3  A    between atoms: N_6  and  C_7
REMARK    4  A    between atoms: N_6  and  C_8
REMARK    5  A    between atoms: C_8  and  C_9
REMARK    6  A    between atoms: C_8  and  C_10
REMARK    7  A    between atoms: C_11  and  C_12
REMARK    8  A    between atoms: C_21  and  C_22
REMARK                            x       y       z     vdW  Elec       q    Type
REMARK                         _______ _______ _______ _____ _____    ______ ____
ROOT
ATOM      1  C   UNL     1       5.129   3.498  12.746  0.00  0.00    +0.000 C 
ATOM      2  C   UNL     1       5.685   4.233  13.922  0.00  0.00    +0.000 A 
ATOM      3  C   UNL     1       6.969   4.743  13.910  0.00  0.00    +0.000 A 
ATOM      4  C   UNL     1       7.446   5.434  15.027  0.00  0.00    +0.000 A 
ATOM      5  C   UNL     1       6.662   5.721  16.177  0.00  0.00    +0.000 A 
ATOM      6  C   UNL     1       5.287   5.327  16.093  0.00  0.00    +0.000 A 
ATOM      7  C   UNL     1       4.895   4.464  15.050  0.00  0.00    +0.000 A 
ENDROOT
BRANCH   6   8
ATOM      8  C   UNL     1       4.188   5.706  17.055  0.00  0.00    +0.000 C 
ATOM      9  O   UNL     1       3.781   6.870  17.036  0.00  0.00    +0.000 OA
ATOM     10  N   UNL     1       3.560   4.746  17.919  0.00  0.00    +0.000 N 
ATOM     11  C   UNL     1       2.256   5.137  18.482  0.00  0.00    +0.000 C 
ATOM     12  C   UNL     1       1.182   4.137  18.101  0.00  0.00    +0.000 C 
ATOM     13  S   UNL     1       1.549   2.550  18.797  0.00  0.00    +0.000 S 
ATOM     14  O   UNL     1       0.713   1.564  18.133  0.00  0.00    +0.000 OA
ATOM     15  O   UNL     1       1.538   2.654  20.241  0.00  0.00    +0.000 OA
ATOM     16  C   UNL     1       3.207   2.272  18.259  0.00  0.00    +0.000 C 
ATOM     17  C   UNL     1       4.109   3.478  18.474  0.00  0.00    +0.000 C 
ATOM     18  C   UNL     1       4.547   3.641  19.947  0.00  0.00    +0.000 C 
ENDBRANCH   6   8
BRANCH   5  19
ATOM     19  N   UNL     1       7.339   6.363  17.231  0.00  0.00    +0.000 N 
ATOM     20  C   UNL     1       7.638   7.789  17.219  0.00  0.00    +0.000 C 
BRANCH  19  21
ATOM     21  C   UNL     1       7.557   5.633  18.520  0.00  0.00    +0.000 C 
ATOM     22  C   UNL     1       8.242   4.284  18.272  0.00  0.00    +0.000 C 
ATOM     23  C   UNL     1       8.356   6.449  19.540  0.00  0.00    +0.000 C 
ENDBRANCH  19  21
ENDBRANCH   5  19
TORSDOF 3
ENDMDL
MODEL 5
REMARK VINA RESULT:      -6.0      9.832     11.657
REMARK  Name = 
REMARK  8 active torsions:
REMARK  status: ('A' for Active; 'I' for Inactive)
REMARK    1  A    between atoms: C_1  and  C_2
REMARK    2  A    between atoms: C_5  and  N_6
REMARK    3  A    between atoms: N_6  and  C_7
REMARK    4  A    between atoms: N_6  and  C_8
REMARK    5  A    between atoms: C_8  and  C_9
REMARK    6  A    between atoms: C_8  and  C_10
REMARK    7  A    between atoms: C_11  and  C_12
REMARK    8  A    between atoms: C_21  and  C_22
REMARK                            x       y       z     vdW  Elec       q    Type
REMARK                         _______ _______ _______ _____ _____    ______ ____
ROOT
ATOM      1  C   UNL     1      -4.355  11.133  16.576  0.00  0.00    +0.000 C 
ATOM      2  C   UNL     1      -3.264  11.047  17.594  0.00  0.00    +0.000 A 
ATOM      3  C   UNL     1      -2.264  10.098  17.498  0.00  0.00    +0.000 A 
ATOM      4  C   UNL     1      -1.257  10.061  18.465  0.00  0.00    +0.000 A 
ATOM      5  C   UNL     1      -1.141  10.996  19.529  0.00  0.00    +0.000 A 
ATOM      6  C   UNL     1      -2.093  12.066  19.507  0.00  0.00    +0.000 A 
ATOM      7  C   UNL     1      -3.205  11.963  18.646  0.00  0.00    +0.000 A 
ENDROOT
BRANCH   6   8
ATOM      8  C   UNL     1      -2.064  13.308  20.364  0.00  0.00    +0.000 C 
ATOM      9  O   UNL     1      -1.182  14.140  20.144  0.00  0.00    +0.000 OA
ATOM     10  N   UNL     1      -3.065  13.577  21.358  0.00  0.00    +0.000 N 
ATOM     11  C   UNL     1      -3.164  14.974  21.815  0.00  0.00    +0.000 C 
ATOM     12  C   UNL     1      -4.557  15.523  21.576  0.00  0.00    +0.000 C 
ATOM     13  S   UNL     1      -5.742  14.620  22.533  0.00  0.00    +0.000 S 
ATOM     14  O   UNL     1      -7.065  14.932  22.019  0.00  0.00    +0.000 OA
ATOM     15  O   UNL     1      -5.451  14.802  23.940  0.00  0.00    +0.000 OA
ATOM     16  C   UNL     1      -5.395  12.947  22.091  0.00  0.00    +0.000 C 
ATOM     17  C   UNL     1      -3.909  12.622  22.129  0.00  0.00    +0.000 C 
ATOM     18  C   UNL     1      -3.377  12.420  23.566  0.00  0.00    +0.000 C 
ENDBRANCH   6   8
BRANCH   5  19
ATOM     19  N   UNL     1      -0.102  10.750  20.446  0.00  0.00    +0.000 N 
ATOM     20  C   UNL     1       1.054  11.627  20.577  0.00  0.00    +0.000 C 
BRANCH  19  21
ATOM     21  C   UNL     1      -0.280   9.698  21.497  0.00  0.00    +0.000 C 
ATOM     22  C   UNL     1       0.905   8.726  21.498  0.00  0.00    +0.000 C 
ATOM     23  C   UNL     1      -0.484  10.282  22.897  0.00  0.00    +0.000 C 
ENDBRANCH  19  21
ENDBRANCH   5  19
TORSDOF 3
ENDMDL
MODEL 6
REMARK VINA RESULT:      -5.6      8.589     11.041
REMARK  Name = 
REMARK  8 active torsions:
REMARK  status: ('A' for Active; 'I' for Inactive)
REMARK    1  A    between atoms: C_1  and  C_2
REMARK    2  A    between atoms: C_5  and  N_6
REMARK    3  A    between atoms: N_6  and  C_7
REMARK    4  A    between atoms: N_6  and  C_8
REMARK    5  A    between atoms: C_8  and  C_9
REMARK    6  A    between atoms: C_8  and  C_10
REMARK    7  A    between atoms: C_11  and  C_12
REMARK    8  A    between atoms: C_21  and  C_22
REMARK                            x       y       z     vdW  Elec       q    Type
REMARK                         _______ _______ _______ _____ _____    ______ ____
ROOT
ATOM      1  C   UNL     1       9.135  10.110  18.635  0.00  0.00    +0.000 C 
ATOM      2  C   UNL     1       9.620  11.512  18.461  0.00  0.00    +0.000 A 
ATOM      3  C   UNL     1      10.852  11.782  17.896  0.00  0.00    +0.000 A 
ATOM      4  C   UNL     1      11.261  13.109  17.741  0.00  0.00    +0.000 A 
ATOM      5  C   UNL     1      10.453  14.233  18.065  0.00  0.00    +0.000 A 
ATOM      6  C   UNL     1       9.121  13.924  18.490  0.00  0.00    +0.000 A 
ATOM      7  C   UNL     1       8.810  12.591  18.824  0.00  0.00    +0.000 A 
ENDROOT
BRANCH   6   8
ATOM      8  C   UNL     1       7.990  14.907  18.673  0.00  0.00    +0.000 C 
ATOM      9  O   UNL     1       7.573  15.498  17.675  0.00  0.00    +0.000 OA
ATOM     10  N   UNL     1       7.347  15.109  19.941  0.00  0.00    +0.000 N 
ATOM     11  C   UNL     1       6.023  15.754  19.901  0.00  0.00    +0.000 C 
ATOM     12  C   UNL     1       4.971  14.868  20.537  0.00  0.00    +0.000 C 
ATOM     13  S   UNL     1       5.333  14.623  22.253  0.00  0.00    +0.000 S 
ATOM     14  O   UNL     1       4.526  13.512  22.728  0.00  0.00    +0.000 OA
ATOM     15  O   UNL     1       5.279  15.900  22.934  0.00  0.00    +0.000 OA
ATOM     16  C   UNL     1       7.008  14.069  22.214  0.00  0.00    +0.000 C 
ATOM     17  C   UNL     1       7.892  14.920  21.314  0.00  0.00    +0.000 C 
ATOM     18  C   UNL     1       8.285  16.267  21.963  0.00  0.00    +0.000 C 
ENDBRANCH   6   8
BRANCH   5  19
ATOM     19  N   UNL     1      11.068  15.489  17.909  0.00  0.00    +0.000 N 
ATOM     20  C   UNL     1      11.095  16.198  16.636  0.00  0.00    +0.000 C 
BRANCH  19  21
ATOM     21  C   UNL     1      11.503  16.253  19.121  0.00  0.00    +0.000 C 
ATOM     22  C   UNL     1      10.602  17.471  19.348  0.00  0.00    +0.000 C 
ATOM     23  C   UNL     1      11.549  15.390  20.386  0.00  0.00    +0.000 C 
ENDBRANCH  19  21
ENDBRANCH   5  19
TORSDOF 3
ENDMDL
MODEL 7
REMARK VINA RESULT:      -5.6      9.234     11.409
REMARK  Name = 
REMARK  8 active torsions:
REMARK  status: ('A' for Active; 'I' for Inactive)
REMARK    1  A    between atoms: C_1  and  C_2
REMARK    2  A    between atoms: C_5  and  N_6
REMARK    3  A    between atoms: N_6  and  C_7
REMARK    4  A    between atoms: N_6  and  C_8
REMARK    5  A    between atoms: C_8  and  C_9
REMARK    6  A    between atoms: C_8  and  C_10
REMARK    7  A    between atoms: C_11  and  C_12
REMARK    8  A    between atoms: C_21  and  C_22
REMARK                            x       y       z     vdW  Elec       q    Type
REMARK                         _______ _______ _______ _____ _____    ______ ____
ROOT
ATOM      1  C   UNL     1      -2.981  10.816  15.904  0.00  0.00    +0.000 C 
ATOM      2  C   UNL     1      -2.263  10.845  17.214  0.00  0.00    +0.000 A 
ATOM      3  C   UNL     1      -1.197  10.003  17.469  0.00  0.00    +0.000 A 
ATOM      4  C   UNL     1      -0.546  10.072  18.702  0.00  0.00    +0.000 A 
ATOM      5  C   UNL     1      -0.862  11.018  19.715  0.00  0.00    +0.000 A 
ATOM      6  C   UNL     1      -1.856  11.985  19.360  0.00  0.00    +0.000 A 
ATOM      7  C   UNL     1      -2.626  11.766  18.199  0.00  0.00    +0.000 A 
ENDROOT
BRANCH   6   8
ATOM      8  C   UNL     1      -2.217  13.226  20.139  0.00  0.00    +0.000 C 
ATOM      9  O   UNL     1      -3.343  13.287  20.636  0.00  0.00    +0.000 OA
ATOM     10  N   UNL     1      -1.275  14.282  20.378  0.00  0.00    +0.000 N 
ATOM     11  C   UNL     1      -1.605  15.209  21.475  0.00  0.00    +0.000 C 
ATOM     12  C   UNL     1      -0.504  15.226  22.517  0.00  0.00    +0.000 C 
ATOM     13  S   UNL     1       0.999  15.837  21.809  0.00  0.00    +0.000 S 
ATOM     14  O   UNL     1       2.088  15.510  22.715  0.00  0.00    +0.000 OA
ATOM     15  O   UNL     1       0.799  17.206  21.383  0.00  0.00    +0.000 OA
ATOM     16  C   UNL     1       1.190  14.819  20.380  0.00  0.00    +0.000 C 
ATOM     17  C   UNL     1      -0.091  14.690  19.571  0.00  0.00    +0.000 C 
ATOM     18  C   UNL     1      -0.387  15.944  18.716  0.00  0.00    +0.000 C 
ENDBRANCH   6   8
BRANCH   5  19
ATOM     19  N   UNL     1      -0.145  10.882  20.919  0.00  0.00    +0.000 N 
ATOM     20  C   UNL     1       1.196  11.421  21.100  0.00  0.00    +0.000 C 
BRANCH  19  21
ATOM     21  C   UNL     1      -0.849  10.386  22.144  0.00  0.00    +0.000 C 
ATOM     22  C   UNL     1       0.043   9.417  22.929  0.00  0.00    +0.000 C 
ATOM     23  C   UNL     1      -1.327  11.518  23.058  0.00  0.00    +0.000 C 
ENDBRANCH  19  21
ENDBRANCH   5  19
TORSDOF 3
ENDMDL
MODEL 8
REMARK VINA RESULT:      -5.6      8.608     11.165
REMARK  Name = 
REMARK  8 active torsions:
REMARK  status: ('A' for Active; 'I' for Inactive)
REMARK    1  A    between atoms: C_1  and  C_2
REMARK    2  A    between atoms: C_5  and  N_6
REMARK    3  A    between atoms: N_6  and  C_7
REMARK    4  A    between atoms: N_6  and  C_8
REMARK    5  A    between atoms: C_8  and  C_9
REMARK    6  A    between atoms: C_8  and  C_10
REMARK    7  A    between atoms: C_11  and  C_12
REMARK    8  A    between atoms: C_21  and  C_22
REMARK                            x       y       z     vdW  Elec       q    Type
REMARK                         _______ _______ _______ _____ _____    ______ ____
ROOT
ATOM      1  C   UNL     1      -5.082  11.822  17.387  0.00  0.00    +0.000 C 
ATOM      2  C   UNL     1      -3.788  11.444  18.030  0.00  0.00    +0.000 A 
ATOM      3  C   UNL     1      -3.012  10.414  17.535  0.00  0.00    +0.000 A 
ATOM      4  C   UNL     1      -1.803  10.101  18.160  0.00  0.00    +0.000 A 
ATOM      5  C   UNL     1      -1.263  10.830  19.254  0.00  0.00    +0.000 A 
ATOM      6  C   UNL     1      -2.005  11.992  19.640  0.00  0.00    +0.000 A 
ATOM      7  C   UNL     1      -3.307  12.163  19.128  0.00  0.00    +0.000 A 
ENDROOT
BRANCH   6   8
ATOM      8  C   UNL     1      -1.553  13.065  20.601  0.00  0.00    +0.000 C 
ATOM      9  O   UNL     1      -2.090  13.109  21.710  0.00  0.00    +0.000 OA
ATOM     10  N   UNL     1      -0.480  13.968  20.293  0.00  0.00    +0.000 N 
ATOM     11  C   UNL     1       0.130  14.664  21.440  0.00  0.00    +0.000 C 
ATOM     12  C   UNL     1       1.614  14.371  21.522  0.00  0.00    +0.000 C 
ATOM     13  S   UNL     1       2.441  14.997  20.086  0.00  0.00    +0.000 S 
ATOM     14  O   UNL     1       3.766  14.400  20.035  0.00  0.00    +0.000 OA
ATOM     15  O   UNL     1       2.295  16.437  20.047  0.00  0.00    +0.000 OA
ATOM     16  C   UNL     1       1.503  14.293  18.768  0.00  0.00    +0.000 C 
ATOM     17  C   UNL     1       0.002  14.442  18.966  0.00  0.00    +0.000 C 
ATOM     18  C   UNL     1      -0.505  15.867  18.650  0.00  0.00    +0.000 C 
ENDBRANCH   6   8
BRANCH   5  19
ATOM     19  N   UNL     1      -0.070  10.317  19.797  0.00  0.00    +0.000 N 
ATOM     20  C   UNL     1       1.245  10.814  19.414  0.00  0.00    +0.000 C 
BRANCH  19  21
ATOM     21  C   UNL     1      -0.131   9.403  20.982  0.00  0.00    +0.000 C 
ATOM     22  C   UNL     1       1.049   8.425  20.975  0.00  0.00    +0.000 C 
ATOM     23  C   UNL     1      -0.185  10.155  22.314  0.00  0.00    +0.000 C 
ENDBRANCH  19  21
ENDBRANCH   5  19
TORSDOF 3
ENDMDL
MODEL 9
REMARK VINA RESULT:      -5.5      9.127     10.871
REMARK  Name = 
REMARK  8 active torsions:
REMARK  status: ('A' for Active; 'I' for Inactive)
REMARK    1  A    between atoms: C_1  and  C_2
REMARK    2  A    between atoms: C_5  and  N_6
REMARK    3  A    between atoms: N_6  and  C_7
REMARK    4  A    between atoms: N_6  and  C_8
REMARK    5  A    between atoms: C_8  and  C_9
REMARK    6  A    between atoms: C_8  and  C_10
REMARK    7  A    between atoms: C_11  and  C_12
REMARK    8  A    between atoms: C_21  and  C_22
REMARK                            x       y       z     vdW  Elec       q    Type
REMARK                         _______ _______ _______ _____ _____    ______ ____
ROOT
ATOM      1  C   UNL     1       4.425  16.052  18.862  0.00  0.00    +0.000 C 
ATOM      2  C   UNL     1       5.724  15.314  18.895  0.00  0.00    +0.000 A 
ATOM      3  C   UNL     1       6.326  14.866  17.736  0.00  0.00    +0.000 A 
ATOM      4  C   UNL     1       7.546  14.190  17.811  0.00  0.00    +0.000 A 
ATOM      5  C   UNL     1       8.268  13.986  19.018  0.00  0.00    +0.000 A 
ATOM      6  C   UNL     1       7.704  14.606  20.179  0.00  0.00    +0.000 A 
ATOM      7  C   UNL     1       6.386  15.102  20.107  0.00  0.00    +0.000 A 
ENDROOT
BRANCH   6   8
ATOM      8  C   UNL     1       8.365  14.749  21.528  0.00  0.00    +0.000 C 
ATOM      9  O   UNL     1       9.245  15.603  21.651  0.00  0.00    +0.000 OA
ATOM     10  N   UNL     1       7.949  13.985  22.671  0.00  0.00    +0.000 N 
ATOM     11  C   UNL     1       8.369  14.504  23.985  0.00  0.00    +0.000 C 
ATOM     12  C   UNL     1       7.167  14.773  24.868  0.00  0.00    +0.000 C 
ATOM     13  S   UNL     1       6.303  13.264  25.202  0.00  0.00    +0.000 S 
ATOM     14  O   UNL     1       4.996  13.603  25.739  0.00  0.00    +0.000 OA
ATOM     15  O   UNL     1       7.177  12.372  25.936  0.00  0.00    +0.000 OA
ATOM     16  C   UNL     1       6.046  12.605  23.585  0.00  0.00    +0.000 C 
ATOM     17  C   UNL     1       7.299  12.646  22.723  0.00  0.00    +0.000 C 
ATOM     18  C   UNL     1       8.310  11.534  23.085  0.00  0.00    +0.000 C 
ENDBRANCH   6   8
BRANCH   5  19
ATOM     19  N   UNL     1       9.442  13.217  18.903  0.00  0.00    +0.000 N 
ATOM     20  C   UNL     1      10.643  13.712  18.244  0.00  0.00    +0.000 C 
BRANCH  19  21
ATOM     21  C   UNL     1       9.569  11.944  19.681  0.00  0.00    +0.000 C 
ATOM     22  C   UNL     1       9.378  10.728  18.768  0.00  0.00    +0.000 C 
ATOM     23  C   UNL     1      10.897  11.834  20.434  0.00  0.00    +0.000 C 
ENDBRANCH  19  21
ENDBRANCH   5  19
TORSDOF 3
ENDMDL
