MODEL 1
REMARK VINA RESULT:      -8.7      0.000      0.000
REMARK  Name = 
REMARK  6 active torsions:
REMARK  status: ('A' for Active; 'I' for Inactive)
REMARK    1  A    between atoms: C_1  and  C_2
REMARK    2  A    between atoms: N_10  and  C_11
REMARK    3  A    between atoms: N_14  and  C_15
REMARK    4  A    between atoms: C_15  and  C_16
REMARK    5  A    between atoms: N_18  and  C_19
REMARK    6  A    between atoms: C_24  and  N_25
REMARK                            x       y       z     vdW  Elec       q    Type
REMARK                         _______ _______ _______ _____ _____    ______ ____
ROOT
ATOM      1  C   UNL     1       1.526   8.686  19.589  0.00  0.00    +0.000 C 
ENDROOT
BRANCH   1   5
ATOM      2  C   UNL     1      -0.729  12.390  19.784  0.00  0.00    +0.000 C 
ATOM      3  C   UNL     1      -1.388  11.096  19.300  0.00  0.00    +0.000 C 
ATOM      4  C   UNL     1      -0.615   9.822  19.620  0.00  0.00    +0.000 C 
ATOM      5  N   UNL     1       0.806   9.942  19.236  0.00  0.00    +0.000 NA
ATOM      6  C   UNL     1       1.416  11.037  20.019  0.00  0.00    +0.000 C 
ATOM      7  C   UNL     1       0.796  12.373  19.631  0.00  0.00    +0.000 C 
BRANCH   2  17
ATOM      8  C   UNL     1      -6.028  12.893  23.938  0.00  0.00    +0.000 C 
ATOM      9  C   UNL     1      -4.786  12.895  23.095  0.00  0.00    +0.000 A 
ATOM     10  C   UNL     1      -4.858  13.071  21.705  0.00  0.00    +0.000 A 
ATOM     11  C   UNL     1      -3.711  13.051  20.897  0.00  0.00    +0.000 A 
ATOM     12  C   UNL     1      -2.484  12.859  21.544  0.00  0.00    +0.000 A 
ATOM     13  C   UNL     1      -2.377  12.719  22.924  0.00  0.00    +0.000 A 
ATOM     14  C   UNL     1      -3.535  12.723  23.714  0.00  0.00    +0.000 A 
ATOM     15  N   UNL     1      -1.063  12.577  23.276  0.00  0.00    +0.000 NA
ATOM     16  N   UNL     1      -0.343  12.600  22.166  0.00  0.00    +0.000 NA
ATOM     17  N   UNL     1      -1.187  12.712  21.125  0.00  0.00    +0.000 N 
ENDBRANCH   2  17
ENDBRANCH   1   5
BRANCH   1  18
ATOM     18  C   UNL     1       2.284   8.065  18.416  0.00  0.00    +0.000 C 
ATOM     19  O   UNL     1       2.270   8.635  17.327  0.00  0.00    +0.000 OA
ATOM     20  N   UNL     1       2.939   6.869  18.696  0.00  0.00    +0.000 N 
ATOM     21  H   UNL     1       2.983   6.592  19.667  0.00  0.00    +0.000 HD
BRANCH  20  22
ATOM     22  C   UNL     1       3.747   6.142  17.786  0.00  0.00    +0.000 A 
ATOM     23  C   UNL     1       4.493   6.841  16.813  0.00  0.00    +0.000 A 
ATOM     24  C   UNL     1       5.252   6.175  15.863  0.00  0.00    +0.000 A 
ATOM     25  C   UNL     1       5.297   4.796  15.868  0.00  0.00    +0.000 A 
ATOM     26  C   UNL     1       4.558   4.079  16.830  0.00  0.00    +0.000 A 
ATOM     27  C   UNL     1       3.765   4.716  17.799  0.00  0.00    +0.000 A 
BRANCH  27  28
ATOM     28  N   UNL     1       2.995   3.959  18.679  0.00  0.00    +0.000 N 
ATOM     29  C   UNL     1       1.646   3.484  18.310  0.00  0.00    +0.000 C 
ATOM     30  C   UNL     1       0.791   3.498  19.589  0.00  0.00    +0.000 C 
ATOM     31  O   UNL     1       1.349   2.650  20.601  0.00  0.00    +0.000 OA
ATOM     32  C   UNL     1       2.703   3.027  20.896  0.00  0.00    +0.000 C 
ATOM     33  C   UNL     1       3.609   3.036  19.644  0.00  0.00    +0.000 C 
ENDBRANCH  27  28
ENDBRANCH  20  22
ENDBRANCH   1  18
TORSDOF 5
ENDMDL
MODEL 2
REMARK VINA RESULT:      -8.7      1.702      3.519
REMARK  Name = 
REMARK  6 active torsions:
REMARK  status: ('A' for Active; 'I' for Inactive)
REMARK    1  A    between atoms: C_1  and  C_2
REMARK    2  A    between atoms: N_10  and  C_11
REMARK    3  A    between atoms: N_14  and  C_15
REMARK    4  A    between atoms: C_15  and  C_16
REMARK    5  A    between atoms: N_18  and  C_19
REMARK    6  A    between atoms: C_24  and  N_25
REMARK                            x       y       z     vdW  Elec       q    Type
REMARK                         _______ _______ _______ _____ _____    ______ ____
ROOT
ATOM      1  C   UNL     1       1.976   8.296  18.008  0.00  0.00    +0.000 C 
ENDROOT
BRANCH   1   5
ATOM      2  C   UNL     1       0.534  11.329  20.758  0.00  0.00    +0.000 C 
ATOM      3  C   UNL     1       1.312  11.719  19.499  0.00  0.00    +0.000 C 
ATOM      4  C   UNL     1       1.438  10.616  18.454  0.00  0.00    +0.000 C 
ATOM      5  N   UNL     1       1.891   9.348  19.059  0.00  0.00    +0.000 NA
ATOM      6  C   UNL     1       0.881   8.908  20.045  0.00  0.00    +0.000 C 
ATOM      7  C   UNL     1       0.814   9.891  21.207  0.00  0.00    +0.000 C 
BRANCH   2  17
ATOM      8  C   UNL     1      -5.162  13.406  23.730  0.00  0.00    +0.000 C 
ATOM      9  C   UNL     1      -3.984  12.860  22.977  0.00  0.00    +0.000 A 
ATOM     10  C   UNL     1      -2.953  12.181  23.642  0.00  0.00    +0.000 A 
ATOM     11  C   UNL     1      -1.832  11.685  22.958  0.00  0.00    +0.000 A 
ATOM     12  C   UNL     1      -1.793  11.890  21.574  0.00  0.00    +0.000 A 
ATOM     13  C   UNL     1      -2.818  12.526  20.881  0.00  0.00    +0.000 A 
ATOM     14  C   UNL     1      -3.921  13.032  21.582  0.00  0.00    +0.000 A 
ATOM     15  N   UNL     1      -2.525  12.558  19.545  0.00  0.00    +0.000 NA
ATOM     16  N   UNL     1      -1.344  11.983  19.377  0.00  0.00    +0.000 NA
ATOM     17  N   UNL     1      -0.877  11.633  20.588  0.00  0.00    +0.000 N 
ENDBRANCH   2  17
ENDBRANCH   1   5
BRANCH   1  18
ATOM     18  C   UNL     1       2.395   6.927  18.543  0.00  0.00    +0.000 C 
ATOM     19  O   UNL     1       2.974   6.862  19.626  0.00  0.00    +0.000 OA
ATOM     20  N   UNL     1       2.078   5.845  17.728  0.00  0.00    +0.000 N 
ATOM     21  H   UNL     1       1.478   6.033  16.937  0.00  0.00    +0.000 HD
BRANCH  20  22
ATOM     22  C   UNL     1       2.317   4.484  18.040  0.00  0.00    +0.000 A 
ATOM     23  C   UNL     1       1.313   3.737  18.693  0.00  0.00    +0.000 A 
ATOM     24  C   UNL     1       1.519   2.420  19.073  0.00  0.00    +0.000 A 
ATOM     25  C   UNL     1       2.725   1.809  18.798  0.00  0.00    +0.000 A 
ATOM     26  C   UNL     1       3.741   2.537  18.148  0.00  0.00    +0.000 A 
ATOM     27  C   UNL     1       3.578   3.878  17.761  0.00  0.00    +0.000 A 
BRANCH  27  28
ATOM     28  N   UNL     1       4.640   4.574  17.189  0.00  0.00    +0.000 N 
ATOM     29  C   UNL     1       5.701   5.179  18.019  0.00  0.00    +0.000 C 
ATOM     30  C   UNL     1       6.144   6.476  17.319  0.00  0.00    +0.000 C 
ATOM     31  O   UNL     1       6.642   6.216  16.001  0.00  0.00    +0.000 OA
ATOM     32  C   UNL     1       5.663   5.525  15.210  0.00  0.00    +0.000 C 
ATOM     33  C   UNL     1       5.175   4.214  15.868  0.00  0.00    +0.000 C 
ENDBRANCH  27  28
ENDBRANCH  20  22
ENDBRANCH   1  18
TORSDOF 5
ENDMDL
MODEL 3
REMARK VINA RESULT:      -8.7      2.044      3.734
REMARK  Name = 
REMARK  6 active torsions:
REMARK  status: ('A' for Active; 'I' for Inactive)
REMARK    1  A    between atoms: C_1  and  C_2
REMARK    2  A    between atoms: N_10  and  C_11
REMARK    3  A    between atoms: N_14  and  C_15
REMARK    4  A    between atoms: C_15  and  C_16
REMARK    5  A    between atoms: N_18  and  C_19
REMARK    6  A    between atoms: C_24  and  N_25
REMARK                            x       y       z     vdW  Elec       q    Type
REMARK                         _______ _______ _______ _____ _____    ______ ____
ROOT
ATOM      1  C   UNL     1       2.510   8.200  18.406  0.00  0.00    +0.000 C 
ENDROOT
BRANCH   1   5
ATOM      2  C   UNL     1      -0.887  10.539  19.758  0.00  0.00    +0.000 C 
ATOM      3  C   UNL     1      -0.244   9.491  20.670  0.00  0.00    +0.000 C 
ATOM      4  C   UNL     1       1.133   9.012  20.228  0.00  0.00    +0.000 C 
ATOM      5  N   UNL     1       1.141   8.638  18.800  0.00  0.00    +0.000 NA
ATOM      6  C   UNL     1       0.811   9.833  17.996  0.00  0.00    +0.000 C 
ATOM      7  C   UNL     1      -0.620  10.277  18.272  0.00  0.00    +0.000 C 
BRANCH   2  17
ATOM      8  C   UNL     1      -1.318  15.137  24.684  0.00  0.00    +0.000 C 
ATOM      9  C   UNL     1      -1.218  14.232  23.490  0.00  0.00    +0.000 A 
ATOM     10  C   UNL     1      -2.187  13.248  23.247  0.00  0.00    +0.000 A 
ATOM     11  C   UNL     1      -2.098  12.377  22.151  0.00  0.00    +0.000 A 
ATOM     12  C   UNL     1      -0.998  12.542  21.299  0.00  0.00    +0.000 A 
ATOM     13  C   UNL     1      -0.041  13.532  21.493  0.00  0.00    +0.000 A 
ATOM     14  C   UNL     1      -0.136  14.382  22.604  0.00  0.00    +0.000 A 
ATOM     15  N   UNL     1       0.894  13.475  20.497  0.00  0.00    +0.000 NA
ATOM     16  N   UNL     1       0.571  12.471  19.696  0.00  0.00    +0.000 NA
ATOM     17  N   UNL     1      -0.524  11.875  20.199  0.00  0.00    +0.000 N 
ENDBRANCH   2  17
ENDBRANCH   1   5
BRANCH   1  18
ATOM     18  C   UNL     1       2.805   6.738  18.741  0.00  0.00    +0.000 C 
ATOM     19  O   UNL     1       3.438   6.475  19.762  0.00  0.00    +0.000 OA
ATOM     20  N   UNL     1       2.320   5.808  17.827  0.00  0.00    +0.000 N 
ATOM     21  H   UNL     1       1.697   6.156  17.112  0.00  0.00    +0.000 HD
BRANCH  20  22
ATOM     22  C   UNL     1       2.423   4.400  17.954  0.00  0.00    +0.000 A 
ATOM     23  C   UNL     1       1.361   3.678  18.541  0.00  0.00    +0.000 A 
ATOM     24  C   UNL     1       1.437   2.309  18.742  0.00  0.00    +0.000 A 
ATOM     25  C   UNL     1       2.568   1.622  18.350  0.00  0.00    +0.000 A 
ATOM     26  C   UNL     1       3.640   2.324  17.764  0.00  0.00    +0.000 A 
ATOM     27  C   UNL     1       3.609   3.713  17.558  0.00  0.00    +0.000 A 
BRANCH  27  28
ATOM     28  N   UNL     1       4.725   4.368  17.043  0.00  0.00    +0.000 N 
ATOM     29  C   UNL     1       5.873   4.724  17.902  0.00  0.00    +0.000 C 
ATOM     30  C   UNL     1       6.439   6.056  17.379  0.00  0.00    +0.000 C 
ATOM     31  O   UNL     1       6.863   5.944  16.015  0.00  0.00    +0.000 OA
ATOM     32  C   UNL     1       5.788   5.490  15.178  0.00  0.00    +0.000 C 
ATOM     33  C   UNL     1       5.175   4.156  15.661  0.00  0.00    +0.000 C 
ENDBRANCH  27  28
ENDBRANCH  20  22
ENDBRANCH   1  18
TORSDOF 5
ENDMDL
MODEL 4
REMARK VINA RESULT:      -8.6      2.778      4.064
REMARK  Name = 
REMARK  6 active torsions:
REMARK  status: ('A' for Active; 'I' for Inactive)
REMARK    1  A    between atoms: C_1  and  C_2
REMARK    2  A    between atoms: N_10  and  C_11
REMARK    3  A    between atoms: N_14  and  C_15
REMARK    4  A    between atoms: C_15  and  C_16
REMARK    5  A    between atoms: N_18  and  C_19
REMARK    6  A    between atoms: C_24  and  N_25
REMARK                            x       y       z     vdW  Elec       q    Type
REMARK                         _______ _______ _______ _____ _____    ______ ____
ROOT
ATOM      1  C   UNL     1       2.223   7.210  19.987  0.00  0.00    +0.000 C 
ENDROOT
BRANCH   1   5
ATOM      2  C   UNL     1       0.226  11.055  19.713  0.00  0.00    +0.000 C 
ATOM      3  C   UNL     1      -0.141  10.057  20.816  0.00  0.00    +0.000 C 
ATOM      4  C   UNL     1       0.863   8.929  21.021  0.00  0.00    +0.000 C 
ATOM      5  N   UNL     1       1.225   8.288  19.741  0.00  0.00    +0.000 NA
ATOM      6  C   UNL     1       1.867   9.297  18.873  0.00  0.00    +0.000 C 
ATOM      7  C   UNL     1       0.867  10.383  18.495  0.00  0.00    +0.000 C 
BRANCH   2  17
ATOM      8  C   UNL     1       3.886  16.573  18.398  0.00  0.00    +0.000 C 
ATOM      9  C   UNL     1       3.163  15.325  18.812  0.00  0.00    +0.000 A 
ATOM     10  C   UNL     1       3.033  14.240  17.933  0.00  0.00    +0.000 A 
ATOM     11  C   UNL     1       2.339  13.075  18.293  0.00  0.00    +0.000 A 
ATOM     12  C   UNL     1       1.789  13.038  19.580  0.00  0.00    +0.000 A 
ATOM     13  C   UNL     1       1.933  14.082  20.488  0.00  0.00    +0.000 A 
ATOM     14  C   UNL     1       2.613  15.247  20.104  0.00  0.00    +0.000 A 
ATOM     15  N   UNL     1       1.322  13.759  21.668  0.00  0.00    +0.000 NA
ATOM     16  N   UNL     1       0.781  12.559  21.527  0.00  0.00    +0.000 NA
ATOM     17  N   UNL     1       1.007  12.147  20.268  0.00  0.00    +0.000 N 
ENDBRANCH   2  17
ENDBRANCH   1   5
BRANCH   1  18
ATOM     18  C   UNL     1       2.585   6.412  18.735  0.00  0.00    +0.000 C 
ATOM     19  O   UNL     1       1.683   6.023  17.995  0.00  0.00    +0.000 OA
ATOM     20  N   UNL     1       3.944   6.187  18.543  0.00  0.00    +0.000 N 
ATOM     21  H   UNL     1       4.578   6.685  19.152  0.00  0.00    +0.000 HD
BRANCH  20  22
ATOM     22  C   UNL     1       4.518   5.522  17.430  0.00  0.00    +0.000 A 
ATOM     23  C   UNL     1       5.198   6.276  16.450  0.00  0.00    +0.000 A 
ATOM     24  C   UNL     1       5.725   5.683  15.314  0.00  0.00    +0.000 A 
ATOM     25  C   UNL     1       5.601   4.321  15.133  0.00  0.00    +0.000 A 
ATOM     26  C   UNL     1       4.924   3.550  16.099  0.00  0.00    +0.000 A 
ATOM     27  C   UNL     1       4.361   4.115  17.256  0.00  0.00    +0.000 A 
BRANCH  27  28
ATOM     28  N   UNL     1       3.638   3.321  18.141  0.00  0.00    +0.000 N 
ATOM     29  C   UNL     1       2.562   2.425  17.669  0.00  0.00    +0.000 C 
ATOM     30  C   UNL     1       1.479   2.396  18.762  0.00  0.00    +0.000 C 
ATOM     31  O   UNL     1       2.004   1.919  20.007  0.00  0.00    +0.000 OA
ATOM     32  C   UNL     1       3.126   2.711  20.429  0.00  0.00    +0.000 C 
ATOM     33  C   UNL     1       4.245   2.780  19.365  0.00  0.00    +0.000 C 
ENDBRANCH  27  28
ENDBRANCH  20  22
ENDBRANCH   1  18
TORSDOF 5
ENDMDL
MODEL 5
REMARK VINA RESULT:      -8.5      2.731      4.112
REMARK  Name = 
REMARK  6 active torsions:
REMARK  status: ('A' for Active; 'I' for Inactive)
REMARK    1  A    between atoms: C_1  and  C_2
REMARK    2  A    between atoms: N_10  and  C_11
REMARK    3  A    between atoms: N_14  and  C_15
REMARK    4  A    between atoms: C_15  and  C_16
REMARK    5  A    between atoms: N_18  and  C_19
REMARK    6  A    between atoms: C_24  and  N_25
REMARK                            x       y       z     vdW  Elec       q    Type
REMARK                         _______ _______ _______ _____ _____    ______ ____
ROOT
ATOM      1  C   UNL     1       2.470   8.296  18.476  0.00  0.00    +0.000 C 
ENDROOT
BRANCH   1   5
ATOM      2  C   UNL     1      -0.598  10.993  19.945  0.00  0.00    +0.000 C 
ATOM      3  C   UNL     1      -0.198   9.750  20.745  0.00  0.00    +0.000 C 
ATOM      4  C   UNL     1       1.113   9.103  20.315  0.00  0.00    +0.000 C 
ATOM      5  N   UNL     1       1.164   8.907  18.852  0.00  0.00    +0.000 NA
ATOM      6  C   UNL     1       1.087  10.228  18.195  0.00  0.00    +0.000 C 
ATOM      7  C   UNL     1      -0.270  10.870  18.453  0.00  0.00    +0.000 C 
BRANCH   2  17
ATOM      8  C   UNL     1      -0.080  17.721  19.706  0.00  0.00    +0.000 C 
ATOM      9  C   UNL     1      -0.056  16.225  19.824  0.00  0.00    +0.000 A 
ATOM     10  C   UNL     1      -0.225  15.409  18.696  0.00  0.00    +0.000 A 
ATOM     11  C   UNL     1      -0.231  14.009  18.789  0.00  0.00    +0.000 A 
ATOM     12  C   UNL     1      -0.047  13.459  20.064  0.00  0.00    +0.000 A 
ATOM     13  C   UNL     1       0.160  14.241  21.195  0.00  0.00    +0.000 A 
ATOM     14  C   UNL     1       0.144  15.638  21.086  0.00  0.00    +0.000 A 
ATOM     15  N   UNL     1       0.337  13.438  22.288  0.00  0.00    +0.000 NA
ATOM     16  N   UNL     1       0.227  12.181  21.888  0.00  0.00    +0.000 NA
ATOM     17  N   UNL     1      -0.058  12.186  20.574  0.00  0.00    +0.000 N 
ENDBRANCH   2  17
ENDBRANCH   1   5
BRANCH   1  18
ATOM     18  C   UNL     1       2.589   6.821  18.857  0.00  0.00    +0.000 C 
ATOM     19  O   UNL     1       2.728   6.520  20.041  0.00  0.00    +0.000 OA
ATOM     20  N   UNL     1       2.531   5.924  17.796  0.00  0.00    +0.000 N 
ATOM     21  H   UNL     1       2.271   6.302  16.895  0.00  0.00    +0.000 HD
BRANCH  20  22
ATOM     22  C   UNL     1       2.564   4.512  17.910  0.00  0.00    +0.000 A 
ATOM     23  C   UNL     1       1.401   3.823  18.318  0.00  0.00    +0.000 A 
ATOM     24  C   UNL     1       1.398   2.450  18.503  0.00  0.00    +0.000 A 
ATOM     25  C   UNL     1       2.549   1.725  18.271  0.00  0.00    +0.000 A 
ATOM     26  C   UNL     1       3.721   2.393  17.865  0.00  0.00    +0.000 A 
ATOM     27  C   UNL     1       3.771   3.785  17.682  0.00  0.00    +0.000 A 
BRANCH  27  28
ATOM     28  N   UNL     1       4.973   4.405  17.352  0.00  0.00    +0.000 N 
ATOM     29  C   UNL     1       5.150   5.107  16.065  0.00  0.00    +0.000 C 
ATOM     30  C   UNL     1       6.612   4.901  15.630  0.00  0.00    +0.000 C 
ATOM     31  O   UNL     1       7.526   5.422  16.602  0.00  0.00    +0.000 OA
ATOM     32  C   UNL     1       7.296   4.832  17.891  0.00  0.00    +0.000 C 
ATOM     33  C   UNL     1       5.839   5.003  18.378  0.00  0.00    +0.000 C 
ENDBRANCH  27  28
ENDBRANCH  20  22
ENDBRANCH   1  18
TORSDOF 5
ENDMDL
MODEL 6
REMARK VINA RESULT:      -8.4      2.100      3.525
REMARK  Name = 
REMARK  6 active torsions:
REMARK  status: ('A' for Active; 'I' for Inactive)
REMARK    1  A    between atoms: C_1  and  C_2
REMARK    2  A    between atoms: N_10  and  C_11
REMARK    3  A    between atoms: N_14  and  C_15
REMARK    4  A    between atoms: C_15  and  C_16
REMARK    5  A    between atoms: N_18  and  C_19
REMARK    6  A    between atoms: C_24  and  N_25
REMARK                            x       y       z     vdW  Elec       q    Type
REMARK                         _______ _______ _______ _____ _____    ______ ____
ROOT
ATOM      1  C   UNL     1       2.430   8.287  18.564  0.00  0.00    +0.000 C 
ENDROOT
BRANCH   1   5
ATOM      2  C   UNL     1      -0.807  10.816  19.967  0.00  0.00    +0.000 C 
ATOM      3  C   UNL     1      -0.308   9.641  20.811  0.00  0.00    +0.000 C 
ATOM      4  C   UNL     1       1.042   9.072  20.388  0.00  0.00    +0.000 C 
ATOM      5  N   UNL     1       1.088   8.818  18.935  0.00  0.00    +0.000 NA
ATOM      6  C   UNL     1       0.908  10.101  18.224  0.00  0.00    +0.000 C 
ATOM      7  C   UNL     1      -0.490  10.653  18.477  0.00  0.00    +0.000 C 
BRANCH   2  17
ATOM      8  C   UNL     1      -2.154  15.868  24.239  0.00  0.00    +0.000 C 
ATOM      9  C   UNL     1      -1.779  14.848  23.204  0.00  0.00    +0.000 A 
ATOM     10  C   UNL     1      -2.760  14.092  22.546  0.00  0.00    +0.000 A 
ATOM     11  C   UNL     1      -2.428  13.117  21.594  0.00  0.00    +0.000 A 
ATOM     12  C   UNL     1      -1.066  12.937  21.320  0.00  0.00    +0.000 A 
ATOM     13  C   UNL     1      -0.073  13.696  21.928  0.00  0.00    +0.000 A 
ATOM     14  C   UNL     1      -0.421  14.654  22.891  0.00  0.00    +0.000 A 
ATOM     15  N   UNL     1       1.154  13.326  21.449  0.00  0.00    +0.000 NA
ATOM     16  N   UNL     1       0.967  12.346  20.578  0.00  0.00    +0.000 NA
ATOM     17  N   UNL     1      -0.348  12.071  20.537  0.00  0.00    +0.000 N 
ENDBRANCH   2  17
ENDBRANCH   1   5
BRANCH   1  18
ATOM     18  C   UNL     1       2.619   6.808  18.899  0.00  0.00    +0.000 C 
ATOM     19  O   UNL     1       2.857   6.486  20.061  0.00  0.00    +0.000 OA
ATOM     20  N   UNL     1       2.504   5.934  17.824  0.00  0.00    +0.000 N 
ATOM     21  H   UNL     1       2.165   6.323  16.955  0.00  0.00    +0.000 HD
BRANCH  20  22
ATOM     22  C   UNL     1       2.584   4.521  17.901  0.00  0.00    +0.000 A 
ATOM     23  C   UNL     1       1.444   3.783  18.284  0.00  0.00    +0.000 A 
ATOM     24  C   UNL     1       1.486   2.406  18.433  0.00  0.00    +0.000 A 
ATOM     25  C   UNL     1       2.662   1.727  18.189  0.00  0.00    +0.000 A 
ATOM     26  C   UNL     1       3.813   2.445  17.807  0.00  0.00    +0.000 A 
ATOM     27  C   UNL     1       3.816   3.842  17.661  0.00  0.00    +0.000 A 
BRANCH  27  28
ATOM     28  N   UNL     1       4.999   4.510  17.355  0.00  0.00    +0.000 N 
ATOM     29  C   UNL     1       5.159   5.251  16.086  0.00  0.00    +0.000 C 
ATOM     30  C   UNL     1       6.629   5.105  15.656  0.00  0.00    +0.000 C 
ATOM     31  O   UNL     1       7.519   5.633  16.647  0.00  0.00    +0.000 OA
ATOM     32  C   UNL     1       7.302   5.003  17.919  0.00  0.00    +0.000 C 
ATOM     33  C   UNL     1       5.837   5.112  18.401  0.00  0.00    +0.000 C 
ENDBRANCH  27  28
ENDBRANCH  20  22
ENDBRANCH   1  18
TORSDOF 5
ENDMDL
MODEL 7
REMARK VINA RESULT:      -8.4      2.235      3.098
REMARK  Name = 
REMARK  6 active torsions:
REMARK  status: ('A' for Active; 'I' for Inactive)
REMARK    1  A    between atoms: C_1  and  C_2
REMARK    2  A    between atoms: N_10  and  C_11
REMARK    3  A    between atoms: N_14  and  C_15
REMARK    4  A    between atoms: C_15  and  C_16
REMARK    5  A    between atoms: N_18  and  C_19
REMARK    6  A    between atoms: C_24  and  N_25
REMARK                            x       y       z     vdW  Elec       q    Type
REMARK                         _______ _______ _______ _____ _____    ______ ____
ROOT
ATOM      1  C   UNL     1       1.844   7.898  20.338  0.00  0.00    +0.000 C 
ENDROOT
BRANCH   1   5
ATOM      2  C   UNL     1      -0.650  11.292  19.285  0.00  0.00    +0.000 C 
ATOM      3  C   UNL     1       0.677  11.039  18.563  0.00  0.00    +0.000 C 
ATOM      4  C   UNL     1       1.263   9.647  18.764  0.00  0.00    +0.000 C 
ATOM      5  N   UNL     1       1.287   9.273  20.192  0.00  0.00    +0.000 NA
ATOM      6  C   UNL     1      -0.102   9.243  20.696  0.00  0.00    +0.000 C 
ATOM      7  C   UNL     1      -0.703  10.643  20.672  0.00  0.00    +0.000 C 
BRANCH   2  17
ATOM      8  C   UNL     1      -6.978  12.722  17.415  0.00  0.00    +0.000 C 
ATOM      9  C   UNL     1      -5.603  12.258  17.799  0.00  0.00    +0.000 A 
ATOM     10  C   UNL     1      -5.082  12.521  19.074  0.00  0.00    +0.000 A 
ATOM     11  C   UNL     1      -3.790  12.117  19.443  0.00  0.00    +0.000 A 
ATOM     12  C   UNL     1      -3.044  11.426  18.481  0.00  0.00    +0.000 A 
ATOM     13  C   UNL     1      -3.547  11.118  17.221  0.00  0.00    +0.000 A 
ATOM     14  C   UNL     1      -4.832  11.546  16.863  0.00  0.00    +0.000 A 
ATOM     15  N   UNL     1      -2.614  10.416  16.508  0.00  0.00    +0.000 NA
ATOM     16  N   UNL     1      -1.536  10.292  17.266  0.00  0.00    +0.000 NA
ATOM     17  N   UNL     1      -1.763  10.939  18.422  0.00  0.00    +0.000 N 
ENDBRANCH   2  17
ENDBRANCH   1   5
BRANCH   1  18
ATOM     18  C   UNL     1       2.295   7.276  19.017  0.00  0.00    +0.000 C 
ATOM     19  O   UNL     1       1.619   7.463  18.008  0.00  0.00    +0.000 OA
ATOM     20  N   UNL     1       3.466   6.528  19.080  0.00  0.00    +0.000 N 
ATOM     21  H   UNL     1       3.991   6.577  19.942  0.00  0.00    +0.000 HD
BRANCH  20  22
ATOM     22  C   UNL     1       4.104   5.905  17.978  0.00  0.00    +0.000 A 
ATOM     23  C   UNL     1       4.815   6.699  17.052  0.00  0.00    +0.000 A 
ATOM     24  C   UNL     1       5.406   6.147  15.926  0.00  0.00    +0.000 A 
ATOM     25  C   UNL     1       5.316   4.789  15.702  0.00  0.00    +0.000 A 
ATOM     26  C   UNL     1       4.609   3.979  16.613  0.00  0.00    +0.000 A 
ATOM     27  C   UNL     1       3.983   4.501  17.757  0.00  0.00    +0.000 A 
BRANCH  27  28
ATOM     28  N   UNL     1       3.234   3.669  18.585  0.00  0.00    +0.000 N 
ATOM     29  C   UNL     1       2.000   3.012  18.105  0.00  0.00    +0.000 C 
ATOM     30  C   UNL     1       1.028   2.940  19.296  0.00  0.00    +0.000 C 
ATOM     31  O   UNL     1       1.588   2.196  20.385  0.00  0.00    +0.000 OA
ATOM     32  C   UNL     1       2.847   2.753  20.794  0.00  0.00    +0.000 C 
ATOM     33  C   UNL     1       3.864   2.855  19.635  0.00  0.00    +0.000 C 
ENDBRANCH  27  28
ENDBRANCH  20  22
ENDBRANCH   1  18
TORSDOF 5
ENDMDL
MODEL 8
REMARK VINA RESULT:      -8.4      2.819      4.961
REMARK  Name = 
REMARK  6 active torsions:
REMARK  status: ('A' for Active; 'I' for Inactive)
REMARK    1  A    between atoms: C_1  and  C_2
REMARK    2  A    between atoms: N_10  and  C_11
REMARK    3  A    between atoms: N_14  and  C_15
REMARK    4  A    between atoms: C_15  and  C_16
REMARK    5  A    between atoms: N_18  and  C_19
REMARK    6  A    between atoms: C_24  and  N_25
REMARK                            x       y       z     vdW  Elec       q    Type
REMARK                         _______ _______ _______ _____ _____    ______ ____
ROOT
ATOM      1  C   UNL     1       2.227   8.316  18.445  0.00  0.00    +0.000 C 
ENDROOT
BRANCH   1   5
ATOM      2  C   UNL     1      -0.909  11.070  19.638  0.00  0.00    +0.000 C 
ATOM      3  C   UNL     1      -0.176  10.218  20.678  0.00  0.00    +0.000 C 
ATOM      4  C   UNL     1       1.120   9.582  20.189  0.00  0.00    +0.000 C 
ATOM      5  N   UNL     1       0.932   8.900  18.893  0.00  0.00    +0.000 NA
ATOM      6  C   UNL     1       0.526   9.903  17.887  0.00  0.00    +0.000 C 
ATOM      7  C   UNL     1      -0.846  10.471  18.229  0.00  0.00    +0.000 C 
BRANCH   2  17
ATOM      8  C   UNL     1       3.591  15.639  17.525  0.00  0.00    +0.000 C 
ATOM      9  C   UNL     1       2.586  14.700  18.127  0.00  0.00    +0.000 A 
ATOM     10  C   UNL     1       2.845  13.325  18.216  0.00  0.00    +0.000 A 
ATOM     11  C   UNL     1       1.908  12.429  18.753  0.00  0.00    +0.000 A 
ATOM     12  C   UNL     1       0.701  12.973  19.208  0.00  0.00    +0.000 A 
ATOM     13  C   UNL     1       0.430  14.336  19.167  0.00  0.00    +0.000 A 
ATOM     14  C   UNL     1       1.370  15.215  18.611  0.00  0.00    +0.000 A 
ATOM     15  N   UNL     1      -0.805  14.580  19.703  0.00  0.00    +0.000 NA
ATOM     16  N   UNL     1      -1.328  13.417  20.059  0.00  0.00    +0.000 NA
ATOM     17  N   UNL     1      -0.460  12.449  19.716  0.00  0.00    +0.000 N 
ENDBRANCH   2  17
ENDBRANCH   1   5
BRANCH   1  18
ATOM     18  C   UNL     1       2.419   6.858  18.863  0.00  0.00    +0.000 C 
ATOM     19  O   UNL     1       2.579   6.595  20.053  0.00  0.00    +0.000 OA
ATOM     20  N   UNL     1       2.399   5.933  17.824  0.00  0.00    +0.000 N 
ATOM     21  H   UNL     1       2.117   6.274  16.916  0.00  0.00    +0.000 HD
BRANCH  20  22
ATOM     22  C   UNL     1       2.501   4.527  17.974  0.00  0.00    +0.000 A 
ATOM     23  C   UNL     1       1.421   3.811  18.536  0.00  0.00    +0.000 A 
ATOM     24  C   UNL     1       1.493   2.445  18.759  0.00  0.00    +0.000 A 
ATOM     25  C   UNL     1       2.637   1.755  18.414  0.00  0.00    +0.000 A 
ATOM     26  C   UNL     1       3.727   2.451  17.854  0.00  0.00    +0.000 A 
ATOM     27  C   UNL     1       3.700   3.837  17.626  0.00  0.00    +0.000 A 
BRANCH  27  28
ATOM     28  N   UNL     1       4.831   4.488  17.140  0.00  0.00    +0.000 N 
ATOM     29  C   UNL     1       5.801   5.130  18.050  0.00  0.00    +0.000 C 
ATOM     30  C   UNL     1       6.342   6.379  17.332  0.00  0.00    +0.000 C 
ATOM     31  O   UNL     1       6.982   6.037  16.096  0.00  0.00    +0.000 OA
ATOM     32  C   UNL     1       6.086   5.311  15.239  0.00  0.00    +0.000 C 
ATOM     33  C   UNL     1       5.506   4.047  15.912  0.00  0.00    +0.000 C 
ENDBRANCH  27  28
ENDBRANCH  20  22
ENDBRANCH   1  18
TORSDOF 5
ENDMDL
MODEL 9
REMARK VINA RESULT:      -8.4      2.759      3.247
REMARK  Name = 
REMARK  6 active torsions:
REMARK  status: ('A' for Active; 'I' for Inactive)
REMARK    1  A    between atoms: C_1  and  C_2
REMARK    2  A    between atoms: N_10  and  C_11
REMARK    3  A    between atoms: N_14  and  C_15
REMARK    4  A    between atoms: C_15  and  C_16
REMARK    5  A    between atoms: N_18  and  C_19
REMARK    6  A    between atoms: C_24  and  N_25
REMARK                            x       y       z     vdW  Elec       q    Type
REMARK                         _______ _______ _______ _____ _____    ______ ____
ROOT
ATOM      1  C   UNL     1       2.231   7.344  20.017  0.00  0.00    +0.000 C 
ENDROOT
BRANCH   1   5
ATOM      2  C   UNL     1      -0.029  11.037  19.691  0.00  0.00    +0.000 C 
ATOM      3  C   UNL     1      -0.220  10.103  20.889  0.00  0.00    +0.000 C 
ATOM      4  C   UNL     1       0.869   9.053  21.067  0.00  0.00    +0.000 C 
ATOM      5  N   UNL     1       1.145   8.342  19.802  0.00  0.00    +0.000 NA
ATOM      6  C   UNL     1       1.633   9.320  18.808  0.00  0.00    +0.000 C 
ATOM      7  C   UNL     1       0.532  10.315  18.461  0.00  0.00    +0.000 C 
BRANCH   2  17
ATOM      8  C   UNL     1       0.390  17.773  19.529  0.00  0.00    +0.000 C 
ATOM      9  C   UNL     1       0.450  16.274  19.566  0.00  0.00    +0.000 A 
ATOM     10  C   UNL     1      -0.175  15.502  18.576  0.00  0.00    +0.000 A 
ATOM     11  C   UNL     1      -0.151  14.099  18.608  0.00  0.00    +0.000 A 
ATOM     12  C   UNL     1       0.538  13.501  19.670  0.00  0.00    +0.000 A 
ATOM     13  C   UNL     1       1.199  14.240  20.646  0.00  0.00    +0.000 A 
ATOM     14  C   UNL     1       1.149  15.640  20.609  0.00  0.00    +0.000 A 
ATOM     15  N   UNL     1       1.806  13.397  21.535  0.00  0.00    +0.000 NA
ATOM     16  N   UNL     1       1.532  12.155  21.166  0.00  0.00    +0.000 NA
ATOM     17  N   UNL     1       0.730  12.210  20.088  0.00  0.00    +0.000 N 
ENDBRANCH   2  17
ENDBRANCH   1   5
BRANCH   1  18
ATOM     18  C   UNL     1       2.601   6.561  18.758  0.00  0.00    +0.000 C 
ATOM     19  O   UNL     1       1.712   6.243  17.970  0.00  0.00    +0.000 OA
ATOM     20  N   UNL     1       3.953   6.265  18.616  0.00  0.00    +0.000 N 
ATOM     21  H   UNL     1       4.586   6.710  19.266  0.00  0.00    +0.000 HD
BRANCH  20  22
ATOM     22  C   UNL     1       4.536   5.600  17.510  0.00  0.00    +0.000 A 
ATOM     23  C   UNL     1       5.245   6.350  16.546  0.00  0.00    +0.000 A 
ATOM     24  C   UNL     1       5.783   5.756  15.416  0.00  0.00    +0.000 A 
ATOM     25  C   UNL     1       5.643   4.397  15.223  0.00  0.00    +0.000 A 
ATOM     26  C   UNL     1       4.938   3.630  16.172  0.00  0.00    +0.000 A 
ATOM     27  C   UNL     1       4.363   4.196  17.323  0.00  0.00    +0.000 A 
BRANCH  27  28
ATOM     28  N   UNL     1       3.613   3.406  18.190  0.00  0.00    +0.000 N 
ATOM     29  C   UNL     1       2.543   2.518  17.692  0.00  0.00    +0.000 C 
ATOM     30  C   UNL     1       1.434   2.497  18.759  0.00  0.00    +0.000 C 
ATOM     31  O   UNL     1       1.926   2.015  20.016  0.00  0.00    +0.000 OA
ATOM     32  C   UNL     1       3.042   2.799  20.464  0.00  0.00    +0.000 C 
ATOM     33  C   UNL     1       4.187   2.861  19.428  0.00  0.00    +0.000 C 
ENDBRANCH  27  28
ENDBRANCH  20  22
ENDBRANCH   1  18
TORSDOF 5
ENDMDL
