MODEL 1
REMARK VINA RESULT:      -6.9      0.000      0.000
REMARK  Name = 
REMARK  10 active torsions:
REMARK  status: ('A' for Active; 'I' for Inactive)
REMARK    1  A    between atoms: C_1  and  O_2
REMARK    2  A    between atoms: O_2  and  C_3
REMARK    3  A    between atoms: C_6  and  C_7
REMARK    4  A    between atoms: C_7  and  N_8
REMARK    5  A    between atoms: N_8  and  C_9
REMARK    6  A    between atoms: C_19  and  O_20
REMARK    7  A    between atoms: O_20  and  C_21
REMARK    8  A    between atoms: C_21  and  C_22
REMARK    9  A    between atoms: C_22  and  C_23
REMARK   10  A    between atoms: C_23  and  C_24
REMARK                            x       y       z     vdW  Elec       q    Type
REMARK                         _______ _______ _______ _____ _____    ______ ____
ROOT
ATOM      1  C   UNL     1       4.962   4.901  17.107  0.00  0.00    +0.000 A 
ATOM      2  C   UNL     1       5.391   6.211  17.318  0.00  0.00    +0.000 A 
ATOM      3  C   UNL     1       4.495   7.209  17.699  0.00  0.00    +0.000 A 
ATOM      4  C   UNL     1       3.140   6.921  17.896  0.00  0.00    +0.000 A 
ATOM      5  C   UNL     1       2.710   5.593  17.743  0.00  0.00    +0.000 A 
ATOM      6  C   UNL     1       3.611   4.581  17.386  0.00  0.00    +0.000 A 
ENDROOT
BRANCH   1   8
ATOM      7  C   UNL     1       6.498   4.067  15.438  0.00  0.00    +0.000 C 
ATOM      8  O   UNL     1       5.777   3.904  16.654  0.00  0.00    +0.000 OA
ENDBRANCH   1   8
BRANCH   4   9
ATOM      9  C   UNL     1       2.198   8.026  18.311  0.00  0.00    +0.000 C 
BRANCH   9  10
ATOM     10  N   UNL     1       2.020   8.022  19.765  0.00  0.00    +0.000 NA
ATOM     11  H   UNL     1       2.872   8.399  20.186  0.00  0.00    +0.000 HD
BRANCH  10  12
ATOM     12  C   UNL     1       0.852   8.785  20.228  0.00  0.00    +0.000 C 
ATOM     13  C   UNL     1       0.718  10.034  19.328  0.00  0.00    +0.000 C 
ATOM     14  C   UNL     1      -0.548  10.831  19.663  0.00  0.00    +0.000 C 
ATOM     15  C   UNL     1      -0.707  11.010  21.127  0.00  0.00    +0.000 A 
ATOM     16  N   UNL     1      -1.486  11.845  21.780  0.00  0.00    +0.000 NA
ATOM     17  C   UNL     1      -1.238  11.536  23.090  0.00  0.00    +0.000 A 
ATOM     18  N   UNL     1      -0.356  10.551  23.289  0.00  0.00    +0.000 NA
ATOM     19  N   UNL     1      -0.038  10.233  22.025  0.00  0.00    +0.000 N 
ATOM     20  C   UNL     1       0.949   9.226  21.706  0.00  0.00    +0.000 C 
ENDBRANCH  10  12
ENDBRANCH   9  10
ENDBRANCH   4   9
BRANCH   6  21
ATOM     21  O   UNL     1       3.037   3.327  17.337  0.00  0.00    +0.000 OA
BRANCH  21  22
ATOM     22  C   UNL     1       3.060   2.597  18.563  0.00  0.00    +0.000 C 
BRANCH  22  23
ATOM     23  C   UNL     1       1.663   2.132  18.935  0.00  0.00    +0.000 C 
BRANCH  23  24
ATOM     24  C   UNL     1       0.899   3.062  19.883  0.00  0.00    +0.000 C 
BRANCH  24  25
ATOM     25  C   UNL     1       1.666   3.025  21.193  0.00  0.00    +0.000 C 
ATOM     26  N   UNL     1       2.303   2.994  22.282  0.00  0.00    +0.000 NA
ENDBRANCH  24  25
ENDBRANCH  23  24
ENDBRANCH  22  23
ENDBRANCH  21  22
ENDBRANCH   6  21
TORSDOF 9
ENDMDL
MODEL 2
REMARK VINA RESULT:      -6.8      2.265      4.106
REMARK  Name = 
REMARK  10 active torsions:
REMARK  status: ('A' for Active; 'I' for Inactive)
REMARK    1  A    between atoms: C_1  and  O_2
REMARK    2  A    between atoms: O_2  and  C_3
REMARK    3  A    between atoms: C_6  and  C_7
REMARK    4  A    between atoms: C_7  and  N_8
REMARK    5  A    between atoms: N_8  and  C_9
REMARK    6  A    between atoms: C_19  and  O_20
REMARK    7  A    between atoms: O_20  and  C_21
REMARK    8  A    between atoms: C_21  and  C_22
REMARK    9  A    between atoms: C_22  and  C_23
REMARK   10  A    between atoms: C_23  and  C_24
REMARK                            x       y       z     vdW  Elec       q    Type
REMARK                         _______ _______ _______ _____ _____    ______ ____
ROOT
ATOM      1  C   UNL     1       3.415   3.299  19.562  0.00  0.00    +0.000 A 
ATOM      2  C   UNL     1       2.087   3.660  19.784  0.00  0.00    +0.000 A 
ATOM      3  C   UNL     1       1.712   4.998  19.892  0.00  0.00    +0.000 A 
ATOM      4  C   UNL     1       2.659   6.020  19.764  0.00  0.00    +0.000 A 
ATOM      5  C   UNL     1       3.988   5.669  19.482  0.00  0.00    +0.000 A 
ATOM      6  C   UNL     1       4.365   4.326  19.346  0.00  0.00    +0.000 A 
ENDROOT
BRANCH   1   8
ATOM      7  C   UNL     1       3.705   1.231  18.345  0.00  0.00    +0.000 C 
ATOM      8  O   UNL     1       3.850   2.006  19.530  0.00  0.00    +0.000 OA
ENDBRANCH   1   8
BRANCH   4   9
ATOM      9  C   UNL     1       2.219   7.460  19.885  0.00  0.00    +0.000 C 
BRANCH   9  10
ATOM     10  N   UNL     1       1.522   7.674  21.156  0.00  0.00    +0.000 NA
ATOM     11  H   UNL     1       2.171   7.445  21.912  0.00  0.00    +0.000 HD
BRANCH  10  12
ATOM     12  C   UNL     1       1.005   9.038  21.335  0.00  0.00    +0.000 C 
ATOM     13  C   UNL     1       0.011   9.014  22.517  0.00  0.00    +0.000 C 
ATOM     14  C   UNL     1      -0.491  10.422  22.854  0.00  0.00    +0.000 C 
ATOM     15  C   UNL     1      -0.883  11.168  21.633  0.00  0.00    +0.000 A 
ATOM     16  N   UNL     1      -1.600  12.266  21.526  0.00  0.00    +0.000 NA
ATOM     17  C   UNL     1      -1.601  12.502  20.177  0.00  0.00    +0.000 A 
ATOM     18  N   UNL     1      -0.920  11.619  19.441  0.00  0.00    +0.000 NA
ATOM     19  N   UNL     1      -0.471  10.784  20.391  0.00  0.00    +0.000 N 
ATOM     20  C   UNL     1       0.299   9.600  20.081  0.00  0.00    +0.000 C 
ENDBRANCH  10  12
ENDBRANCH   9  10
ENDBRANCH   4   9
BRANCH   6  21
ATOM     21  O   UNL     1       5.693   4.159  19.010  0.00  0.00    +0.000 OA
BRANCH  21  22
ATOM     22  C   UNL     1       6.080   4.718  17.755  0.00  0.00    +0.000 C 
BRANCH  22  23
ATOM     23  C   UNL     1       5.182   4.206  16.642  0.00  0.00    +0.000 C 
BRANCH  23  24
ATOM     24  C   UNL     1       5.917   3.617  15.434  0.00  0.00    +0.000 C 
BRANCH  24  25
ATOM     25  C   UNL     1       6.922   4.677  15.015  0.00  0.00    +0.000 C 
ATOM     26  N   UNL     1       7.756   5.556  14.667  0.00  0.00    +0.000 NA
ENDBRANCH  24  25
ENDBRANCH  23  24
ENDBRANCH  22  23
ENDBRANCH  21  22
ENDBRANCH   6  21
TORSDOF 9
ENDMDL
MODEL 3
REMARK VINA RESULT:      -6.7      3.593      8.356
REMARK  Name = 
REMARK  10 active torsions:
REMARK  status: ('A' for Active; 'I' for Inactive)
REMARK    1  A    between atoms: C_1  and  O_2
REMARK    2  A    between atoms: O_2  and  C_3
REMARK    3  A    between atoms: C_6  and  C_7
REMARK    4  A    between atoms: C_7  and  N_8
REMARK    5  A    between atoms: N_8  and  C_9
REMARK    6  A    between atoms: C_19  and  O_20
REMARK    7  A    between atoms: O_20  and  C_21
REMARK    8  A    between atoms: C_21  and  C_22
REMARK    9  A    between atoms: C_22  and  C_23
REMARK   10  A    between atoms: C_23  and  C_24
REMARK                            x       y       z     vdW  Elec       q    Type
REMARK                         _______ _______ _______ _____ _____    ______ ____
ROOT
ATOM      1  C   UNL     1       1.297   9.883  18.704  0.00  0.00    +0.000 A 
ATOM      2  C   UNL     1       1.726   9.068  17.657  0.00  0.00    +0.000 A 
ATOM      3  C   UNL     1       2.174   7.769  17.893  0.00  0.00    +0.000 A 
ATOM      4  C   UNL     1       2.190   7.239  19.188  0.00  0.00    +0.000 A 
ATOM      5  C   UNL     1       1.705   8.032  20.240  0.00  0.00    +0.000 A 
ATOM      6  C   UNL     1       1.229   9.329  20.005  0.00  0.00    +0.000 A 
ENDROOT
BRANCH   1   8
ATOM      7  C   UNL     1       1.799  12.234  18.955  0.00  0.00    +0.000 C 
ATOM      8  O   UNL     1       0.928  11.187  18.542  0.00  0.00    +0.000 OA
ENDBRANCH   1   8
BRANCH   4   9
ATOM      9  C   UNL     1       2.679   5.827  19.407  0.00  0.00    +0.000 C 
BRANCH   9  10
ATOM     10  N   UNL     1       4.088   5.835  19.807  0.00  0.00    +0.000 NA
ATOM     11  H   UNL     1       4.156   5.400  20.730  0.00  0.00    +0.000 HD
BRANCH  10  12
ATOM     12  C   UNL     1       4.984   5.149  18.863  0.00  0.00    +0.000 C 
ATOM     13  C   UNL     1       6.404   5.727  19.057  0.00  0.00    +0.000 C 
ATOM     14  C   UNL     1       7.430   4.985  18.194  0.00  0.00    +0.000 C 
ATOM     15  C   UNL     1       6.941   4.795  16.807  0.00  0.00    +0.000 A 
ATOM     16  N   UNL     1       7.617   4.465  15.727  0.00  0.00    +0.000 NA
ATOM     17  C   UNL     1       6.646   4.405  14.763  0.00  0.00    +0.000 A 
ATOM     18  N   UNL     1       5.405   4.671  15.183  0.00  0.00    +0.000 NA
ATOM     19  N   UNL     1       5.621   4.912  16.485  0.00  0.00    +0.000 N 
ATOM     20  C   UNL     1       4.561   5.308  17.386  0.00  0.00    +0.000 C 
ENDBRANCH  10  12
ENDBRANCH   9  10
ENDBRANCH   4   9
BRANCH   6  21
ATOM     21  O   UNL     1       0.735   9.946  21.136  0.00  0.00    +0.000 OA
BRANCH  21  22
ATOM     22  C   UNL     1       0.043   9.091  22.045  0.00  0.00    +0.000 C 
BRANCH  22  23
ATOM     23  C   UNL     1      -0.716   9.908  23.076  0.00  0.00    +0.000 C 
BRANCH  23  24
ATOM     24  C   UNL     1      -0.930  11.380  22.710  0.00  0.00    +0.000 C 
BRANCH  24  25
ATOM     25  C   UNL     1      -2.315  11.728  23.229  0.00  0.00    +0.000 C 
ATOM     26  N   UNL     1      -3.464  12.018  23.660  0.00  0.00    +0.000 NA
ENDBRANCH  24  25
ENDBRANCH  23  24
ENDBRANCH  22  23
ENDBRANCH  21  22
ENDBRANCH   6  21
TORSDOF 9
ENDMDL
MODEL 4
REMARK VINA RESULT:      -6.7      1.355      1.776
REMARK  Name = 
REMARK  10 active torsions:
REMARK  status: ('A' for Active; 'I' for Inactive)
REMARK    1  A    between atoms: C_1  and  O_2
REMARK    2  A    between atoms: O_2  and  C_3
REMARK    3  A    between atoms: C_6  and  C_7
REMARK    4  A    between atoms: C_7  and  N_8
REMARK    5  A    between atoms: N_8  and  C_9
REMARK    6  A    between atoms: C_19  and  O_20
REMARK    7  A    between atoms: O_20  and  C_21
REMARK    8  A    between atoms: C_21  and  C_22
REMARK    9  A    between atoms: C_22  and  C_23
REMARK   10  A    between atoms: C_23  and  C_24
REMARK                            x       y       z     vdW  Elec       q    Type
REMARK                         _______ _______ _______ _____ _____    ______ ____
ROOT
ATOM      1  C   UNL     1       4.930   5.539  17.500  0.00  0.00    +0.000 A 
ATOM      2  C   UNL     1       4.304   6.756  17.232  0.00  0.00    +0.000 A 
ATOM      3  C   UNL     1       3.313   7.257  18.074  0.00  0.00    +0.000 A 
ATOM      4  C   UNL     1       2.928   6.560  19.224  0.00  0.00    +0.000 A 
ATOM      5  C   UNL     1       3.593   5.363  19.534  0.00  0.00    +0.000 A 
ATOM      6  C   UNL     1       4.609   4.868  18.705  0.00  0.00    +0.000 A 
ENDROOT
BRANCH   1   8
ATOM      7  C   UNL     1       5.417   4.101  15.620  0.00  0.00    +0.000 C 
ATOM      8  O   UNL     1       5.845   4.962  16.669  0.00  0.00    +0.000 OA
ENDBRANCH   1   8
BRANCH   4   9
ATOM      9  C   UNL     1       1.852   7.133  20.116  0.00  0.00    +0.000 C 
BRANCH   9  10
ATOM     10  N   UNL     1       1.603   8.535  19.774  0.00  0.00    +0.000 NA
ATOM     11  H   UNL     1       0.907   8.558  19.026  0.00  0.00    +0.000 HD
BRANCH  10  12
ATOM     12  C   UNL     1       1.150   9.357  20.907  0.00  0.00    +0.000 C 
ATOM     13  C   UNL     1      -0.063   8.646  21.548  0.00  0.00    +0.000 C 
ATOM     14  C   UNL     1      -0.530   9.373  22.814  0.00  0.00    +0.000 C 
ATOM     15  C   UNL     1      -0.618  10.838  22.600  0.00  0.00    +0.000 A 
ATOM     16  N   UNL     1      -1.226  11.747  23.331  0.00  0.00    +0.000 NA
ATOM     17  C   UNL     1      -0.939  12.913  22.672  0.00  0.00    +0.000 A 
ATOM     18  N   UNL     1      -0.180  12.781  21.579  0.00  0.00    +0.000 NA
ATOM     19  N   UNL     1       0.011  11.454  21.559  0.00  0.00    +0.000 N 
ATOM     20  C   UNL     1       0.750  10.794  20.505  0.00  0.00    +0.000 C 
ENDBRANCH  10  12
ENDBRANCH   9  10
ENDBRANCH   4   9
BRANCH   6  21
ATOM     21  O   UNL     1       5.198   3.716  19.186  0.00  0.00    +0.000 OA
BRANCH  21  22
ATOM     22  C   UNL     1       4.329   2.840  19.902  0.00  0.00    +0.000 C 
BRANCH  22  23
ATOM     23  C   UNL     1       3.470   2.036  18.941  0.00  0.00    +0.000 C 
BRANCH  23  24
ATOM     24  C   UNL     1       1.968   2.054  19.241  0.00  0.00    +0.000 C 
BRANCH  24  25
ATOM     25  C   UNL     1       1.853   2.389  20.718  0.00  0.00    +0.000 C 
ATOM     26  N   UNL     1       1.759   2.667  21.945  0.00  0.00    +0.000 NA
ENDBRANCH  24  25
ENDBRANCH  23  24
ENDBRANCH  22  23
ENDBRANCH  21  22
ENDBRANCH   6  21
TORSDOF 9
ENDMDL
MODEL 5
REMARK VINA RESULT:      -6.7      3.064      5.680
REMARK  Name = 
REMARK  10 active torsions:
REMARK  status: ('A' for Active; 'I' for Inactive)
REMARK    1  A    between atoms: C_1  and  O_2
REMARK    2  A    between atoms: O_2  and  C_3
REMARK    3  A    between atoms: C_6  and  C_7
REMARK    4  A    between atoms: C_7  and  N_8
REMARK    5  A    between atoms: N_8  and  C_9
REMARK    6  A    between atoms: C_19  and  O_20
REMARK    7  A    between atoms: O_20  and  C_21
REMARK    8  A    between atoms: C_21  and  C_22
REMARK    9  A    between atoms: C_22  and  C_23
REMARK   10  A    between atoms: C_23  and  C_24
REMARK                            x       y       z     vdW  Elec       q    Type
REMARK                         _______ _______ _______ _____ _____    ______ ____
ROOT
ATOM      1  C   UNL     1       6.551   4.641  16.717  0.00  0.00    +0.000 A 
ATOM      2  C   UNL     1       5.397   3.884  16.518  0.00  0.00    +0.000 A 
ATOM      3  C   UNL     1       4.495   3.660  17.556  0.00  0.00    +0.000 A 
ATOM      4  C   UNL     1       4.713   4.204  18.826  0.00  0.00    +0.000 A 
ATOM      5  C   UNL     1       5.841   5.016  19.021  0.00  0.00    +0.000 A 
ATOM      6  C   UNL     1       6.738   5.266  17.973  0.00  0.00    +0.000 A 
ENDROOT
BRANCH   1   8
ATOM      7  C   UNL     1       7.139   4.936  14.391  0.00  0.00    +0.000 C 
ATOM      8  O   UNL     1       7.508   4.823  15.761  0.00  0.00    +0.000 OA
ENDBRANCH   1   8
BRANCH   4   9
ATOM      9  C   UNL     1       3.713   3.943  19.928  0.00  0.00    +0.000 C 
BRANCH   9  10
ATOM     10  N   UNL     1       2.435   4.585  19.616  0.00  0.00    +0.000 NA
ATOM     11  H   UNL     1       1.728   4.201  20.246  0.00  0.00    +0.000 HD
BRANCH  10  12
ATOM     12  C   UNL     1       2.457   6.052  19.722  0.00  0.00    +0.000 C 
ATOM     13  C   UNL     1       1.309   6.473  20.667  0.00  0.00    +0.000 C 
ATOM     14  C   UNL     1       1.330   7.983  20.931  0.00  0.00    +0.000 C 
ATOM     15  C   UNL     1       1.516   8.753  19.678  0.00  0.00    +0.000 A 
ATOM     16  N   UNL     1       1.315  10.034  19.454  0.00  0.00    +0.000 NA
ATOM     17  C   UNL     1       1.683  10.179  18.143  0.00  0.00    +0.000 A 
ATOM     18  N   UNL     1       2.108   9.064  17.541  0.00  0.00    +0.000 NA
ATOM     19  N   UNL     1       1.995   8.175  18.540  0.00  0.00    +0.000 N 
ATOM     20  C   UNL     1       2.296   6.771  18.364  0.00  0.00    +0.000 C 
ENDBRANCH  10  12
ENDBRANCH   9  10
ENDBRANCH   4   9
BRANCH   6  21
ATOM     21  O   UNL     1       7.757   6.131  18.317  0.00  0.00    +0.000 OA
BRANCH  21  22
ATOM     22  C   UNL     1       7.694   7.420  17.708  0.00  0.00    +0.000 C 
BRANCH  22  23
ATOM     23  C   UNL     1       8.548   8.416  18.473  0.00  0.00    +0.000 C 
BRANCH  23  24
ATOM     24  C   UNL     1       8.381   9.878  18.048  0.00  0.00    +0.000 C 
BRANCH  24  25
ATOM     25  C   UNL     1       9.325  10.669  18.938  0.00  0.00    +0.000 C 
ATOM     26  N   UNL     1      10.109  11.325  19.676  0.00  0.00    +0.000 NA
ENDBRANCH  24  25
ENDBRANCH  23  24
ENDBRANCH  22  23
ENDBRANCH  21  22
ENDBRANCH   6  21
TORSDOF 9
ENDMDL
MODEL 6
REMARK VINA RESULT:      -6.7      1.202      1.331
REMARK  Name = 
REMARK  10 active torsions:
REMARK  status: ('A' for Active; 'I' for Inactive)
REMARK    1  A    between atoms: C_1  and  O_2
REMARK    2  A    between atoms: O_2  and  C_3
REMARK    3  A    between atoms: C_6  and  C_7
REMARK    4  A    between atoms: C_7  and  N_8
REMARK    5  A    between atoms: N_8  and  C_9
REMARK    6  A    between atoms: C_19  and  O_20
REMARK    7  A    between atoms: O_20  and  C_21
REMARK    8  A    between atoms: C_21  and  C_22
REMARK    9  A    between atoms: C_22  and  C_23
REMARK   10  A    between atoms: C_23  and  C_24
REMARK                            x       y       z     vdW  Elec       q    Type
REMARK                         _______ _______ _______ _____ _____    ______ ____
ROOT
ATOM      1  C   UNL     1       5.051   4.978  17.596  0.00  0.00    +0.000 A 
ATOM      2  C   UNL     1       4.489   6.187  17.187  0.00  0.00    +0.000 A 
ATOM      3  C   UNL     1       3.521   6.828  17.958  0.00  0.00    +0.000 A 
ATOM      4  C   UNL     1       3.096   6.284  19.175  0.00  0.00    +0.000 A 
ATOM      5  C   UNL     1       3.699   5.098  19.623  0.00  0.00    +0.000 A 
ATOM      6  C   UNL     1       4.692   4.463  18.865  0.00  0.00    +0.000 A 
ENDROOT
BRANCH   1   8
ATOM      7  C   UNL     1       7.328   4.575  16.894  0.00  0.00    +0.000 C 
ATOM      8  O   UNL     1       5.940   4.267  16.843  0.00  0.00    +0.000 OA
ENDBRANCH   1   8
BRANCH   4   9
ATOM      9  C   UNL     1       2.047   7.006  19.986  0.00  0.00    +0.000 C 
BRANCH   9  10
ATOM     10  N   UNL     1       1.981   8.415  19.593  0.00  0.00    +0.000 NA
ATOM     11  H   UNL     1       2.024   8.458  18.572  0.00  0.00    +0.000 HD
BRANCH  10  12
ATOM     12  C   UNL     1       0.782   9.117  20.075  0.00  0.00    +0.000 C 
ATOM     13  C   UNL     1       0.535  10.323  19.139  0.00  0.00    +0.000 C 
ATOM     14  C   UNL     1      -0.767  11.047  19.496  0.00  0.00    +0.000 C 
ATOM     15  C   UNL     1      -0.886  11.267  20.958  0.00  0.00    +0.000 A 
ATOM     16  N   UNL     1      -1.694  12.074  21.612  0.00  0.00    +0.000 NA
ATOM     17  C   UNL     1      -1.379  11.828  22.922  0.00  0.00    +0.000 A 
ATOM     18  N   UNL     1      -0.429  10.909  23.120  0.00  0.00    +0.000 NA
ATOM     19  N   UNL     1      -0.135  10.568  21.856  0.00  0.00    +0.000 N 
ATOM     20  C   UNL     1       0.903   9.615  21.532  0.00  0.00    +0.000 C 
ENDBRANCH  10  12
ENDBRANCH   9  10
ENDBRANCH   4   9
BRANCH   6  21
ATOM     21  O   UNL     1       5.220   3.345  19.477  0.00  0.00    +0.000 OA
BRANCH  21  22
ATOM     22  C   UNL     1       4.262   2.389  19.932  0.00  0.00    +0.000 C 
BRANCH  22  23
ATOM     23  C   UNL     1       3.519   1.776  18.758  0.00  0.00    +0.000 C 
BRANCH  23  24
ATOM     24  C   UNL     1       2.003   1.996  18.761  0.00  0.00    +0.000 C 
BRANCH  24  25
ATOM     25  C   UNL     1       1.645   2.326  20.201  0.00  0.00    +0.000 C 
ATOM     26  N   UNL     1       1.348   2.601  21.395  0.00  0.00    +0.000 NA
ENDBRANCH  24  25
ENDBRANCH  23  24
ENDBRANCH  22  23
ENDBRANCH  21  22
ENDBRANCH   6  21
TORSDOF 9
ENDMDL
MODEL 7
REMARK VINA RESULT:      -6.6      2.423      4.306
REMARK  Name = 
REMARK  10 active torsions:
REMARK  status: ('A' for Active; 'I' for Inactive)
REMARK    1  A    between atoms: C_1  and  O_2
REMARK    2  A    between atoms: O_2  and  C_3
REMARK    3  A    between atoms: C_6  and  C_7
REMARK    4  A    between atoms: C_7  and  N_8
REMARK    5  A    between atoms: N_8  and  C_9
REMARK    6  A    between atoms: C_19  and  O_20
REMARK    7  A    between atoms: O_20  and  C_21
REMARK    8  A    between atoms: C_21  and  C_22
REMARK    9  A    between atoms: C_22  and  C_23
REMARK   10  A    between atoms: C_23  and  C_24
REMARK                            x       y       z     vdW  Elec       q    Type
REMARK                         _______ _______ _______ _____ _____    ______ ____
ROOT
ATOM      1  C   UNL     1       2.758   3.578  19.483  0.00  0.00    +0.000 A 
ATOM      2  C   UNL     1       2.119   4.067  20.622  0.00  0.00    +0.000 A 
ATOM      3  C   UNL     1       1.858   5.428  20.773  0.00  0.00    +0.000 A 
ATOM      4  C   UNL     1       2.216   6.342  19.777  0.00  0.00    +0.000 A 
ATOM      5  C   UNL     1       2.806   5.853  18.601  0.00  0.00    +0.000 A 
ATOM      6  C   UNL     1       3.047   4.483  18.432  0.00  0.00    +0.000 A 
ENDROOT
BRANCH   1   8
ATOM      7  C   UNL     1       4.398   1.820  19.730  0.00  0.00    +0.000 C 
ATOM      8  O   UNL     1       3.112   2.270  19.319  0.00  0.00    +0.000 OA
ENDBRANCH   1   8
BRANCH   4   9
ATOM      9  C   UNL     1       1.917   7.810  19.972  0.00  0.00    +0.000 C 
BRANCH   9  10
ATOM     10  N   UNL     1       1.583   8.078  21.372  0.00  0.00    +0.000 NA
ATOM     11  H   UNL     1       2.445   8.023  21.917  0.00  0.00    +0.000 HD
BRANCH  10  12
ATOM     12  C   UNL     1       0.930   9.377  21.595  0.00  0.00    +0.000 C 
ATOM     13  C   UNL     1      -0.157   9.178  22.676  0.00  0.00    +0.000 C 
ATOM     14  C   UNL     1      -0.812  10.509  23.060  0.00  0.00    +0.000 C 
ATOM     15  C   UNL     1      -1.162  11.310  21.862  0.00  0.00    +0.000 A 
ATOM     16  N   UNL     1      -1.964  12.348  21.764  0.00  0.00    +0.000 NA
ATOM     17  C   UNL     1      -1.870  12.686  20.440  0.00  0.00    +0.000 A 
ATOM     18  N   UNL     1      -1.050  11.922  19.712  0.00  0.00    +0.000 NA
ATOM     19  N   UNL     1      -0.612  11.059  20.640  0.00  0.00    +0.000 N 
ATOM     20  C   UNL     1       0.287   9.971  20.323  0.00  0.00    +0.000 C 
ENDBRANCH  10  12
ENDBRANCH   9  10
ENDBRANCH   4   9
BRANCH   6  21
ATOM     21  O   UNL     1       3.576   4.165  17.198  0.00  0.00    +0.000 OA
BRANCH  21  22
ATOM     22  C   UNL     1       4.898   4.649  16.958  0.00  0.00    +0.000 C 
BRANCH  22  23
ATOM     23  C   UNL     1       5.568   3.848  15.855  0.00  0.00    +0.000 C 
BRANCH  23  24
ATOM     24  C   UNL     1       6.449   4.664  14.904  0.00  0.00    +0.000 C 
BRANCH  24  25
ATOM     25  C   UNL     1       6.309   3.993  13.547  0.00  0.00    +0.000 C 
ATOM     26  N   UNL     1       6.192   3.436  12.422  0.00  0.00    +0.000 NA
ENDBRANCH  24  25
ENDBRANCH  23  24
ENDBRANCH  22  23
ENDBRANCH  21  22
ENDBRANCH   6  21
TORSDOF 9
ENDMDL
MODEL 8
REMARK VINA RESULT:      -6.6      2.202      3.987
REMARK  Name = 
REMARK  10 active torsions:
REMARK  status: ('A' for Active; 'I' for Inactive)
REMARK    1  A    between atoms: C_1  and  O_2
REMARK    2  A    between atoms: O_2  and  C_3
REMARK    3  A    between atoms: C_6  and  C_7
REMARK    4  A    between atoms: C_7  and  N_8
REMARK    5  A    between atoms: N_8  and  C_9
REMARK    6  A    between atoms: C_19  and  O_20
REMARK    7  A    between atoms: O_20  and  C_21
REMARK    8  A    between atoms: C_21  and  C_22
REMARK    9  A    between atoms: C_22  and  C_23
REMARK   10  A    between atoms: C_23  and  C_24
REMARK                            x       y       z     vdW  Elec       q    Type
REMARK                         _______ _______ _______ _____ _____    ______ ____
ROOT
ATOM      1  C   UNL     1       3.263   3.892  19.472  0.00  0.00    +0.000 A 
ATOM      2  C   UNL     1       2.098   3.674  20.207  0.00  0.00    +0.000 A 
ATOM      3  C   UNL     1       1.353   4.740  20.708  0.00  0.00    +0.000 A 
ATOM      4  C   UNL     1       1.744   6.063  20.473  0.00  0.00    +0.000 A 
ATOM      5  C   UNL     1       2.882   6.293  19.685  0.00  0.00    +0.000 A 
ATOM      6  C   UNL     1       3.621   5.225  19.156  0.00  0.00    +0.000 A 
ENDROOT
BRANCH   1   8
ATOM      7  C   UNL     1       3.573   1.909  18.126  0.00  0.00    +0.000 C 
ATOM      8  O   UNL     1       4.074   2.888  19.030  0.00  0.00    +0.000 OA
ENDBRANCH   1   8
BRANCH   4   9
ATOM      9  C   UNL     1       0.912   7.195  21.029  0.00  0.00    +0.000 C 
BRANCH   9  10
ATOM     10  N   UNL     1       1.780   8.261  21.534  0.00  0.00    +0.000 NA
ATOM     11  H   UNL     1       2.519   8.417  20.846  0.00  0.00    +0.000 HD
BRANCH  10  12
ATOM     12  C   UNL     1       1.078   9.524  21.811  0.00  0.00    +0.000 C 
ATOM     13  C   UNL     1      -0.168   9.193  22.663  0.00  0.00    +0.000 C 
ATOM     14  C   UNL     1      -0.898  10.467  23.102  0.00  0.00    +0.000 C 
ATOM     15  C   UNL     1      -1.061  11.417  21.975  0.00  0.00    +0.000 A 
ATOM     16  N   UNL     1      -1.853  12.463  21.881  0.00  0.00    +0.000 NA
ATOM     17  C   UNL     1      -1.549  12.968  20.645  0.00  0.00    +0.000 A 
ATOM     18  N   UNL     1      -0.608  12.301  19.969  0.00  0.00    +0.000 NA
ATOM     19  N   UNL     1      -0.314  11.323  20.839  0.00  0.00    +0.000 N 
ATOM     20  C   UNL     1       0.642  10.280  20.536  0.00  0.00    +0.000 C 
ENDBRANCH  10  12
ENDBRANCH   9  10
ENDBRANCH   4   9
BRANCH   6  21
ATOM     21  O   UNL     1       4.672   5.625  18.357  0.00  0.00    +0.000 OA
BRANCH  21  22
ATOM     22  C   UNL     1       4.342   6.583  17.351  0.00  0.00    +0.000 C 
BRANCH  22  23
ATOM     23  C   UNL     1       5.139   6.323  16.084  0.00  0.00    +0.000 C 
BRANCH  23  24
ATOM     24  C   UNL     1       5.395   4.847  15.768  0.00  0.00    +0.000 C 
BRANCH  24  25
ATOM     25  C   UNL     1       6.760   4.536  16.357  0.00  0.00    +0.000 C 
ATOM     26  N   UNL     1       7.893   4.278  16.847  0.00  0.00    +0.000 NA
ENDBRANCH  24  25
ENDBRANCH  23  24
ENDBRANCH  22  23
ENDBRANCH  21  22
ENDBRANCH   6  21
TORSDOF 9
ENDMDL
MODEL 9
REMARK VINA RESULT:      -6.6      2.390      4.328
REMARK  Name = 
REMARK  10 active torsions:
REMARK  status: ('A' for Active; 'I' for Inactive)
REMARK    1  A    between atoms: C_1  and  O_2
REMARK    2  A    between atoms: O_2  and  C_3
REMARK    3  A    between atoms: C_6  and  C_7
REMARK    4  A    between atoms: C_7  and  N_8
REMARK    5  A    between atoms: N_8  and  C_9
REMARK    6  A    between atoms: C_19  and  O_20
REMARK    7  A    between atoms: O_20  and  C_21
REMARK    8  A    between atoms: C_21  and  C_22
REMARK    9  A    between atoms: C_22  and  C_23
REMARK   10  A    between atoms: C_23  and  C_24
REMARK                            x       y       z     vdW  Elec       q    Type
REMARK                         _______ _______ _______ _____ _____    ______ ____
ROOT
ATOM      1  C   UNL     1       4.790   4.384  17.393  0.00  0.00    +0.000 A 
ATOM      2  C   UNL     1       3.430   4.100  17.270  0.00  0.00    +0.000 A 
ATOM      3  C   UNL     1       2.503   4.603  18.182  0.00  0.00    +0.000 A 
ATOM      4  C   UNL     1       2.910   5.423  19.239  0.00  0.00    +0.000 A 
ATOM      5  C   UNL     1       4.268   5.764  19.337  0.00  0.00    +0.000 A 
ATOM      6  C   UNL     1       5.200   5.282  18.408  0.00  0.00    +0.000 A 
ENDROOT
BRANCH   1   8
ATOM      7  C   UNL     1       5.733   4.125  15.183  0.00  0.00    +0.000 C 
ATOM      8  O   UNL     1       5.748   3.853  16.580  0.00  0.00    +0.000 OA
ENDBRANCH   1   8
BRANCH   4   9
ATOM      9  C   UNL     1       1.880   5.954  20.208  0.00  0.00    +0.000 C 
BRANCH   9  10
ATOM     10  N   UNL     1       2.237   7.307  20.639  0.00  0.00    +0.000 NA
ATOM     11  H   UNL     1       2.871   7.702  19.942  0.00  0.00    +0.000 HD
BRANCH  10  12
ATOM     12  C   UNL     1       1.085   8.199  20.832  0.00  0.00    +0.000 C 
ATOM     13  C   UNL     1       1.090   9.230  19.681  0.00  0.00    +0.000 C 
ATOM     14  C   UNL     1      -0.148  10.132  19.734  0.00  0.00    +0.000 C 
ATOM     15  C   UNL     1      -0.403  10.627  21.109  0.00  0.00    +0.000 A 
ATOM     16  N   UNL     1      -1.178  11.615  21.503  0.00  0.00    +0.000 NA
ATOM     17  C   UNL     1      -1.044  11.585  22.866  0.00  0.00    +0.000 A 
ATOM     18  N   UNL     1      -0.238  10.630  23.341  0.00  0.00    +0.000 NA
ATOM     19  N   UNL     1       0.153  10.035  22.204  0.00  0.00    +0.000 N 
ATOM     20  C   UNL     1       1.100   8.942  22.187  0.00  0.00    +0.000 C 
ENDBRANCH  10  12
ENDBRANCH   9  10
ENDBRANCH   4   9
BRANCH   6  21
ATOM     21  O   UNL     1       6.479   5.759  18.613  0.00  0.00    +0.000 OA
BRANCH  21  22
ATOM     22  C   UNL     1       7.008   6.561  17.557  0.00  0.00    +0.000 C 
BRANCH  22  23
ATOM     23  C   UNL     1       8.101   7.477  18.077  0.00  0.00    +0.000 C 
BRANCH  23  24
ATOM     24  C   UNL     1       7.884   8.969  17.803  0.00  0.00    +0.000 C 
BRANCH  24  25
ATOM     25  C   UNL     1       8.744   9.697  18.822  0.00  0.00    +0.000 C 
ATOM     26  N   UNL     1       9.459  10.301  19.667  0.00  0.00    +0.000 NA
ENDBRANCH  24  25
ENDBRANCH  23  24
ENDBRANCH  22  23
ENDBRANCH  21  22
ENDBRANCH   6  21
TORSDOF 9
ENDMDL
