MODEL 1
REMARK VINA RESULT:      -7.0      0.000      0.000
REMARK  Name = 
REMARK  14 active torsions:
REMARK  status: ('A' for Active; 'I' for Inactive)
REMARK    1  A    between atoms: C_1  and  C_2
REMARK    2  A    between atoms: C_2  and  C_3
REMARK    3  A    between atoms: C_3  and  C_4
REMARK    4  A    between atoms: C_4  and  C_5
REMARK    5  A    between atoms: C_5  and  C_6
REMARK    6  A    between atoms: C_6  and  C_8
REMARK    7  A    between atoms: C_11  and  O_12
REMARK    8  A    between atoms: O_12  and  C_13
REMARK    9  A    between atoms: C_13  and  C_14
REMARK   10  A    between atoms: C_14  and  C_15
REMARK   11  A    between atoms: C_15  and  N_16
REMARK   12  A    between atoms: N_22  and  C_23
REMARK   13  A    between atoms: C_23  and  C_24
REMARK   14  A    between atoms: C_23  and  C_25
REMARK                            x       y       z     vdW  Elec       q    Type
REMARK                         _______ _______ _______ _____ _____    ______ ____
ROOT
ATOM      1  C   UNL     1       7.877   8.179  17.395  0.00  0.00    +0.000 C 
ENDROOT
BRANCH   1   2
ATOM      2  O   UNL     1       7.751   6.800  17.722  0.00  0.00    +0.000 OA
BRANCH   2   6
ATOM      3  C   UNL     1       3.833   5.645  18.548  0.00  0.00    +0.000 A 
ATOM      4  C   UNL     1       4.150   6.525  17.504  0.00  0.00    +0.000 A 
ATOM      5  C   UNL     1       5.475   6.887  17.270  0.00  0.00    +0.000 A 
ATOM      6  C   UNL     1       6.492   6.399  18.084  0.00  0.00    +0.000 A 
ATOM      7  C   UNL     1       6.186   5.524  19.133  0.00  0.00    +0.000 A 
ATOM      8  C   UNL     1       4.850   5.149  19.365  0.00  0.00    +0.000 A 
BRANCH   3   9
ATOM      9  C   UNL     1       2.410   5.258  18.736  0.00  0.00    +0.000 C 
ATOM     10  O   UNL     1       1.722   5.034  17.738  0.00  0.00    +0.000 OA
BRANCH   9  11
ATOM     11  C   UNL     1       1.869   5.107  20.143  0.00  0.00    +0.000 C 
BRANCH  11  12
ATOM     12  C   UNL     1       0.944   3.896  20.246  0.00  0.00    +0.000 C 
BRANCH  12  13
ATOM     13  C   UNL     1       1.726   2.594  20.417  0.00  0.00    +0.000 C 
BRANCH  13  15
ATOM     14  C   UNL     1       3.210   1.741  18.566  0.00  0.00    +0.000 C 
ATOM     15  C   UNL     1       1.790   1.819  19.099  0.00  0.00    +0.000 C 
ENDBRANCH  13  15
ENDBRANCH  12  13
ENDBRANCH  11  12
ENDBRANCH   9  11
ENDBRANCH   3   9
ENDBRANCH   2   6
ENDBRANCH   1   2
BRANCH   1  16
ATOM     16  C   UNL     1       8.592   8.892  18.543  0.00  0.00    +0.000 C 
BRANCH  16  17
ATOM     17  C   UNL     1       8.658  10.395  18.259  0.00  0.00    +0.000 C 
BRANCH  17  18
ATOM     18  N   UNL     1       9.773  11.027  18.985  0.00  0.00    +0.000 NA
ATOM     19  C   UNL     1      10.842  11.520  18.075  0.00  0.00    +0.000 C 
ATOM     20  C   UNL     1      10.459  12.768  17.258  0.00  0.00    +0.000 C 
ATOM     21  N   UNL     1       9.948  13.836  18.131  0.00  0.00    +0.000 N 
ATOM     22  C   UNL     1      10.515  15.092  18.040  0.00  0.00    +0.000 C 
ATOM     23  O   UNL     1      11.464  15.332  17.287  0.00  0.00    +0.000 OA
ATOM     24  N   UNL     1       9.968  16.063  18.828  0.00  0.00    +0.000 N 
ATOM     25  C   UNL     1       8.870  13.390  19.022  0.00  0.00    +0.000 C 
ATOM     26  C   UNL     1       9.314  12.152  19.826  0.00  0.00    +0.000 C 
ATOM     27  H   UNL     1       9.341  15.813  19.566  0.00  0.00    +0.000 HD
BRANCH  24  28
ATOM     28  C   UNL     1      10.494  17.426  18.840  0.00  0.00    +0.000 C 
ATOM     29  C   UNL     1       9.640  18.333  17.959  0.00  0.00    +0.000 C 
ATOM     30  C   UNL     1      10.554  17.983  20.258  0.00  0.00    +0.000 C 
ENDBRANCH  24  28
ENDBRANCH  17  18
ENDBRANCH  16  17
ENDBRANCH   1  16
TORSDOF 11
ENDMDL
MODEL 2
REMARK VINA RESULT:      -7.0      6.120      7.997
REMARK  Name = 
REMARK  14 active torsions:
REMARK  status: ('A' for Active; 'I' for Inactive)
REMARK    1  A    between atoms: C_1  and  C_2
REMARK    2  A    between atoms: C_2  and  C_3
REMARK    3  A    between atoms: C_3  and  C_4
REMARK    4  A    between atoms: C_4  and  C_5
REMARK    5  A    between atoms: C_5  and  C_6
REMARK    6  A    between atoms: C_6  and  C_8
REMARK    7  A    between atoms: C_11  and  O_12
REMARK    8  A    between atoms: O_12  and  C_13
REMARK    9  A    between atoms: C_13  and  C_14
REMARK   10  A    between atoms: C_14  and  C_15
REMARK   11  A    between atoms: C_15  and  N_16
REMARK   12  A    between atoms: N_22  and  C_23
REMARK   13  A    between atoms: C_23  and  C_24
REMARK   14  A    between atoms: C_23  and  C_25
REMARK                            x       y       z     vdW  Elec       q    Type
REMARK                         _______ _______ _______ _____ _____    ______ ____
ROOT
ATOM      1  C   UNL     1       2.179   3.124  20.102  0.00  0.00    +0.000 C 
ENDROOT
BRANCH   1   2
ATOM      2  O   UNL     1       3.600   3.059  20.118  0.00  0.00    +0.000 OA
BRANCH   2   6
ATOM      3  C   UNL     1       5.231   4.860  16.732  0.00  0.00    +0.000 A 
ATOM      4  C   UNL     1       4.045   4.114  16.687  0.00  0.00    +0.000 A 
ATOM      5  C   UNL     1       3.542   3.525  17.844  0.00  0.00    +0.000 A 
ATOM      6  C   UNL     1       4.223   3.650  19.051  0.00  0.00    +0.000 A 
ATOM      7  C   UNL     1       5.411   4.388  19.107  0.00  0.00    +0.000 A 
ATOM      8  C   UNL     1       5.916   4.992  17.942  0.00  0.00    +0.000 A 
BRANCH   3   9
ATOM      9  C   UNL     1       5.710   5.501  15.480  0.00  0.00    +0.000 C 
ATOM     10  O   UNL     1       5.486   6.701  15.308  0.00  0.00    +0.000 OA
BRANCH   9  11
ATOM     11  C   UNL     1       6.494   4.672  14.483  0.00  0.00    +0.000 C 
BRANCH  11  12
ATOM     12  C   UNL     1       5.559   3.985  13.489  0.00  0.00    +0.000 C 
BRANCH  12  13
ATOM     13  C   UNL     1       6.330   3.307  12.357  0.00  0.00    +0.000 C 
BRANCH  13  15
ATOM     14  C   UNL     1       4.069   3.170  11.251  0.00  0.00    +0.000 C 
ATOM     15  C   UNL     1       5.393   2.465  11.488  0.00  0.00    +0.000 C 
ENDBRANCH  13  15
ENDBRANCH  12  13
ENDBRANCH  11  12
ENDBRANCH   9  11
ENDBRANCH   3   9
ENDBRANCH   2   6
ENDBRANCH   1   2
BRANCH   1  16
ATOM     16  C   UNL     1       1.728   4.249  21.035  0.00  0.00    +0.000 C 
BRANCH  16  17
ATOM     17  C   UNL     1       1.379   5.494  20.217  0.00  0.00    +0.000 C 
BRANCH  17  18
ATOM     18  N   UNL     1       2.377   6.559  20.413  0.00  0.00    +0.000 NA
ATOM     19  C   UNL     1       2.997   7.004  19.136  0.00  0.00    +0.000 C 
ATOM     20  C   UNL     1       2.067   7.826  18.226  0.00  0.00    +0.000 C 
ATOM     21  N   UNL     1       1.464   8.949  18.961  0.00  0.00    +0.000 N 
ATOM     22  C   UNL     1       1.573  10.220  18.432  0.00  0.00    +0.000 C 
ATOM     23  O   UNL     1       2.199  10.448  17.392  0.00  0.00    +0.000 OA
ATOM     24  N   UNL     1       0.948  11.219  19.120  0.00  0.00    +0.000 N 
ATOM     25  C   UNL     1       0.815   8.540  20.213  0.00  0.00    +0.000 C 
ATOM     26  C   UNL     1       1.797   7.738  21.090  0.00  0.00    +0.000 C 
ATOM     27  H   UNL     1       0.619  11.055  20.050  0.00  0.00    +0.000 HD
BRANCH  24  28
ATOM     28  C   UNL     1       1.009  12.609  18.676  0.00  0.00    +0.000 C 
ATOM     29  C   UNL     1      -0.344  13.288  18.862  0.00  0.00    +0.000 C 
ATOM     30  C   UNL     1       2.088  13.383  19.427  0.00  0.00    +0.000 C 
ENDBRANCH  24  28
ENDBRANCH  17  18
ENDBRANCH  16  17
ENDBRANCH   1  16
TORSDOF 11
ENDMDL
MODEL 3
REMARK VINA RESULT:      -6.5      6.997      9.155
REMARK  Name = 
REMARK  14 active torsions:
REMARK  status: ('A' for Active; 'I' for Inactive)
REMARK    1  A    between atoms: C_1  and  C_2
REMARK    2  A    between atoms: C_2  and  C_3
REMARK    3  A    between atoms: C_3  and  C_4
REMARK    4  A    between atoms: C_4  and  C_5
REMARK    5  A    between atoms: C_5  and  C_6
REMARK    6  A    between atoms: C_6  and  C_8
REMARK    7  A    between atoms: C_11  and  O_12
REMARK    8  A    between atoms: O_12  and  C_13
REMARK    9  A    between atoms: C_13  and  C_14
REMARK   10  A    between atoms: C_14  and  C_15
REMARK   11  A    between atoms: C_15  and  N_16
REMARK   12  A    between atoms: N_22  and  C_23
REMARK   13  A    between atoms: C_23  and  C_24
REMARK   14  A    between atoms: C_23  and  C_25
REMARK                            x       y       z     vdW  Elec       q    Type
REMARK                         _______ _______ _______ _____ _____    ______ ____
ROOT
ATOM      1  C   UNL     1       2.184   6.009  19.397  0.00  0.00    +0.000 C 
ENDROOT
BRANCH   1   2
ATOM      2  O   UNL     1       3.426   6.654  19.145  0.00  0.00    +0.000 OA
BRANCH   2   6
ATOM      3  C   UNL     1       5.775   5.253  16.001  0.00  0.00    +0.000 A 
ATOM      4  C   UNL     1       5.212   6.537  16.001  0.00  0.00    +0.000 A 
ATOM      5  C   UNL     1       4.428   6.958  17.072  0.00  0.00    +0.000 A 
ATOM      6  C   UNL     1       4.176   6.103  18.140  0.00  0.00    +0.000 A 
ATOM      7  C   UNL     1       4.729   4.816  18.147  0.00  0.00    +0.000 A 
ATOM      8  C   UNL     1       5.529   4.391  17.072  0.00  0.00    +0.000 A 
BRANCH   3   9
ATOM      9  C   UNL     1       6.635   4.860  14.853  0.00  0.00    +0.000 C 
ATOM     10  O   UNL     1       7.549   5.615  14.515  0.00  0.00    +0.000 OA
BRANCH   9  11
ATOM     11  C   UNL     1       6.389   3.529  14.173  0.00  0.00    +0.000 C 
BRANCH  11  12
ATOM     12  C   UNL     1       6.269   3.704  12.659  0.00  0.00    +0.000 C 
BRANCH  12  13
ATOM     13  C   UNL     1       4.817   3.900  12.222  0.00  0.00    +0.000 C 
BRANCH  13  15
ATOM     14  C   UNL     1       3.219   3.314  10.363  0.00  0.00    +0.000 C 
ATOM     15  C   UNL     1       4.417   2.857  11.177  0.00  0.00    +0.000 C 
ENDBRANCH  13  15
ENDBRANCH  12  13
ENDBRANCH  11  12
ENDBRANCH   9  11
ENDBRANCH   3   9
ENDBRANCH   2   6
ENDBRANCH   1   2
BRANCH   1  16
ATOM     16  C   UNL     1       1.862   6.127  20.887  0.00  0.00    +0.000 C 
BRANCH  16  17
ATOM     17  C   UNL     1       0.801   7.209  21.105  0.00  0.00    +0.000 C 
BRANCH  17  18
ATOM     18  N   UNL     1       1.413   8.544  21.211  0.00  0.00    +0.000 NA
ATOM     19  C   UNL     1       0.974   9.463  20.127  0.00  0.00    +0.000 C 
ATOM     20  C   UNL     1      -0.482   9.948  20.252  0.00  0.00    +0.000 C 
ATOM     21  N   UNL     1      -0.739  10.513  21.586  0.00  0.00    +0.000 N 
ATOM     22  C   UNL     1      -1.289  11.777  21.673  0.00  0.00    +0.000 C 
ATOM     23  O   UNL     1      -1.525  12.462  20.673  0.00  0.00    +0.000 OA
ATOM     24  N   UNL     1      -1.563  12.234  22.930  0.00  0.00    +0.000 N 
ATOM     25  C   UNL     1      -0.344   9.618  22.680  0.00  0.00    +0.000 C 
ATOM     26  C   UNL     1       1.124   9.180  22.514  0.00  0.00    +0.000 C 
ATOM     27  H   UNL     1      -1.189  11.759  23.726  0.00  0.00    +0.000 HD
BRANCH  24  28
ATOM     28  C   UNL     1      -2.124  13.564  23.156  0.00  0.00    +0.000 C 
ATOM     29  C   UNL     1      -3.450  13.462  23.902  0.00  0.00    +0.000 C 
ATOM     30  C   UNL     1      -1.155  14.448  23.933  0.00  0.00    +0.000 C 
ENDBRANCH  24  28
ENDBRANCH  17  18
ENDBRANCH  16  17
ENDBRANCH   1  16
TORSDOF 11
ENDMDL
MODEL 4
REMARK VINA RESULT:      -6.5      3.571     11.719
REMARK  Name = 
REMARK  14 active torsions:
REMARK  status: ('A' for Active; 'I' for Inactive)
REMARK    1  A    between atoms: C_1  and  C_2
REMARK    2  A    between atoms: C_2  and  C_3
REMARK    3  A    between atoms: C_3  and  C_4
REMARK    4  A    between atoms: C_4  and  C_5
REMARK    5  A    between atoms: C_5  and  C_6
REMARK    6  A    between atoms: C_6  and  C_8
REMARK    7  A    between atoms: C_11  and  O_12
REMARK    8  A    between atoms: O_12  and  C_13
REMARK    9  A    between atoms: C_13  and  C_14
REMARK   10  A    between atoms: C_14  and  C_15
REMARK   11  A    between atoms: C_15  and  N_16
REMARK   12  A    between atoms: N_22  and  C_23
REMARK   13  A    between atoms: C_23  and  C_24
REMARK   14  A    between atoms: C_23  and  C_25
REMARK                            x       y       z     vdW  Elec       q    Type
REMARK                         _______ _______ _______ _____ _____    ______ ____
ROOT
ATOM      1  C   UNL     1       8.474   9.458  18.076  0.00  0.00    +0.000 C 
ENDROOT
BRANCH   1   2
ATOM      2  O   UNL     1       9.228   9.632  19.270  0.00  0.00    +0.000 OA
BRANCH   2   6
ATOM      3  C   UNL     1      10.397  13.485  20.347  0.00  0.00    +0.000 A 
ATOM      4  C   UNL     1       9.644  12.664  21.199  0.00  0.00    +0.000 A 
ATOM      5  C   UNL     1       9.271  11.386  20.792  0.00  0.00    +0.000 A 
ATOM      6  C   UNL     1       9.620  10.919  19.528  0.00  0.00    +0.000 A 
ATOM      7  C   UNL     1      10.367  11.732  18.667  0.00  0.00    +0.000 A 
ATOM      8  C   UNL     1      10.753  13.020  19.079  0.00  0.00    +0.000 A 
BRANCH   3   9
ATOM      9  C   UNL     1      10.803  14.828  20.838  0.00  0.00    +0.000 C 
ATOM     10  O   UNL     1      11.810  15.352  20.356  0.00  0.00    +0.000 OA
BRANCH   9  11
ATOM     11  C   UNL     1       9.946  15.521  21.876  0.00  0.00    +0.000 C 
BRANCH  11  12
ATOM     12  C   UNL     1      10.811  16.279  22.882  0.00  0.00    +0.000 C 
BRANCH  12  13
ATOM     13  C   UNL     1      10.209  16.251  24.287  0.00  0.00    +0.000 C 
BRANCH  13  15
ATOM     14  C   UNL     1       7.955  15.703  25.274  0.00  0.00    +0.000 C 
ATOM     15  C   UNL     1       9.081  15.221  24.375  0.00  0.00    +0.000 C 
ENDBRANCH  13  15
ENDBRANCH  12  13
ENDBRANCH  11  12
ENDBRANCH   9  11
ENDBRANCH   3   9
ENDBRANCH   2   6
ENDBRANCH   1   2
BRANCH   1  16
ATOM     16  C   UNL     1       8.066   7.988  17.963  0.00  0.00    +0.000 C 
BRANCH  16  17
ATOM     17  C   UNL     1       6.654   7.885  17.379  0.00  0.00    +0.000 C 
BRANCH  17  18
ATOM     18  N   UNL     1       6.404   6.545  16.822  0.00  0.00    +0.000 NA
ATOM     19  C   UNL     1       7.004   5.461  17.646  0.00  0.00    +0.000 C 
ATOM     20  C   UNL     1       6.292   5.209  18.987  0.00  0.00    +0.000 C 
ATOM     21  N   UNL     1       4.848   5.011  18.791  0.00  0.00    +0.000 N 
ATOM     22  C   UNL     1       4.256   3.884  19.327  0.00  0.00    +0.000 C 
ATOM     23  O   UNL     1       4.908   3.019  19.922  0.00  0.00    +0.000 OA
ATOM     24  N   UNL     1       2.905   3.773  19.169  0.00  0.00    +0.000 N 
ATOM     25  C   UNL     1       4.217   6.079  18.006  0.00  0.00    +0.000 C 
ATOM     26  C   UNL     1       4.959   6.275  16.669  0.00  0.00    +0.000 C 
ATOM     27  H   UNL     1       2.428   4.370  18.524  0.00  0.00    +0.000 HD
BRANCH  24  28
ATOM     28  C   UNL     1       2.167   2.617  19.670  0.00  0.00    +0.000 C 
ATOM     29  C   UNL     1       1.596   2.909  21.054  0.00  0.00    +0.000 C 
ATOM     30  C   UNL     1       1.046   2.219  18.716  0.00  0.00    +0.000 C 
ENDBRANCH  24  28
ENDBRANCH  17  18
ENDBRANCH  16  17
ENDBRANCH   1  16
TORSDOF 11
ENDMDL
MODEL 5
REMARK VINA RESULT:      -6.5      7.890     10.596
REMARK  Name = 
REMARK  14 active torsions:
REMARK  status: ('A' for Active; 'I' for Inactive)
REMARK    1  A    between atoms: C_1  and  C_2
REMARK    2  A    between atoms: C_2  and  C_3
REMARK    3  A    between atoms: C_3  and  C_4
REMARK    4  A    between atoms: C_4  and  C_5
REMARK    5  A    between atoms: C_5  and  C_6
REMARK    6  A    between atoms: C_6  and  C_8
REMARK    7  A    between atoms: C_11  and  O_12
REMARK    8  A    between atoms: O_12  and  C_13
REMARK    9  A    between atoms: C_13  and  C_14
REMARK   10  A    between atoms: C_14  and  C_15
REMARK   11  A    between atoms: C_15  and  N_16
REMARK   12  A    between atoms: N_22  and  C_23
REMARK   13  A    between atoms: C_23  and  C_24
REMARK   14  A    between atoms: C_23  and  C_25
REMARK                            x       y       z     vdW  Elec       q    Type
REMARK                         _______ _______ _______ _____ _____    ______ ____
ROOT
ATOM      1  C   UNL     1       1.346  10.592  20.279  0.00  0.00    +0.000 C 
ENDROOT
BRANCH   1   2
ATOM      2  O   UNL     1       0.903   9.697  19.265  0.00  0.00    +0.000 OA
BRANCH   2   6
ATOM      3  C   UNL     1       3.306   6.347  18.661  0.00  0.00    +0.000 A 
ATOM      4  C   UNL     1       2.537   6.517  19.820  0.00  0.00    +0.000 A 
ATOM      5  C   UNL     1       1.753   7.658  19.980  0.00  0.00    +0.000 A 
ATOM      6  C   UNL     1       1.745   8.650  19.004  0.00  0.00    +0.000 A 
ATOM      7  C   UNL     1       2.515   8.492  17.845  0.00  0.00    +0.000 A 
ATOM      8  C   UNL     1       3.299   7.337  17.676  0.00  0.00    +0.000 A 
BRANCH   3   9
ATOM      9  C   UNL     1       4.098   5.096  18.516  0.00  0.00    +0.000 C 
ATOM     10  O   UNL     1       5.024   4.890  19.304  0.00  0.00    +0.000 OA
BRANCH   9  11
ATOM     11  C   UNL     1       3.712   4.102  17.441  0.00  0.00    +0.000 C 
BRANCH  11  12
ATOM     12  C   UNL     1       2.233   3.730  17.546  0.00  0.00    +0.000 C 
BRANCH  12  13
ATOM     13  C   UNL     1       2.008   2.553  18.495  0.00  0.00    +0.000 C 
BRANCH  13  15
ATOM     14  C   UNL     1       1.279   3.049  20.856  0.00  0.00    +0.000 C 
ATOM     15  C   UNL     1       0.824   2.822  19.425  0.00  0.00    +0.000 C 
ENDBRANCH  13  15
ENDBRANCH  12  13
ENDBRANCH  11  12
ENDBRANCH   9  11
ENDBRANCH   3   9
ENDBRANCH   2   6
ENDBRANCH   1   2
BRANCH   1  16
ATOM     16  C   UNL     1       1.007  12.021  19.854  0.00  0.00    +0.000 C 
BRANCH  16  17
ATOM     17  C   UNL     1      -0.112  12.575  20.740  0.00  0.00    +0.000 C 
BRANCH  17  18
ATOM     18  N   UNL     1      -1.258  11.652  20.792  0.00  0.00    +0.000 NA
ATOM     19  C   UNL     1      -1.443  11.043  22.136  0.00  0.00    +0.000 C 
ATOM     20  C   UNL     1      -1.973  12.012  23.209  0.00  0.00    +0.000 C 
ATOM     21  N   UNL     1      -3.190  12.698  22.747  0.00  0.00    +0.000 N 
ATOM     22  C   UNL     1      -4.313  12.664  23.550  0.00  0.00    +0.000 C 
ATOM     23  O   UNL     1      -4.341  12.039  24.616  0.00  0.00    +0.000 OA
ATOM     24  N   UNL     1      -5.398  13.363  23.107  0.00  0.00    +0.000 N 
ATOM     25  C   UNL     1      -3.033  13.336  21.435  0.00  0.00    +0.000 C 
ATOM     26  C   UNL     1      -2.518  12.318  20.399  0.00  0.00    +0.000 C 
ATOM     27  H   UNL     1      -5.426  13.694  22.164  0.00  0.00    +0.000 HD
BRANCH  24  28
ATOM     28  C   UNL     1      -6.652  13.386  23.855  0.00  0.00    +0.000 C 
ATOM     29  C   UNL     1      -7.217  14.802  23.903  0.00  0.00    +0.000 C 
ATOM     30  C   UNL     1      -7.678  12.436  23.245  0.00  0.00    +0.000 C 
ENDBRANCH  24  28
ENDBRANCH  17  18
ENDBRANCH  16  17
ENDBRANCH   1  16
TORSDOF 11
ENDMDL
MODEL 6
REMARK VINA RESULT:      -6.4      1.908      2.590
REMARK  Name = 
REMARK  14 active torsions:
REMARK  status: ('A' for Active; 'I' for Inactive)
REMARK    1  A    between atoms: C_1  and  C_2
REMARK    2  A    between atoms: C_2  and  C_3
REMARK    3  A    between atoms: C_3  and  C_4
REMARK    4  A    between atoms: C_4  and  C_5
REMARK    5  A    between atoms: C_5  and  C_6
REMARK    6  A    between atoms: C_6  and  C_8
REMARK    7  A    between atoms: C_11  and  O_12
REMARK    8  A    between atoms: O_12  and  C_13
REMARK    9  A    between atoms: C_13  and  C_14
REMARK   10  A    between atoms: C_14  and  C_15
REMARK   11  A    between atoms: C_15  and  N_16
REMARK   12  A    between atoms: N_22  and  C_23
REMARK   13  A    between atoms: C_23  and  C_24
REMARK   14  A    between atoms: C_23  and  C_25
REMARK                            x       y       z     vdW  Elec       q    Type
REMARK                         _______ _______ _______ _____ _____    ______ ____
ROOT
ATOM      1  C   UNL     1       8.230   8.196  18.316  0.00  0.00    +0.000 C 
ENDROOT
BRANCH   1   2
ATOM      2  O   UNL     1       7.600   7.664  17.157  0.00  0.00    +0.000 OA
BRANCH   2   6
ATOM      3  C   UNL     1       4.748   4.662  17.623  0.00  0.00    +0.000 A 
ATOM      4  C   UNL     1       4.495   5.828  16.887  0.00  0.00    +0.000 A 
ATOM      5  C   UNL     1       5.478   6.807  16.764  0.00  0.00    +0.000 A 
ATOM      6  C   UNL     1       6.711   6.649  17.390  0.00  0.00    +0.000 A 
ATOM      7  C   UNL     1       6.972   5.491  18.132  0.00  0.00    +0.000 A 
ATOM      8  C   UNL     1       5.985   4.496  18.250  0.00  0.00    +0.000 A 
BRANCH   3   9
ATOM      9  C   UNL     1       3.682   3.628  17.695  0.00  0.00    +0.000 C 
ATOM     10  O   UNL     1       3.995   2.446  17.540  0.00  0.00    +0.000 OA
BRANCH   9  11
ATOM     11  C   UNL     1       2.262   4.056  18.001  0.00  0.00    +0.000 C 
BRANCH  11  12
ATOM     12  C   UNL     1       1.914   3.789  19.465  0.00  0.00    +0.000 C 
BRANCH  12  13
ATOM     13  C   UNL     1       1.454   5.059  20.182  0.00  0.00    +0.000 C 
BRANCH  13  15
ATOM     14  C   UNL     1       2.146   7.423  19.649  0.00  0.00    +0.000 C 
ATOM     15  C   UNL     1       2.581   6.092  20.237  0.00  0.00    +0.000 C 
ENDBRANCH  13  15
ENDBRANCH  12  13
ENDBRANCH  11  12
ENDBRANCH   9  11
ENDBRANCH   3   9
ENDBRANCH   2   6
ENDBRANCH   1   2
BRANCH   1  16
ATOM     16  C   UNL     1       8.494   9.686  18.091  0.00  0.00    +0.000 C 
BRANCH  16  17
ATOM     17  C   UNL     1       9.386  10.230  19.211  0.00  0.00    +0.000 C 
BRANCH  17  18
ATOM     18  N   UNL     1      10.279  11.290  18.713  0.00  0.00    +0.000 NA
ATOM     19  C   UNL     1       9.536  12.428  18.110  0.00  0.00    +0.000 C 
ATOM     20  C   UNL     1       8.791  13.314  19.125  0.00  0.00    +0.000 C 
ATOM     21  N   UNL     1       9.690  13.757  20.201  0.00  0.00    +0.000 N 
ATOM     22  C   UNL     1       9.767  15.107  20.484  0.00  0.00    +0.000 C 
ATOM     23  O   UNL     1       9.145  15.952  19.832  0.00  0.00    +0.000 OA
ATOM     24  N   UNL     1      10.569  15.463  21.529  0.00  0.00    +0.000 N 
ATOM     25  C   UNL     1      10.417  12.654  20.840  0.00  0.00    +0.000 C 
ATOM     26  C   UNL     1      11.158  11.813  19.781  0.00  0.00    +0.000 C 
ATOM     27  H   UNL     1      11.211  14.799  21.914  0.00  0.00    +0.000 HD
BRANCH  24  28
ATOM     28  C   UNL     1      10.754  16.860  21.912  0.00  0.00    +0.000 C 
ATOM     29  C   UNL     1       9.865  17.207  23.102  0.00  0.00    +0.000 C 
ATOM     30  C   UNL     1      12.212  17.156  22.246  0.00  0.00    +0.000 C 
ENDBRANCH  24  28
ENDBRANCH  17  18
ENDBRANCH  16  17
ENDBRANCH   1  16
TORSDOF 11
ENDMDL
MODEL 7
REMARK VINA RESULT:      -6.3      7.450      8.904
REMARK  Name = 
REMARK  14 active torsions:
REMARK  status: ('A' for Active; 'I' for Inactive)
REMARK    1  A    between atoms: C_1  and  C_2
REMARK    2  A    between atoms: C_2  and  C_3
REMARK    3  A    between atoms: C_3  and  C_4
REMARK    4  A    between atoms: C_4  and  C_5
REMARK    5  A    between atoms: C_5  and  C_6
REMARK    6  A    between atoms: C_6  and  C_8
REMARK    7  A    between atoms: C_11  and  O_12
REMARK    8  A    between atoms: O_12  and  C_13
REMARK    9  A    between atoms: C_13  and  C_14
REMARK   10  A    between atoms: C_14  and  C_15
REMARK   11  A    between atoms: C_15  and  N_16
REMARK   12  A    between atoms: N_22  and  C_23
REMARK   13  A    between atoms: C_23  and  C_24
REMARK   14  A    between atoms: C_23  and  C_25
REMARK                            x       y       z     vdW  Elec       q    Type
REMARK                         _______ _______ _______ _____ _____    ______ ____
ROOT
ATOM      1  C   UNL     1       0.946   9.710  18.367  0.00  0.00    +0.000 C 
ENDROOT
BRANCH   1   2
ATOM      2  O   UNL     1       1.353   8.910  19.471  0.00  0.00    +0.000 OA
BRANCH   2   6
ATOM      3  C   UNL     1       3.716   5.561  18.719  0.00  0.00    +0.000 A 
ATOM      4  C   UNL     1       2.992   5.716  19.909  0.00  0.00    +0.000 A 
ATOM      5  C   UNL     1       2.221   6.856  20.118  0.00  0.00    +0.000 A 
ATOM      6  C   UNL     1       2.180   7.864  19.160  0.00  0.00    +0.000 A 
ATOM      7  C   UNL     1       2.903   7.723  17.969  0.00  0.00    +0.000 A 
ATOM      8  C   UNL     1       3.675   6.568  17.751  0.00  0.00    +0.000 A 
BRANCH   3   9
ATOM      9  C   UNL     1       4.496   4.311  18.523  0.00  0.00    +0.000 C 
ATOM     10  O   UNL     1       5.517   4.142  19.192  0.00  0.00    +0.000 OA
BRANCH   9  11
ATOM     11  C   UNL     1       3.985   3.272  17.547  0.00  0.00    +0.000 C 
BRANCH  11  12
ATOM     12  C   UNL     1       2.990   2.329  18.223  0.00  0.00    +0.000 C 
BRANCH  12  13
ATOM     13  C   UNL     1       1.553   2.835  18.101  0.00  0.00    +0.000 C 
BRANCH  13  15
ATOM     14  C   UNL     1       1.802   2.461  20.581  0.00  0.00    +0.000 C 
ATOM     15  C   UNL     1       0.836   2.768  19.450  0.00  0.00    +0.000 C 
ENDBRANCH  13  15
ENDBRANCH  12  13
ENDBRANCH  11  12
ENDBRANCH   9  11
ENDBRANCH   3   9
ENDBRANCH   2   6
ENDBRANCH   1   2
BRANCH   1  16
ATOM     16  C   UNL     1       1.331  11.164  18.644  0.00  0.00    +0.000 C 
BRANCH  16  17
ATOM     17  C   UNL     1       0.068  12.007  18.838  0.00  0.00    +0.000 C 
BRANCH  17  18
ATOM     18  N   UNL     1      -0.677  11.586  20.036  0.00  0.00    +0.000 NA
ATOM     19  C   UNL     1       0.091  11.800  21.292  0.00  0.00    +0.000 C 
ATOM     20  C   UNL     1       0.237  13.275  21.708  0.00  0.00    +0.000 C 
ATOM     21  N   UNL     1      -1.072  13.946  21.746  0.00  0.00    +0.000 N 
ATOM     22  C   UNL     1      -1.434  14.623  22.894  0.00  0.00    +0.000 C 
ATOM     23  O   UNL     1      -0.717  14.643  23.900  0.00  0.00    +0.000 OA
ATOM     24  N   UNL     1      -2.631  15.279  22.860  0.00  0.00    +0.000 N 
ATOM     25  C   UNL     1      -1.844  13.780  20.510  0.00  0.00    +0.000 C 
ATOM     26  C   UNL     1      -1.974  12.286  20.152  0.00  0.00    +0.000 C 
ATOM     27  H   UNL     1      -3.280  15.093  22.123  0.00  0.00    +0.000 HD
BRANCH  24  28
ATOM     28  C   UNL     1      -3.136  16.012  24.018  0.00  0.00    +0.000 C 
ATOM     29  C   UNL     1      -2.810  17.496  23.891  0.00  0.00    +0.000 C 
ATOM     30  C   UNL     1      -4.640  15.819  24.182  0.00  0.00    +0.000 C 
ENDBRANCH  24  28
ENDBRANCH  17  18
ENDBRANCH  16  17
ENDBRANCH   1  16
TORSDOF 11
ENDMDL
MODEL 8
REMARK VINA RESULT:      -6.3      7.255     10.288
REMARK  Name = 
REMARK  14 active torsions:
REMARK  status: ('A' for Active; 'I' for Inactive)
REMARK    1  A    between atoms: C_1  and  C_2
REMARK    2  A    between atoms: C_2  and  C_3
REMARK    3  A    between atoms: C_3  and  C_4
REMARK    4  A    between atoms: C_4  and  C_5
REMARK    5  A    between atoms: C_5  and  C_6
REMARK    6  A    between atoms: C_6  and  C_8
REMARK    7  A    between atoms: C_11  and  O_12
REMARK    8  A    between atoms: O_12  and  C_13
REMARK    9  A    between atoms: C_13  and  C_14
REMARK   10  A    between atoms: C_14  and  C_15
REMARK   11  A    between atoms: C_15  and  N_16
REMARK   12  A    between atoms: N_22  and  C_23
REMARK   13  A    between atoms: C_23  and  C_24
REMARK   14  A    between atoms: C_23  and  C_25
REMARK                            x       y       z     vdW  Elec       q    Type
REMARK                         _______ _______ _______ _____ _____    ______ ____
ROOT
ATOM      1  C   UNL     1       0.785   8.700  20.961  0.00  0.00    +0.000 C 
ENDROOT
BRANCH   1   2
ATOM      2  O   UNL     1       1.380   8.851  19.677  0.00  0.00    +0.000 OA
BRANCH   2   6
ATOM      3  C   UNL     1       3.799   5.792  18.208  0.00  0.00    +0.000 A 
ATOM      4  C   UNL     1       3.607   6.994  17.514  0.00  0.00    +0.000 A 
ATOM      5  C   UNL     1       2.784   7.985  18.042  0.00  0.00    +0.000 A 
ATOM      6  C   UNL     1       2.125   7.784  19.251  0.00  0.00    +0.000 A 
ATOM      7  C   UNL     1       2.305   6.584  19.950  0.00  0.00    +0.000 A 
ATOM      8  C   UNL     1       3.143   5.585  19.424  0.00  0.00    +0.000 A 
BRANCH   3   9
ATOM      9  C   UNL     1       4.716   4.777  17.624  0.00  0.00    +0.000 C 
ATOM     10  O   UNL     1       4.689   3.630  18.074  0.00  0.00    +0.000 OA
BRANCH   9  11
ATOM     11  C   UNL     1       5.614   5.176  16.472  0.00  0.00    +0.000 C 
BRANCH  11  12
ATOM     12  C   UNL     1       7.084   5.145  16.889  0.00  0.00    +0.000 C 
BRANCH  12  13
ATOM     13  C   UNL     1       7.396   6.196  17.954  0.00  0.00    +0.000 C 
BRANCH  13  15
ATOM     14  C   UNL     1       8.233   8.572  18.028  0.00  0.00    +0.000 C 
ATOM     15  C   UNL     1       7.252   7.609  17.384  0.00  0.00    +0.000 C 
ENDBRANCH  13  15
ENDBRANCH  12  13
ENDBRANCH  11  12
ENDBRANCH   9  11
ENDBRANCH   3   9
ENDBRANCH   2   6
ENDBRANCH   1   2
BRANCH   1  16
ATOM     16  C   UNL     1       1.028   9.977  21.768  0.00  0.00    +0.000 C 
BRANCH  16  17
ATOM     17  C   UNL     1       0.788  11.204  20.884  0.00  0.00    +0.000 C 
BRANCH  17  18
ATOM     18  N   UNL     1       0.274  12.336  21.672  0.00  0.00    +0.000 NA
ATOM     19  C   UNL     1      -0.327  13.399  20.823  0.00  0.00    +0.000 C 
ATOM     20  C   UNL     1      -1.679  13.022  20.190  0.00  0.00    +0.000 C 
ATOM     21  N   UNL     1      -2.623  12.536  21.209  0.00  0.00    +0.000 N 
ATOM     22  C   UNL     1      -3.874  13.119  21.282  0.00  0.00    +0.000 C 
ATOM     23  O   UNL     1      -4.204  14.061  20.555  0.00  0.00    +0.000 OA
ATOM     24  N   UNL     1      -4.734  12.595  22.203  0.00  0.00    +0.000 N 
ATOM     25  C   UNL     1      -2.071  11.465  22.046  0.00  0.00    +0.000 C 
ATOM     26  C   UNL     1      -0.730  11.903  22.667  0.00  0.00    +0.000 C 
ATOM     27  H   UNL     1      -4.392  11.975  22.909  0.00  0.00    +0.000 HD
BRANCH  24  28
ATOM     28  C   UNL     1      -6.076  13.138  22.394  0.00  0.00    +0.000 C 
ATOM     29  C   UNL     1      -7.084  12.377  21.539  0.00  0.00    +0.000 C 
ATOM     30  C   UNL     1      -6.491  13.087  23.860  0.00  0.00    +0.000 C 
ENDBRANCH  24  28
ENDBRANCH  17  18
ENDBRANCH  16  17
ENDBRANCH   1  16
TORSDOF 11
ENDMDL
MODEL 9
REMARK VINA RESULT:      -6.3      5.452      6.505
REMARK  Name = 
REMARK  14 active torsions:
REMARK  status: ('A' for Active; 'I' for Inactive)
REMARK    1  A    between atoms: C_1  and  C_2
REMARK    2  A    between atoms: C_2  and  C_3
REMARK    3  A    between atoms: C_3  and  C_4
REMARK    4  A    between atoms: C_4  and  C_5
REMARK    5  A    between atoms: C_5  and  C_6
REMARK    6  A    between atoms: C_6  and  C_8
REMARK    7  A    between atoms: C_11  and  O_12
REMARK    8  A    between atoms: O_12  and  C_13
REMARK    9  A    between atoms: C_13  and  C_14
REMARK   10  A    between atoms: C_14  and  C_15
REMARK   11  A    between atoms: C_15  and  N_16
REMARK   12  A    between atoms: N_22  and  C_23
REMARK   13  A    between atoms: C_23  and  C_24
REMARK   14  A    between atoms: C_23  and  C_25
REMARK                            x       y       z     vdW  Elec       q    Type
REMARK                         _______ _______ _______ _____ _____    ______ ____
ROOT
ATOM      1  C   UNL     1      -0.844  10.507  18.716  0.00  0.00    +0.000 C 
ENDROOT
BRANCH   1   2
ATOM      2  O   UNL     1       0.554  10.539  18.454  0.00  0.00    +0.000 OA
BRANCH   2   6
ATOM      3  C   UNL     1       2.423   6.974  19.536  0.00  0.00    +0.000 A 
ATOM      4  C   UNL     1       1.736   7.771  20.462  0.00  0.00    +0.000 A 
ATOM      5  C   UNL     1       1.132   8.958  20.055  0.00  0.00    +0.000 A 
ATOM      6  C   UNL     1       1.225   9.378  18.731  0.00  0.00    +0.000 A 
ATOM      7  C   UNL     1       1.914   8.592  17.799  0.00  0.00    +0.000 A 
ATOM      8  C   UNL     1       2.516   7.388  18.205  0.00  0.00    +0.000 A 
BRANCH   3   9
ATOM      9  C   UNL     1       3.019   5.697  20.009  0.00  0.00    +0.000 C 
ATOM     10  O   UNL     1       4.106   5.346  19.544  0.00  0.00    +0.000 OA
BRANCH   9  11
ATOM     11  C   UNL     1       2.297   4.899  21.074  0.00  0.00    +0.000 C 
BRANCH  11  12
ATOM     12  C   UNL     1       1.066   4.203  20.494  0.00  0.00    +0.000 C 
BRANCH  12  13
ATOM     13  C   UNL     1       1.369   2.766  20.073  0.00  0.00    +0.000 C 
BRANCH  13  15
ATOM     14  C   UNL     1       1.464   3.603  17.697  0.00  0.00    +0.000 C 
ATOM     15  C   UNL     1       0.940   2.521  18.624  0.00  0.00    +0.000 C 
ENDBRANCH  13  15
ENDBRANCH  12  13
ENDBRANCH  11  12
ENDBRANCH   9  11
ENDBRANCH   3   9
ENDBRANCH   2   6
ENDBRANCH   1   2
BRANCH   1  16
ATOM     16  C   UNL     1      -1.224  11.760  19.506  0.00  0.00    +0.000 C 
BRANCH  16  17
ATOM     17  C   UNL     1      -0.689  13.005  18.794  0.00  0.00    +0.000 C 
BRANCH  17  18
ATOM     18  N   UNL     1      -0.327  14.057  19.759  0.00  0.00    +0.000 NA
ATOM     19  C   UNL     1       0.481  13.539  20.895  0.00  0.00    +0.000 C 
ATOM     20  C   UNL     1       1.926  13.156  20.529  0.00  0.00    +0.000 C 
ATOM     21  N   UNL     1       2.606  14.260  19.834  0.00  0.00    +0.000 N 
ATOM     22  C   UNL     1       3.827  14.691  20.315  0.00  0.00    +0.000 C 
ATOM     23  O   UNL     1       4.340  14.213  21.332  0.00  0.00    +0.000 OA
ATOM     24  N   UNL     1       4.446  15.677  19.602  0.00  0.00    +0.000 N 
ATOM     25  C   UNL     1       1.850  14.776  18.687  0.00  0.00    +0.000 C 
ATOM     26  C   UNL     1       0.419  15.160  19.115  0.00  0.00    +0.000 C 
ATOM     27  H   UNL     1       3.937  16.184  18.907  0.00  0.00    +0.000 HD
BRANCH  24  28
ATOM     28  C   UNL     1       5.730  16.234  20.021  0.00  0.00    +0.000 C 
ATOM     29  C   UNL     1       6.816  15.886  19.009  0.00  0.00    +0.000 C 
ATOM     30  C   UNL     1       5.646  17.747  20.197  0.00  0.00    +0.000 C 
ENDBRANCH  24  28
ENDBRANCH  17  18
ENDBRANCH  16  17
ENDBRANCH   1  16
TORSDOF 11
ENDMDL
