MODEL 1
REMARK VINA RESULT:      -7.7      0.000      0.000
REMARK  Name = 
REMARK  11 active torsions:
REMARK  status: ('A' for Active; 'I' for Inactive)
REMARK    1  A    between atoms: C_1  and  C_2
REMARK    2  A    between atoms: C_2  and  O_3
REMARK    3  A    between atoms: O_3  and  C_4
REMARK    4  A    between atoms: C_4  and  C_6
REMARK    5  A    between atoms: N_8  and  C_9
REMARK    6  A    between atoms: C_9  and  C_10
REMARK    7  A    between atoms: N_12  and  C_13
REMARK    8  A    between atoms: C_18  and  C_19
REMARK    9  A    between atoms: C_19  and  O_21
REMARK   10  A    between atoms: O_21  and  C_22
REMARK   11  A    between atoms: C_22  and  C_23
REMARK                            x       y       z     vdW  Elec       q    Type
REMARK                         _______ _______ _______ _____ _____    ______ ____
ROOT
ATOM      1  C   UNL     1       5.698   4.457  18.854  0.00  0.00    +0.000 C 
ATOM      2  O   UNL     1       5.526   5.348  19.684  0.00  0.00    +0.000 OA
ATOM      3  N   UNL     1       4.876   3.348  18.734  0.00  0.00    +0.000 N 
ATOM      4  H   UNL     1       5.319   2.467  18.467  0.00  0.00    +0.000 HD
ENDROOT
BRANCH   3   5
ATOM      5  C   UNL     1       3.676   3.227  19.489  0.00  0.00    +0.000 A 
ATOM      6  C   UNL     1       3.732   2.704  20.791  0.00  0.00    +0.000 A 
ATOM      7  C   UNL     1       2.577   2.578  21.565  0.00  0.00    +0.000 A 
ATOM      8  C   UNL     1       1.346   2.953  21.042  0.00  0.00    +0.000 A 
ATOM      9  C   UNL     1       1.273   3.486  19.758  0.00  0.00    +0.000 A 
ATOM     10  C   UNL     1       2.435   3.649  18.976  0.00  0.00    +0.000 A 
BRANCH  10  11
ATOM     11  C   UNL     1       2.350   4.280  17.629  0.00  0.00    +0.000 C 
ATOM     12  O   UNL     1       1.848   3.735  16.656  0.00  0.00    +0.000 OA
BRANCH  11  13
ATOM     13  O   UNL     1       3.021   5.459  17.630  0.00  0.00    +0.000 OA
BRANCH  13  14
ATOM     14  C   UNL     1       2.433   6.514  18.397  0.00  0.00    +0.000 C 
ATOM     15  C   UNL     1       2.863   7.831  17.775  0.00  0.00    +0.000 C 
ENDBRANCH  13  14
ENDBRANCH  11  13
ENDBRANCH  10  11
ENDBRANCH   3   5
BRANCH   1  16
ATOM     16  C   UNL     1       6.884   4.483  17.908  0.00  0.00    +0.000 C 
BRANCH  16  19
ATOM     17  C   UNL     1       6.035   4.451  14.425  0.00  0.00    +0.000 A 
ATOM     18  C   UNL     1       6.260   3.715  15.570  0.00  0.00    +0.000 A 
ATOM     19  N   UNL     1       6.432   4.657  16.540  0.00  0.00    +0.000 N 
ATOM     20  N   UNL     1       6.180   5.893  16.071  0.00  0.00    +0.000 NA
ATOM     21  N   UNL     1       5.946   5.781  14.770  0.00  0.00    +0.000 NA
BRANCH  17  22
ATOM     22  C   UNL     1       6.002   3.964  13.056  0.00  0.00    +0.000 C 
ATOM     23  O   UNL     1       6.964   3.999  12.298  0.00  0.00    +0.000 OA
BRANCH  22  24
ATOM     24  O   UNL     1       4.741   3.590  12.690  0.00  0.00    +0.000 OA
BRANCH  24  26
ATOM     25  C   UNL     1       3.507   3.463  10.651  0.00  0.00    +0.000 C 
ATOM     26  C   UNL     1       4.643   2.862  11.462  0.00  0.00    +0.000 C 
ENDBRANCH  24  26
ENDBRANCH  22  24
ENDBRANCH  17  22
ENDBRANCH  16  19
ENDBRANCH   1  16
TORSDOF 9
ENDMDL
MODEL 2
REMARK VINA RESULT:      -7.3      1.308      2.763
REMARK  Name = 
REMARK  11 active torsions:
REMARK  status: ('A' for Active; 'I' for Inactive)
REMARK    1  A    between atoms: C_1  and  C_2
REMARK    2  A    between atoms: C_2  and  O_3
REMARK    3  A    between atoms: O_3  and  C_4
REMARK    4  A    between atoms: C_4  and  C_6
REMARK    5  A    between atoms: N_8  and  C_9
REMARK    6  A    between atoms: C_9  and  C_10
REMARK    7  A    between atoms: N_12  and  C_13
REMARK    8  A    between atoms: C_18  and  C_19
REMARK    9  A    between atoms: C_19  and  O_21
REMARK   10  A    between atoms: O_21  and  C_22
REMARK   11  A    between atoms: C_22  and  C_23
REMARK                            x       y       z     vdW  Elec       q    Type
REMARK                         _______ _______ _______ _____ _____    ______ ____
ROOT
ATOM      1  C   UNL     1       6.259   4.914  18.047  0.00  0.00    +0.000 C 
ATOM      2  O   UNL     1       6.369   5.028  19.266  0.00  0.00    +0.000 OA
ATOM      3  N   UNL     1       5.076   5.132  17.359  0.00  0.00    +0.000 N 
ATOM      4  H   UNL     1       4.898   4.545  16.542  0.00  0.00    +0.000 HD
ENDROOT
BRANCH   3   5
ATOM      5  C   UNL     1       3.918   5.640  18.013  0.00  0.00    +0.000 A 
ATOM      6  C   UNL     1       3.718   7.029  18.075  0.00  0.00    +0.000 A 
ATOM      7  C   UNL     1       2.591   7.566  18.699  0.00  0.00    +0.000 A 
ATOM      8  C   UNL     1       1.657   6.723  19.289  0.00  0.00    +0.000 A 
ATOM      9  C   UNL     1       1.832   5.343  19.227  0.00  0.00    +0.000 A 
ATOM     10  C   UNL     1       2.950   4.786  18.572  0.00  0.00    +0.000 A 
BRANCH  10  11
ATOM     11  C   UNL     1       3.091   3.307  18.457  0.00  0.00    +0.000 C 
ATOM     12  O   UNL     1       3.606   2.748  17.499  0.00  0.00    +0.000 OA
BRANCH  11  13
ATOM     13  O   UNL     1       2.450   2.703  19.488  0.00  0.00    +0.000 OA
BRANCH  13  14
ATOM     14  C   UNL     1       3.149   2.683  20.736  0.00  0.00    +0.000 C 
ATOM     15  C   UNL     1       2.121   2.812  21.844  0.00  0.00    +0.000 C 
ENDBRANCH  13  14
ENDBRANCH  11  13
ENDBRANCH  10  11
ENDBRANCH   3   5
BRANCH   1  16
ATOM     16  C   UNL     1       7.428   4.469  17.191  0.00  0.00    +0.000 C 
BRANCH  16  19
ATOM     17  C   UNL     1       6.500   4.138  13.744  0.00  0.00    +0.000 A 
ATOM     18  C   UNL     1       6.312   3.708  15.041  0.00  0.00    +0.000 A 
ATOM     19  N   UNL     1       7.082   4.553  15.784  0.00  0.00    +0.000 N 
ATOM     20  N   UNL     1       7.595   5.540  15.026  0.00  0.00    +0.000 NA
ATOM     21  N   UNL     1       7.254   5.289  13.769  0.00  0.00    +0.000 NA
BRANCH  17  22
ATOM     22  C   UNL     1       6.088   3.465  12.523  0.00  0.00    +0.000 C 
ATOM     23  O   UNL     1       6.856   2.848  11.794  0.00  0.00    +0.000 OA
BRANCH  22  24
ATOM     24  O   UNL     1       4.778   3.717  12.232  0.00  0.00    +0.000 OA
BRANCH  24  26
ATOM     25  C   UNL     1       3.327   3.787  10.338  0.00  0.00    +0.000 C 
ATOM     26  C   UNL     1       4.203   2.900  11.208  0.00  0.00    +0.000 C 
ENDBRANCH  24  26
ENDBRANCH  22  24
ENDBRANCH  17  22
ENDBRANCH  16  19
ENDBRANCH   1  16
TORSDOF 9
ENDMDL
MODEL 3
REMARK VINA RESULT:      -7.3      1.423      2.765
REMARK  Name = 
REMARK  11 active torsions:
REMARK  status: ('A' for Active; 'I' for Inactive)
REMARK    1  A    between atoms: C_1  and  C_2
REMARK    2  A    between atoms: C_2  and  O_3
REMARK    3  A    between atoms: O_3  and  C_4
REMARK    4  A    between atoms: C_4  and  C_6
REMARK    5  A    between atoms: N_8  and  C_9
REMARK    6  A    between atoms: C_9  and  C_10
REMARK    7  A    between atoms: N_12  and  C_13
REMARK    8  A    between atoms: C_18  and  C_19
REMARK    9  A    between atoms: C_19  and  O_21
REMARK   10  A    between atoms: O_21  and  C_22
REMARK   11  A    between atoms: C_22  and  C_23
REMARK                            x       y       z     vdW  Elec       q    Type
REMARK                         _______ _______ _______ _____ _____    ______ ____
ROOT
ATOM      1  C   UNL     1       6.290   4.990  18.493  0.00  0.00    +0.000 C 
ATOM      2  O   UNL     1       6.486   5.337  19.656  0.00  0.00    +0.000 OA
ATOM      3  N   UNL     1       5.057   5.065  17.866  0.00  0.00    +0.000 N 
ATOM      4  H   UNL     1       4.832   4.331  17.192  0.00  0.00    +0.000 HD
ENDROOT
BRANCH   3   5
ATOM      5  C   UNL     1       3.941   5.686  18.492  0.00  0.00    +0.000 A 
ATOM      6  C   UNL     1       3.638   7.023  18.189  0.00  0.00    +0.000 A 
ATOM      7  C   UNL     1       2.545   7.664  18.776  0.00  0.00    +0.000 A 
ATOM      8  C   UNL     1       1.752   6.984  19.693  0.00  0.00    +0.000 A 
ATOM      9  C   UNL     1       2.030   5.654  19.996  0.00  0.00    +0.000 A 
ATOM     10  C   UNL     1       3.111   4.984  19.386  0.00  0.00    +0.000 A 
BRANCH  10  11
ATOM     11  C   UNL     1       3.357   3.543  19.673  0.00  0.00    +0.000 C 
ATOM     12  O   UNL     1       3.594   3.105  20.789  0.00  0.00    +0.000 OA
BRANCH  11  13
ATOM     13  O   UNL     1       3.410   2.846  18.510  0.00  0.00    +0.000 OA
BRANCH  13  14
ATOM     14  C   UNL     1       2.173   2.706  17.806  0.00  0.00    +0.000 C 
ATOM     15  C   UNL     1       1.153   2.132  18.774  0.00  0.00    +0.000 C 
ENDBRANCH  13  14
ENDBRANCH  11  13
ENDBRANCH  10  11
ENDBRANCH   3   5
BRANCH   1  16
ATOM     16  C   UNL     1       7.403   4.392  17.654  0.00  0.00    +0.000 C 
BRANCH  16  19
ATOM     17  C   UNL     1       6.775   4.410  14.125  0.00  0.00    +0.000 A 
ATOM     18  C   UNL     1       6.562   3.787  15.336  0.00  0.00    +0.000 A 
ATOM     19  N   UNL     1       7.147   4.618  16.244  0.00  0.00    +0.000 N 
ATOM     20  N   UNL     1       7.563   5.759  15.664  0.00  0.00    +0.000 NA
ATOM     21  N   UNL     1       7.351   5.639  14.360  0.00  0.00    +0.000 NA
BRANCH  17  22
ATOM     22  C   UNL     1       6.552   3.860  12.798  0.00  0.00    +0.000 C 
ATOM     23  O   UNL     1       7.198   4.184  11.809  0.00  0.00    +0.000 OA
BRANCH  22  24
ATOM     24  O   UNL     1       5.457   3.045  12.775  0.00  0.00    +0.000 OA
BRANCH  24  26
ATOM     25  C   UNL     1       3.832   3.233  11.035  0.00  0.00    +0.000 C 
ATOM     26  C   UNL     1       5.098   2.526  11.490  0.00  0.00    +0.000 C 
ENDBRANCH  24  26
ENDBRANCH  22  24
ENDBRANCH  17  22
ENDBRANCH  16  19
ENDBRANCH   1  16
TORSDOF 9
ENDMDL
MODEL 4
REMARK VINA RESULT:      -7.3      1.401      1.538
REMARK  Name = 
REMARK  11 active torsions:
REMARK  status: ('A' for Active; 'I' for Inactive)
REMARK    1  A    between atoms: C_1  and  C_2
REMARK    2  A    between atoms: C_2  and  O_3
REMARK    3  A    between atoms: O_3  and  C_4
REMARK    4  A    between atoms: C_4  and  C_6
REMARK    5  A    between atoms: N_8  and  C_9
REMARK    6  A    between atoms: C_9  and  C_10
REMARK    7  A    between atoms: N_12  and  C_13
REMARK    8  A    between atoms: C_18  and  C_19
REMARK    9  A    between atoms: C_19  and  O_21
REMARK   10  A    between atoms: O_21  and  C_22
REMARK   11  A    between atoms: C_22  and  C_23
REMARK                            x       y       z     vdW  Elec       q    Type
REMARK                         _______ _______ _______ _____ _____    ______ ____
ROOT
ATOM      1  C   UNL     1       6.071   4.168  18.185  0.00  0.00    +0.000 C 
ATOM      2  O   UNL     1       6.033   4.246  19.411  0.00  0.00    +0.000 OA
ATOM      3  N   UNL     1       5.000   3.757  17.407  0.00  0.00    +0.000 N 
ATOM      4  H   UNL     1       5.216   3.220  16.564  0.00  0.00    +0.000 HD
ENDROOT
BRANCH   3   5
ATOM      5  C   UNL     1       3.716   3.522  17.973  0.00  0.00    +0.000 A 
ATOM      6  C   UNL     1       3.396   2.235  18.438  0.00  0.00    +0.000 A 
ATOM      7  C   UNL     1       2.150   1.967  19.007  0.00  0.00    +0.000 A 
ATOM      8  C   UNL     1       1.198   2.975  19.102  0.00  0.00    +0.000 A 
ATOM      9  C   UNL     1       1.503   4.259  18.659  0.00  0.00    +0.000 A 
ATOM     10  C   UNL     1       2.769   4.552  18.110  0.00  0.00    +0.000 A 
BRANCH  10  11
ATOM     11  C   UNL     1       3.103   5.945  17.699  0.00  0.00    +0.000 C 
ATOM     12  O   UNL     1       4.171   6.266  17.198  0.00  0.00    +0.000 OA
BRANCH  11  13
ATOM     13  O   UNL     1       2.114   6.789  18.088  0.00  0.00    +0.000 OA
BRANCH  13  14
ATOM     14  C   UNL     1       2.518   8.123  18.405  0.00  0.00    +0.000 C 
ATOM     15  C   UNL     1       1.559   9.074  17.711  0.00  0.00    +0.000 C 
ENDBRANCH  13  14
ENDBRANCH  11  13
ENDBRANCH  10  11
ENDBRANCH   3   5
BRANCH   1  16
ATOM     16  C   UNL     1       7.342   4.476  17.418  0.00  0.00    +0.000 C 
BRANCH  16  19
ATOM     17  C   UNL     1       6.571   4.265  13.923  0.00  0.00    +0.000 A 
ATOM     18  C   UNL     1       6.336   3.780  15.193  0.00  0.00    +0.000 A 
ATOM     19  N   UNL     1       7.056   4.609  16.001  0.00  0.00    +0.000 N 
ATOM     20  N   UNL     1       7.581   5.634  15.306  0.00  0.00    +0.000 NA
ATOM     21  N   UNL     1       7.301   5.428  14.026  0.00  0.00    +0.000 NA
BRANCH  17  22
ATOM     22  C   UNL     1       6.226   3.633  12.660  0.00  0.00    +0.000 C 
ATOM     23  O   UNL     1       7.048   3.337  11.801  0.00  0.00    +0.000 OA
BRANCH  22  24
ATOM     24  O   UNL     1       4.874   3.534  12.505  0.00  0.00    +0.000 OA
BRANCH  24  26
ATOM     25  C   UNL     1       3.476   3.778  10.585  0.00  0.00    +0.000 C 
ATOM     26  C   UNL     1       4.433   2.857  11.324  0.00  0.00    +0.000 C 
ENDBRANCH  24  26
ENDBRANCH  22  24
ENDBRANCH  17  22
ENDBRANCH  16  19
ENDBRANCH   1  16
TORSDOF 9
ENDMDL
MODEL 5
REMARK VINA RESULT:      -7.1      3.063      4.741
REMARK  Name = 
REMARK  11 active torsions:
REMARK  status: ('A' for Active; 'I' for Inactive)
REMARK    1  A    between atoms: C_1  and  C_2
REMARK    2  A    between atoms: C_2  and  O_3
REMARK    3  A    between atoms: O_3  and  C_4
REMARK    4  A    between atoms: C_4  and  C_6
REMARK    5  A    between atoms: N_8  and  C_9
REMARK    6  A    between atoms: C_9  and  C_10
REMARK    7  A    between atoms: N_12  and  C_13
REMARK    8  A    between atoms: C_18  and  C_19
REMARK    9  A    between atoms: C_19  and  O_21
REMARK   10  A    between atoms: O_21  and  C_22
REMARK   11  A    between atoms: C_22  and  C_23
REMARK                            x       y       z     vdW  Elec       q    Type
REMARK                         _______ _______ _______ _____ _____    ______ ____
ROOT
ATOM      1  C   UNL     1       5.461   4.481  18.783  0.00  0.00    +0.000 C 
ATOM      2  O   UNL     1       5.488   5.227  19.760  0.00  0.00    +0.000 OA
ATOM      3  N   UNL     1       4.522   3.478  18.607  0.00  0.00    +0.000 N 
ATOM      4  H   UNL     1       4.834   2.624  18.142  0.00  0.00    +0.000 HD
ENDROOT
BRANCH   3   5
ATOM      5  C   UNL     1       3.422   3.324  19.497  0.00  0.00    +0.000 A 
ATOM      6  C   UNL     1       3.622   2.687  20.733  0.00  0.00    +0.000 A 
ATOM      7  C   UNL     1       2.571   2.525  21.636  0.00  0.00    +0.000 A 
ATOM      8  C   UNL     1       1.299   2.978  21.310  0.00  0.00    +0.000 A 
ATOM      9  C   UNL     1       1.084   3.623  20.095  0.00  0.00    +0.000 A 
ATOM     10  C   UNL     1       2.144   3.823  19.186  0.00  0.00    +0.000 A 
BRANCH  10  11
ATOM     11  C   UNL     1       1.913   4.572  17.919  0.00  0.00    +0.000 C 
ATOM     12  O   UNL     1       1.137   4.206  17.047  0.00  0.00    +0.000 OA
BRANCH  11  13
ATOM     13  O   UNL     1       2.779   5.613  17.836  0.00  0.00    +0.000 OA
BRANCH  13  14
ATOM     14  C   UNL     1       2.455   6.761  18.624  0.00  0.00    +0.000 C 
ATOM     15  C   UNL     1       2.870   7.993  17.840  0.00  0.00    +0.000 C 
ENDBRANCH  13  14
ENDBRANCH  11  13
ENDBRANCH  10  11
ENDBRANCH   3   5
BRANCH   1  16
ATOM     16  C   UNL     1       6.511   4.577  17.693  0.00  0.00    +0.000 C 
BRANCH  16  19
ATOM     17  C   UNL     1       7.746   7.942  17.767  0.00  0.00    +0.000 A 
ATOM     18  C   UNL     1       7.934   6.630  18.148  0.00  0.00    +0.000 A 
ATOM     19  N   UNL     1       6.931   5.955  17.518  0.00  0.00    +0.000 N 
ATOM     20  N   UNL     1       6.253   6.759  16.679  0.00  0.00    +0.000 NA
ATOM     21  N   UNL     1       6.737   7.985  16.831  0.00  0.00    +0.000 NA
BRANCH  17  22
ATOM     22  C   UNL     1       8.397   9.121  18.313  0.00  0.00    +0.000 C 
ATOM     23  O   UNL     1       9.096   9.107  19.319  0.00  0.00    +0.000 OA
BRANCH  22  24
ATOM     24  O   UNL     1       8.024  10.251  17.644  0.00  0.00    +0.000 OA
BRANCH  24  26
ATOM     25  C   UNL     1       8.062  12.624  17.386  0.00  0.00    +0.000 C 
ATOM     26  C   UNL     1       8.823  11.412  17.895  0.00  0.00    +0.000 C 
ENDBRANCH  24  26
ENDBRANCH  22  24
ENDBRANCH  17  22
ENDBRANCH  16  19
ENDBRANCH   1  16
TORSDOF 9
ENDMDL
MODEL 6
REMARK VINA RESULT:      -7.0      1.339      1.840
REMARK  Name = 
REMARK  11 active torsions:
REMARK  status: ('A' for Active; 'I' for Inactive)
REMARK    1  A    between atoms: C_1  and  C_2
REMARK    2  A    between atoms: C_2  and  O_3
REMARK    3  A    between atoms: O_3  and  C_4
REMARK    4  A    between atoms: C_4  and  C_6
REMARK    5  A    between atoms: N_8  and  C_9
REMARK    6  A    between atoms: C_9  and  C_10
REMARK    7  A    between atoms: N_12  and  C_13
REMARK    8  A    between atoms: C_18  and  C_19
REMARK    9  A    between atoms: C_19  and  O_21
REMARK   10  A    between atoms: O_21  and  C_22
REMARK   11  A    between atoms: C_22  and  C_23
REMARK                            x       y       z     vdW  Elec       q    Type
REMARK                         _______ _______ _______ _____ _____    ______ ____
ROOT
ATOM      1  C   UNL     1       5.341   5.259  18.586  0.00  0.00    +0.000 C 
ATOM      2  O   UNL     1       5.782   5.036  19.712  0.00  0.00    +0.000 OA
ATOM      3  N   UNL     1       4.057   4.930  18.184  0.00  0.00    +0.000 N 
ATOM      4  H   UNL     1       3.933   4.638  17.212  0.00  0.00    +0.000 HD
ENDROOT
BRANCH   3   5
ATOM      5  C   UNL     1       3.097   4.422  19.103  0.00  0.00    +0.000 A 
ATOM      6  C   UNL     1       3.074   3.045  19.383  0.00  0.00    +0.000 A 
ATOM      7  C   UNL     1       2.154   2.511  20.285  0.00  0.00    +0.000 A 
ATOM      8  C   UNL     1       1.228   3.340  20.906  0.00  0.00    +0.000 A 
ATOM      9  C   UNL     1       1.243   4.708  20.651  0.00  0.00    +0.000 A 
ATOM     10  C   UNL     1       2.189   5.267  19.765  0.00  0.00    +0.000 A 
BRANCH  10  11
ATOM     11  C   UNL     1       2.235   6.741  19.552  0.00  0.00    +0.000 C 
ATOM     12  O   UNL     1       2.197   7.559  20.460  0.00  0.00    +0.000 OA
BRANCH  11  13
ATOM     13  O   UNL     1       2.186   7.015  18.224  0.00  0.00    +0.000 OA
BRANCH  13  14
ATOM     14  C   UNL     1       2.697   8.292  17.829  0.00  0.00    +0.000 C 
ATOM     15  C   UNL     1       1.534   9.267  17.803  0.00  0.00    +0.000 C 
ENDBRANCH  13  14
ENDBRANCH  11  13
ENDBRANCH  10  11
ENDBRANCH   3   5
BRANCH   1  16
ATOM     16  C   UNL     1       6.211   5.884  17.512  0.00  0.00    +0.000 C 
BRANCH  16  19
ATOM     17  C   UNL     1       6.291   4.157  14.371  0.00  0.00    +0.000 A 
ATOM     18  C   UNL     1       6.546   5.325  15.058  0.00  0.00    +0.000 A 
ATOM     19  N   UNL     1       6.294   5.007  16.359  0.00  0.00    +0.000 N 
ATOM     20  N   UNL     1       6.046   3.691  16.500  0.00  0.00    +0.000 NA
ATOM     21  N   UNL     1       6.029   3.160  15.285  0.00  0.00    +0.000 NA
BRANCH  17  22
ATOM     22  C   UNL     1       6.191   3.984  12.932  0.00  0.00    +0.000 C 
ATOM     23  O   UNL     1       7.120   4.178  12.157  0.00  0.00    +0.000 OA
BRANCH  22  24
ATOM     24  O   UNL     1       4.909   3.709  12.550  0.00  0.00    +0.000 OA
BRANCH  24  26
ATOM     25  C   UNL     1       3.483   3.259  10.689  0.00  0.00    +0.000 C 
ATOM     26  C   UNL     1       4.771   2.872  11.398  0.00  0.00    +0.000 C 
ENDBRANCH  24  26
ENDBRANCH  22  24
ENDBRANCH  17  22
ENDBRANCH  16  19
ENDBRANCH   1  16
TORSDOF 9
ENDMDL
MODEL 7
REMARK VINA RESULT:      -7.0      3.356      5.399
REMARK  Name = 
REMARK  11 active torsions:
REMARK  status: ('A' for Active; 'I' for Inactive)
REMARK    1  A    between atoms: C_1  and  C_2
REMARK    2  A    between atoms: C_2  and  O_3
REMARK    3  A    between atoms: O_3  and  C_4
REMARK    4  A    between atoms: C_4  and  C_6
REMARK    5  A    between atoms: N_8  and  C_9
REMARK    6  A    between atoms: C_9  and  C_10
REMARK    7  A    between atoms: N_12  and  C_13
REMARK    8  A    between atoms: C_18  and  C_19
REMARK    9  A    between atoms: C_19  and  O_21
REMARK   10  A    between atoms: O_21  and  C_22
REMARK   11  A    between atoms: C_22  and  C_23
REMARK                            x       y       z     vdW  Elec       q    Type
REMARK                         _______ _______ _______ _____ _____    ______ ____
ROOT
ATOM      1  C   UNL     1       5.662   4.193  16.693  0.00  0.00    +0.000 C 
ATOM      2  O   UNL     1       4.995   4.097  15.666  0.00  0.00    +0.000 OA
ATOM      3  N   UNL     1       5.135   4.057  17.968  0.00  0.00    +0.000 N 
ATOM      4  H   UNL     1       5.541   4.639  18.704  0.00  0.00    +0.000 HD
ENDROOT
BRANCH   3   5
ATOM      5  C   UNL     1       3.786   3.656  18.176  0.00  0.00    +0.000 A 
ATOM      6  C   UNL     1       3.471   2.287  18.195  0.00  0.00    +0.000 A 
ATOM      7  C   UNL     1       2.160   1.855  18.405  0.00  0.00    +0.000 A 
ATOM      8  C   UNL     1       1.141   2.784  18.577  0.00  0.00    +0.000 A 
ATOM      9  C   UNL     1       1.437   4.144  18.574  0.00  0.00    +0.000 A 
ATOM     10  C   UNL     1       2.762   4.595  18.395  0.00  0.00    +0.000 A 
BRANCH  10  11
ATOM     11  C   UNL     1       3.073   6.051  18.458  0.00  0.00    +0.000 C 
ATOM     12  O   UNL     1       3.677   6.654  17.582  0.00  0.00    +0.000 OA
BRANCH  11  13
ATOM     13  O   UNL     1       2.710   6.546  19.668  0.00  0.00    +0.000 OA
BRANCH  13  14
ATOM     14  C   UNL     1       1.958   7.763  19.647  0.00  0.00    +0.000 C 
ATOM     15  C   UNL     1       1.393   7.981  21.039  0.00  0.00    +0.000 C 
ENDBRANCH  13  14
ENDBRANCH  11  13
ENDBRANCH  10  11
ENDBRANCH   3   5
BRANCH   1  16
ATOM     16  C   UNL     1       7.141   4.526  16.641  0.00  0.00    +0.000 C 
BRANCH  16  19
ATOM     17  C   UNL     1       7.916   7.692  18.135  0.00  0.00    +0.000 A 
ATOM     18  C   UNL     1       7.333   7.019  17.081  0.00  0.00    +0.000 A 
ATOM     19  N   UNL     1       7.419   5.707  17.438  0.00  0.00    +0.000 N 
ATOM     20  N   UNL     1       7.883   5.571  18.694  0.00  0.00    +0.000 NA
ATOM     21  N   UNL     1       8.203   6.783  19.129  0.00  0.00    +0.000 NA
BRANCH  17  22
ATOM     22  C   UNL     1       8.288   9.096  18.188  0.00  0.00    +0.000 C 
ATOM     23  O   UNL     1       7.867   9.941  17.406  0.00  0.00    +0.000 OA
BRANCH  22  24
ATOM     24  O   UNL     1       9.254   9.321  19.125  0.00  0.00    +0.000 OA
BRANCH  24  26
ATOM     25  C   UNL     1       9.282  11.085  20.735  0.00  0.00    +0.000 C 
ATOM     26  C   UNL     1       9.632  10.689  19.310  0.00  0.00    +0.000 C 
ENDBRANCH  24  26
ENDBRANCH  22  24
ENDBRANCH  17  22
ENDBRANCH  16  19
ENDBRANCH   1  16
TORSDOF 9
ENDMDL
MODEL 8
REMARK VINA RESULT:      -6.9      1.955      2.385
REMARK  Name = 
REMARK  11 active torsions:
REMARK  status: ('A' for Active; 'I' for Inactive)
REMARK    1  A    between atoms: C_1  and  C_2
REMARK    2  A    between atoms: C_2  and  O_3
REMARK    3  A    between atoms: O_3  and  C_4
REMARK    4  A    between atoms: C_4  and  C_6
REMARK    5  A    between atoms: N_8  and  C_9
REMARK    6  A    between atoms: C_9  and  C_10
REMARK    7  A    between atoms: N_12  and  C_13
REMARK    8  A    between atoms: C_18  and  C_19
REMARK    9  A    between atoms: C_19  and  O_21
REMARK   10  A    between atoms: O_21  and  C_22
REMARK   11  A    between atoms: C_22  and  C_23
REMARK                            x       y       z     vdW  Elec       q    Type
REMARK                         _______ _______ _______ _____ _____    ______ ____
ROOT
ATOM      1  C   UNL     1       4.934   5.347  17.784  0.00  0.00    +0.000 C 
ATOM      2  O   UNL     1       5.495   4.451  18.411  0.00  0.00    +0.000 OA
ATOM      3  N   UNL     1       3.557   5.494  17.719  0.00  0.00    +0.000 N 
ATOM      4  H   UNL     1       3.167   5.845  16.842  0.00  0.00    +0.000 HD
ENDROOT
BRANCH   3   5
ATOM      5  C   UNL     1       2.685   4.681  18.496  0.00  0.00    +0.000 A 
ATOM      6  C   UNL     1       2.583   3.311  18.206  0.00  0.00    +0.000 A 
ATOM      7  C   UNL     1       1.745   2.480  18.952  0.00  0.00    +0.000 A 
ATOM      8  C   UNL     1       0.981   3.010  19.984  0.00  0.00    +0.000 A 
ATOM      9  C   UNL     1       1.079   4.363  20.294  0.00  0.00    +0.000 A 
ATOM     10  C   UNL     1       1.945   5.209  19.570  0.00  0.00    +0.000 A 
BRANCH  10  11
ATOM     11  C   UNL     1       2.088   6.642  19.954  0.00  0.00    +0.000 C 
ATOM     12  O   UNL     1       2.854   7.418  19.401  0.00  0.00    +0.000 OA
BRANCH  11  13
ATOM     13  O   UNL     1       1.356   6.894  21.068  0.00  0.00    +0.000 OA
BRANCH  13  14
ATOM     14  C   UNL     1       0.669   8.148  21.095  0.00  0.00    +0.000 C 
ATOM     15  C   UNL     1       1.302   8.998  22.182  0.00  0.00    +0.000 C 
ENDBRANCH  13  14
ENDBRANCH  11  13
ENDBRANCH  10  11
ENDBRANCH   3   5
BRANCH   1  16
ATOM     16  C   UNL     1       5.726   6.356  16.975  0.00  0.00    +0.000 C 
BRANCH  16  19
ATOM     17  C   UNL     1       6.335   4.604  13.907  0.00  0.00    +0.000 A 
ATOM     18  C   UNL     1       5.404   5.166  14.755  0.00  0.00    +0.000 A 
ATOM     19  N   UNL     1       6.156   5.767  15.720  0.00  0.00    +0.000 N 
ATOM     20  N   UNL     1       7.467   5.719  15.418  0.00  0.00    +0.000 NA
ATOM     21  N   UNL     1       7.591   4.997  14.313  0.00  0.00    +0.000 NA
BRANCH  17  22
ATOM     22  C   UNL     1       6.089   3.662  12.827  0.00  0.00    +0.000 C 
ATOM     23  O   UNL     1       6.977   3.063  12.231  0.00  0.00    +0.000 OA
BRANCH  22  24
ATOM     24  O   UNL     1       4.769   3.634  12.482  0.00  0.00    +0.000 OA
BRANCH  24  26
ATOM     25  C   UNL     1       3.392   3.701  10.532  0.00  0.00    +0.000 C 
ATOM     26  C   UNL     1       4.457   2.918  11.282  0.00  0.00    +0.000 C 
ENDBRANCH  24  26
ENDBRANCH  22  24
ENDBRANCH  17  22
ENDBRANCH  16  19
ENDBRANCH   1  16
TORSDOF 9
ENDMDL
MODEL 9
REMARK VINA RESULT:      -6.9      1.853      3.453
REMARK  Name = 
REMARK  11 active torsions:
REMARK  status: ('A' for Active; 'I' for Inactive)
REMARK    1  A    between atoms: C_1  and  C_2
REMARK    2  A    between atoms: C_2  and  O_3
REMARK    3  A    between atoms: O_3  and  C_4
REMARK    4  A    between atoms: C_4  and  C_6
REMARK    5  A    between atoms: N_8  and  C_9
REMARK    6  A    between atoms: C_9  and  C_10
REMARK    7  A    between atoms: N_12  and  C_13
REMARK    8  A    between atoms: C_18  and  C_19
REMARK    9  A    between atoms: C_19  and  O_21
REMARK   10  A    between atoms: O_21  and  C_22
REMARK   11  A    between atoms: C_22  and  C_23
REMARK                            x       y       z     vdW  Elec       q    Type
REMARK                         _______ _______ _______ _____ _____    ______ ____
ROOT
ATOM      1  C   UNL     1       6.560   5.729  17.064  0.00  0.00    +0.000 C 
ATOM      2  O   UNL     1       6.910   6.859  17.398  0.00  0.00    +0.000 OA
ATOM      3  N   UNL     1       5.309   5.200  17.337  0.00  0.00    +0.000 N 
ATOM      4  H   UNL     1       5.260   4.198  17.534  0.00  0.00    +0.000 HD
ENDROOT
BRANCH   3   5
ATOM      5  C   UNL     1       4.277   5.990  17.916  0.00  0.00    +0.000 A 
ATOM      6  C   UNL     1       3.948   7.225  17.334  0.00  0.00    +0.000 A 
ATOM      7  C   UNL     1       2.936   8.024  17.868  0.00  0.00    +0.000 A 
ATOM      8  C   UNL     1       2.253   7.612  19.005  0.00  0.00    +0.000 A 
ATOM      9  C   UNL     1       2.557   6.385  19.589  0.00  0.00    +0.000 A 
ATOM     10  C   UNL     1       3.555   5.552  19.041  0.00  0.00    +0.000 A 
BRANCH  10  11
ATOM     11  C   UNL     1       3.825   4.214  19.638  0.00  0.00    +0.000 C 
ATOM     12  O   UNL     1       4.945   3.736  19.752  0.00  0.00    +0.000 OA
BRANCH  11  13
ATOM     13  O   UNL     1       2.653   3.581  19.896  0.00  0.00    +0.000 OA
BRANCH  13  14
ATOM     14  C   UNL     1       2.525   2.259  19.364  0.00  0.00    +0.000 C 
ATOM     15  C   UNL     1       2.200   2.386  17.886  0.00  0.00    +0.000 C 
ENDBRANCH  13  14
ENDBRANCH  11  13
ENDBRANCH  10  11
ENDBRANCH   3   5
BRANCH   1  16
ATOM     16  C   UNL     1       7.515   4.789  16.353  0.00  0.00    +0.000 C 
BRANCH  16  19
ATOM     17  C   UNL     1       6.365   3.886  13.079  0.00  0.00    +0.000 A 
ATOM     18  C   UNL     1       6.168   3.800  14.442  0.00  0.00    +0.000 A 
ATOM     19  N   UNL     1       7.118   4.624  14.967  0.00  0.00    +0.000 N 
ATOM     20  N   UNL     1       7.766   5.300  14.000  0.00  0.00    +0.000 NA
ATOM     21  N   UNL     1       7.321   4.847  12.836  0.00  0.00    +0.000 NA
BRANCH  17  22
ATOM     22  C   UNL     1       5.773   3.051  12.048  0.00  0.00    +0.000 C 
ATOM     23  O   UNL     1       4.653   3.233  11.585  0.00  0.00    +0.000 OA
BRANCH  22  24
ATOM     24  O   UNL     1       6.564   1.976  11.763  0.00  0.00    +0.000 OA
BRANCH  24  26
ATOM     25  C   UNL     1       6.195  -0.358  11.417  0.00  0.00    +0.000 C 
ATOM     26  C   UNL     1       6.019   1.034  10.833  0.00  0.00    +0.000 C 
ENDBRANCH  24  26
ENDBRANCH  22  24
ENDBRANCH  17  22
ENDBRANCH  16  19
ENDBRANCH   1  16
TORSDOF 9
ENDMDL
