MODEL 1
REMARK VINA RESULT:      -6.5      0.000      0.000
REMARK  Name = 
REMARK  7 active torsions:
REMARK  status: ('A' for Active; 'I' for Inactive)
REMARK    1  A    between atoms: C_1  and  C_2
REMARK    2  A    between atoms: C_2  and  S_3
REMARK    3  A    between atoms: S_3  and  C_6
REMARK    4  A    between atoms: C_7  and  N_8
REMARK    5  A    between atoms: C_14  and  N_15
REMARK    6  A    between atoms: C_21  and  C_22
REMARK    7  A    between atoms: C_21  and  C_23
REMARK                            x       y       z     vdW  Elec       q    Type
REMARK                         _______ _______ _______ _____ _____    ______ ____
ROOT
ATOM      1  C   UNL     1       3.272   4.091  19.659  0.00  0.00    +0.000 A 
ATOM      2  C   UNL     1       4.346   3.210  19.496  0.00  0.00    +0.000 A 
ATOM      3  C   UNL     1       5.421   3.492  18.631  0.00  0.00    +0.000 A 
ATOM      4  C   UNL     1       5.482   4.689  17.899  0.00  0.00    +0.000 A 
ATOM      5  C   UNL     1       4.418   5.606  18.043  0.00  0.00    +0.000 A 
ATOM      6  C   UNL     1       3.338   5.291  18.933  0.00  0.00    +0.000 A 
ATOM      7  C   UNL     1       4.448   6.940  17.315  0.00  0.00    +0.000 C 
ATOM      8  C   UNL     1       5.365   6.972  16.101  0.00  0.00    +0.000 C 
ATOM      9  C   UNL     1       6.721   6.396  16.458  0.00  0.00    +0.000 C 
ATOM     10  C   UNL     1       6.629   4.915  16.899  0.00  0.00    +0.000 C 
ATOM     11  C   UNL     1       8.012   4.544  17.484  0.00  0.00    +0.000 C 
ATOM     12  C   UNL     1       6.369   4.017  15.669  0.00  0.00    +0.000 C 
ENDROOT
BRANCH   1  13
ATOM     13  S   UNL     1       1.961   3.741  20.813  0.00  0.00    +0.000 S 
ATOM     14  O   UNL     1       1.074   4.881  20.855  0.00  0.00    +0.000 OA
ATOM     15  O   UNL     1       2.604   3.303  22.030  0.00  0.00    +0.000 OA
BRANCH  13  17
ATOM     16  C   UNL     1       0.833   2.540  18.630  0.00  0.00    +0.000 C 
ATOM     17  C   UNL     1       1.020   2.387  20.132  0.00  0.00    +0.000 C 
ENDBRANCH  13  17
ENDBRANCH   1  13
BRANCH   2  18
ATOM     18  N   UNL     1       4.397   1.898  20.111  0.00  0.00    +0.000 N 
ATOM     19  O   UNL     1       4.959   1.792  21.199  0.00  0.00    +0.000 OA
ATOM     20  O   UNL     1       3.897   0.977  19.453  0.00  0.00    +0.000 OA
ENDBRANCH   2  18
BRANCH   6  21
ATOM     21  N   UNL     1       2.243   6.248  18.986  0.00  0.00    +0.000 N 
ATOM     22  O   UNL     1       1.381   6.125  18.107  0.00  0.00    +0.000 OA
ATOM     23  O   UNL     1       2.338   7.160  19.815  0.00  0.00    +0.000 OA
ENDBRANCH   6  21
TORSDOF 4
ENDMDL
MODEL 2
REMARK VINA RESULT:      -5.7      3.401      5.442
REMARK  Name = 
REMARK  7 active torsions:
REMARK  status: ('A' for Active; 'I' for Inactive)
REMARK    1  A    between atoms: C_1  and  C_2
REMARK    2  A    between atoms: C_2  and  S_3
REMARK    3  A    between atoms: S_3  and  C_6
REMARK    4  A    between atoms: C_7  and  N_8
REMARK    5  A    between atoms: C_14  and  N_15
REMARK    6  A    between atoms: C_21  and  C_22
REMARK    7  A    between atoms: C_21  and  C_23
REMARK                            x       y       z     vdW  Elec       q    Type
REMARK                         _______ _______ _______ _____ _____    ______ ____
ROOT
ATOM      1  C   UNL     1       5.956   6.032  17.779  0.00  0.00    +0.000 A 
ATOM      2  C   UNL     1       6.447   4.843  18.326  0.00  0.00    +0.000 A 
ATOM      3  C   UNL     1       5.594   3.796  18.728  0.00  0.00    +0.000 A 
ATOM      4  C   UNL     1       4.200   3.883  18.579  0.00  0.00    +0.000 A 
ATOM      5  C   UNL     1       3.669   5.068  18.024  0.00  0.00    +0.000 A 
ATOM      6  C   UNL     1       4.563   6.116  17.624  0.00  0.00    +0.000 A 
ATOM      7  C   UNL     1       2.173   5.206  17.792  0.00  0.00    +0.000 C 
ATOM      8  C   UNL     1       1.319   4.272  18.637  0.00  0.00    +0.000 C 
ATOM      9  C   UNL     1       1.861   2.858  18.559  0.00  0.00    +0.000 C 
ATOM     10  C   UNL     1       3.302   2.754  19.113  0.00  0.00    +0.000 C 
ATOM     11  C   UNL     1       3.820   1.348  18.728  0.00  0.00    +0.000 C 
ATOM     12  C   UNL     1       3.281   2.855  20.654  0.00  0.00    +0.000 C 
ENDROOT
BRANCH   1  13
ATOM     13  S   UNL     1       7.061   7.310  17.215  0.00  0.00    +0.000 S 
ATOM     14  O   UNL     1       6.293   8.515  17.000  0.00  0.00    +0.000 OA
ATOM     15  O   UNL     1       7.805   6.742  16.116  0.00  0.00    +0.000 OA
BRANCH  13  17
ATOM     16  C   UNL     1       8.637   9.106  18.547  0.00  0.00    +0.000 C 
ATOM     17  C   UNL     1       8.183   7.655  18.560  0.00  0.00    +0.000 C 
ENDBRANCH  13  17
ENDBRANCH   1  13
BRANCH   2  18
ATOM     18  N   UNL     1       7.848   4.624  18.626  0.00  0.00    +0.000 N 
ATOM     19  O   UNL     1       8.529   4.024  17.797  0.00  0.00    +0.000 OA
ATOM     20  O   UNL     1       8.231   5.034  19.729  0.00  0.00    +0.000 OA
ENDBRANCH   2  18
BRANCH   6  21
ATOM     21  N   UNL     1       3.948   7.334  17.120  0.00  0.00    +0.000 N 
ATOM     22  O   UNL     1       3.378   8.036  17.965  0.00  0.00    +0.000 OA
ATOM     23  O   UNL     1       3.943   7.492  15.894  0.00  0.00    +0.000 OA
ENDBRANCH   6  21
TORSDOF 4
ENDMDL
MODEL 3
REMARK VINA RESULT:      -5.7      9.843     12.014
REMARK  Name = 
REMARK  7 active torsions:
REMARK  status: ('A' for Active; 'I' for Inactive)
REMARK    1  A    between atoms: C_1  and  C_2
REMARK    2  A    between atoms: C_2  and  S_3
REMARK    3  A    between atoms: S_3  and  C_6
REMARK    4  A    between atoms: C_7  and  N_8
REMARK    5  A    between atoms: C_14  and  N_15
REMARK    6  A    between atoms: C_21  and  C_22
REMARK    7  A    between atoms: C_21  and  C_23
REMARK                            x       y       z     vdW  Elec       q    Type
REMARK                         _______ _______ _______ _____ _____    ______ ____
ROOT
ATOM      1  C   UNL     1      -2.468  12.418  20.974  0.00  0.00    +0.000 A 
ATOM      2  C   UNL     1      -2.587  12.128  19.611  0.00  0.00    +0.000 A 
ATOM      3  C   UNL     1      -3.837  12.064  18.966  0.00  0.00    +0.000 A 
ATOM      4  C   UNL     1      -5.035  12.310  19.656  0.00  0.00    +0.000 A 
ATOM      5  C   UNL     1      -4.954  12.612  21.033  0.00  0.00    +0.000 A 
ATOM      6  C   UNL     1      -3.665  12.671  21.662  0.00  0.00    +0.000 A 
ATOM      7  C   UNL     1      -6.210  12.935  21.826  0.00  0.00    +0.000 C 
ATOM      8  C   UNL     1      -7.496  12.416  21.202  0.00  0.00    +0.000 C 
ATOM      9  C   UNL     1      -7.545  12.779  19.730  0.00  0.00    +0.000 C 
ATOM     10  C   UNL     1      -6.382  12.141  18.933  0.00  0.00    +0.000 C 
ATOM     11  C   UNL     1      -6.395  12.802  17.534  0.00  0.00    +0.000 C 
ATOM     12  C   UNL     1      -6.637  10.628  18.754  0.00  0.00    +0.000 C 
ENDROOT
BRANCH   1  13
ATOM     13  S   UNL     1      -0.870  12.562  21.748  0.00  0.00    +0.000 S 
ATOM     14  O   UNL     1      -1.059  13.048  23.097  0.00  0.00    +0.000 OA
ATOM     15  O   UNL     1      -0.048  13.320  20.835  0.00  0.00    +0.000 OA
BRANCH  13  17
ATOM     16  C   UNL     1      -0.756  10.198  23.119  0.00  0.00    +0.000 C 
ATOM     17  C   UNL     1      -0.213  10.909  21.890  0.00  0.00    +0.000 C 
ENDBRANCH  13  17
ENDBRANCH   1  13
BRANCH   2  18
ATOM     18  N   UNL     1      -1.460  11.767  18.775  0.00  0.00    +0.000 N 
ATOM     19  O   UNL     1      -0.938  12.649  18.096  0.00  0.00    +0.000 OA
ATOM     20  O   UNL     1      -1.143  10.570  18.788  0.00  0.00    +0.000 OA
ENDBRANCH   2  18
BRANCH   6  21
ATOM     21  N   UNL     1      -3.656  12.924  23.095  0.00  0.00    +0.000 N 
ATOM     22  O   UNL     1      -3.750  11.922  23.816  0.00  0.00    +0.000 OA
ATOM     23  O   UNL     1      -3.681  14.106  23.454  0.00  0.00    +0.000 OA
ENDBRANCH   6  21
TORSDOF 4
ENDMDL
MODEL 4
REMARK VINA RESULT:      -5.6     10.295     12.044
REMARK  Name = 
REMARK  7 active torsions:
REMARK  status: ('A' for Active; 'I' for Inactive)
REMARK    1  A    between atoms: C_1  and  C_2
REMARK    2  A    between atoms: C_2  and  S_3
REMARK    3  A    between atoms: S_3  and  C_6
REMARK    4  A    between atoms: C_7  and  N_8
REMARK    5  A    between atoms: C_14  and  N_15
REMARK    6  A    between atoms: C_21  and  C_22
REMARK    7  A    between atoms: C_21  and  C_23
REMARK                            x       y       z     vdW  Elec       q    Type
REMARK                         _______ _______ _______ _____ _____    ______ ____
ROOT
ATOM      1  C   UNL     1      -5.366  12.371  20.715  0.00  0.00    +0.000 A 
ATOM      2  C   UNL     1      -4.055  12.628  21.128  0.00  0.00    +0.000 A 
ATOM      3  C   UNL     1      -2.948  12.405  20.287  0.00  0.00    +0.000 A 
ATOM      4  C   UNL     1      -3.104  11.931  18.974  0.00  0.00    +0.000 A 
ATOM      5  C   UNL     1      -4.415  11.666  18.520  0.00  0.00    +0.000 A 
ATOM      6  C   UNL     1      -5.522  11.905  19.400  0.00  0.00    +0.000 A 
ATOM      7  C   UNL     1      -4.655  11.197  17.094  0.00  0.00    +0.000 C 
ATOM      8  C   UNL     1      -3.442  10.566  16.428  0.00  0.00    +0.000 C 
ATOM      9  C   UNL     1      -2.223  11.446  16.626  0.00  0.00    +0.000 C 
ATOM     10  C   UNL     1      -1.862  11.617  18.122  0.00  0.00    +0.000 C 
ATOM     11  C   UNL     1      -0.794  12.733  18.192  0.00  0.00    +0.000 C 
ATOM     12  C   UNL     1      -1.234  10.313  18.663  0.00  0.00    +0.000 C 
ENDROOT
BRANCH   1  13
ATOM     13  S   UNL     1      -6.752  12.729  21.775  0.00  0.00    +0.000 S 
ATOM     14  O   UNL     1      -6.436  12.273  23.110  0.00  0.00    +0.000 OA
ATOM     15  O   UNL     1      -7.916  12.200  21.106  0.00  0.00    +0.000 OA
BRANCH  13  17
ATOM     16  C   UNL     1      -6.818  15.140  20.483  0.00  0.00    +0.000 C 
ATOM     17  C   UNL     1      -6.890  14.507  21.864  0.00  0.00    +0.000 C 
ENDBRANCH  13  17
ENDBRANCH   1  13
BRANCH   2  18
ATOM     18  N   UNL     1      -3.713  13.038  22.476  0.00  0.00    +0.000 N 
ATOM     19  O   UNL     1      -3.642  14.242  22.713  0.00  0.00    +0.000 OA
ATOM     20  O   UNL     1      -3.477  12.120  23.273  0.00  0.00    +0.000 OA
ENDBRANCH   2  18
BRANCH   6  21
ATOM     21  N   UNL     1      -6.839  11.551  18.893  0.00  0.00    +0.000 N 
ATOM     22  O   UNL     1      -7.159  10.362  19.015  0.00  0.00    +0.000 OA
ATOM     23  O   UNL     1      -7.458  12.431  18.283  0.00  0.00    +0.000 OA
ENDBRANCH   6  21
TORSDOF 4
ENDMDL
MODEL 5
REMARK VINA RESULT:      -5.6      2.943      4.730
REMARK  Name = 
REMARK  7 active torsions:
REMARK  status: ('A' for Active; 'I' for Inactive)
REMARK    1  A    between atoms: C_1  and  C_2
REMARK    2  A    between atoms: C_2  and  S_3
REMARK    3  A    between atoms: S_3  and  C_6
REMARK    4  A    between atoms: C_7  and  N_8
REMARK    5  A    between atoms: C_14  and  N_15
REMARK    6  A    between atoms: C_21  and  C_22
REMARK    7  A    between atoms: C_21  and  C_23
REMARK                            x       y       z     vdW  Elec       q    Type
REMARK                         _______ _______ _______ _____ _____    ______ ____
ROOT
ATOM      1  C   UNL     1       3.189   4.654  19.655  0.00  0.00    +0.000 A 
ATOM      2  C   UNL     1       2.248   4.706  20.688  0.00  0.00    +0.000 A 
ATOM      3  C   UNL     1       1.495   5.865  20.957  0.00  0.00    +0.000 A 
ATOM      4  C   UNL     1       1.634   7.029  20.183  0.00  0.00    +0.000 A 
ATOM      5  C   UNL     1       2.571   7.012  19.126  0.00  0.00    +0.000 A 
ATOM      6  C   UNL     1       3.322   5.815  18.877  0.00  0.00    +0.000 A 
ATOM      7  C   UNL     1       2.734   8.223  18.223  0.00  0.00    +0.000 C 
ATOM      8  C   UNL     1       2.248   9.530  18.831  0.00  0.00    +0.000 C 
ATOM      9  C   UNL     1       0.866   9.345  19.426  0.00  0.00    +0.000 C 
ATOM     10  C   UNL     1       0.856   8.300  20.568  0.00  0.00    +0.000 C 
ATOM     11  C   UNL     1      -0.629   8.014  20.890  0.00  0.00    +0.000 C 
ATOM     12  C   UNL     1       1.518   8.896  21.830  0.00  0.00    +0.000 C 
ENDROOT
BRANCH   1  13
ATOM     13  S   UNL     1       4.077   3.153  19.293  0.00  0.00    +0.000 S 
ATOM     14  O   UNL     1       3.888   2.234  20.393  0.00  0.00    +0.000 OA
ATOM     15  O   UNL     1       5.415   3.555  18.932  0.00  0.00    +0.000 OA
BRANCH  13  17
ATOM     16  C   UNL     1       1.782   2.624  17.901  0.00  0.00    +0.000 C 
ATOM     17  C   UNL     1       3.288   2.415  17.872  0.00  0.00    +0.000 C 
ENDBRANCH  13  17
ENDBRANCH   1  13
BRANCH   2  18
ATOM     18  N   UNL     1       2.043   3.624  21.630  0.00  0.00    +0.000 N 
ATOM     19  O   UNL     1       1.169   2.796  21.378  0.00  0.00    +0.000 OA
ATOM     20  O   UNL     1       2.752   3.654  22.645  0.00  0.00    +0.000 OA
ENDBRANCH   2  18
BRANCH   6  21
ATOM     21  N   UNL     1       4.315   5.885  17.816  0.00  0.00    +0.000 N 
ATOM     22  O   UNL     1       3.967   5.417  16.725  0.00  0.00    +0.000 OA
ATOM     23  O   UNL     1       5.442   6.285  18.130  0.00  0.00    +0.000 OA
ENDBRANCH   6  21
TORSDOF 4
ENDMDL
MODEL 6
REMARK VINA RESULT:      -5.6      1.213      1.532
REMARK  Name = 
REMARK  7 active torsions:
REMARK  status: ('A' for Active; 'I' for Inactive)
REMARK    1  A    between atoms: C_1  and  C_2
REMARK    2  A    between atoms: C_2  and  S_3
REMARK    3  A    between atoms: S_3  and  C_6
REMARK    4  A    between atoms: C_7  and  N_8
REMARK    5  A    between atoms: C_14  and  N_15
REMARK    6  A    between atoms: C_21  and  C_22
REMARK    7  A    between atoms: C_21  and  C_23
REMARK                            x       y       z     vdW  Elec       q    Type
REMARK                         _______ _______ _______ _____ _____    ______ ____
ROOT
ATOM      1  C   UNL     1       2.986   4.262  18.773  0.00  0.00    +0.000 A 
ATOM      2  C   UNL     1       3.958   3.287  18.531  0.00  0.00    +0.000 A 
ATOM      3  C   UNL     1       5.246   3.615  18.064  0.00  0.00    +0.000 A 
ATOM      4  C   UNL     1       5.630   4.947  17.837  0.00  0.00    +0.000 A 
ATOM      5  C   UNL     1       4.675   5.959  18.077  0.00  0.00    +0.000 A 
ATOM      6  C   UNL     1       3.372   5.594  18.554  0.00  0.00    +0.000 A 
ATOM      7  C   UNL     1       5.043   7.423  17.897  0.00  0.00    +0.000 C 
ATOM      8  C   UNL     1       6.242   7.662  16.991  0.00  0.00    +0.000 C 
ATOM      9  C   UNL     1       7.385   6.748  17.389  0.00  0.00    +0.000 C 
ATOM     10  C   UNL     1       7.016   5.252  17.242  0.00  0.00    +0.000 C 
ATOM     11  C   UNL     1       8.148   4.452  17.927  0.00  0.00    +0.000 C 
ATOM     12  C   UNL     1       6.985   4.864  15.747  0.00  0.00    +0.000 C 
ENDROOT
BRANCH   1  13
ATOM     13  S   UNL     1       1.389   3.824  19.431  0.00  0.00    +0.000 S 
ATOM     14  O   UNL     1       0.577   3.309  18.352  0.00  0.00    +0.000 OA
ATOM     15  O   UNL     1       0.930   4.976  20.171  0.00  0.00    +0.000 OA
BRANCH  13  17
ATOM     16  C   UNL     1       2.157   2.961  21.910  0.00  0.00    +0.000 C 
ATOM     17  C   UNL     1       1.649   2.470  20.563  0.00  0.00    +0.000 C 
ENDBRANCH  13  17
ENDBRANCH   1  13
BRANCH   2  18
ATOM     18  N   UNL     1       3.701   1.865  18.632  0.00  0.00    +0.000 N 
ATOM     19  O   UNL     1       4.236   1.245  19.550  0.00  0.00    +0.000 OA
ATOM     20  O   UNL     1       2.984   1.384  17.745  0.00  0.00    +0.000 OA
ENDBRANCH   2  18
BRANCH   6  21
ATOM     21  N   UNL     1       2.416   6.678  18.719  0.00  0.00    +0.000 N 
ATOM     22  O   UNL     1       1.766   6.977  17.711  0.00  0.00    +0.000 OA
ATOM     23  O   UNL     1       2.430   7.275  19.802  0.00  0.00    +0.000 OA
ENDBRANCH   6  21
TORSDOF 4
ENDMDL
MODEL 7
REMARK VINA RESULT:      -5.6      9.648     11.894
REMARK  Name = 
REMARK  7 active torsions:
REMARK  status: ('A' for Active; 'I' for Inactive)
REMARK    1  A    between atoms: C_1  and  C_2
REMARK    2  A    between atoms: C_2  and  S_3
REMARK    3  A    between atoms: S_3  and  C_6
REMARK    4  A    between atoms: C_7  and  N_8
REMARK    5  A    between atoms: C_14  and  N_15
REMARK    6  A    between atoms: C_21  and  C_22
REMARK    7  A    between atoms: C_21  and  C_23
REMARK                            x       y       z     vdW  Elec       q    Type
REMARK                         _______ _______ _______ _____ _____    ______ ____
ROOT
ATOM      1  C   UNL     1      -2.447  12.424  21.184  0.00  0.00    +0.000 A 
ATOM      2  C   UNL     1      -3.626  12.624  21.908  0.00  0.00    +0.000 A 
ATOM      3  C   UNL     1      -4.897  12.549  21.305  0.00  0.00    +0.000 A 
ATOM      4  C   UNL     1      -5.049  12.247  19.942  0.00  0.00    +0.000 A 
ATOM      5  C   UNL     1      -3.879  12.033  19.179  0.00  0.00    +0.000 A 
ATOM      6  C   UNL     1      -2.599  12.115  19.822  0.00  0.00    +0.000 A 
ATOM      7  C   UNL     1      -3.977  11.656  17.710  0.00  0.00    +0.000 C 
ATOM      8  C   UNL     1      -5.296  12.032  17.052  0.00  0.00    +0.000 C 
ATOM      9  C   UNL     1      -6.457  11.581  17.918  0.00  0.00    +0.000 C 
ATOM     10  C   UNL     1      -6.450  12.263  19.307  0.00  0.00    +0.000 C 
ATOM     11  C   UNL     1      -7.502  11.523  20.165  0.00  0.00    +0.000 C 
ATOM     12  C   UNL     1      -6.889  13.738  19.169  0.00  0.00    +0.000 C 
ENDROOT
BRANCH   1  13
ATOM     13  S   UNL     1      -0.857  12.456  21.986  0.00  0.00    +0.000 S 
ATOM     14  O   UNL     1      -1.058  12.765  23.384  0.00  0.00    +0.000 OA
ATOM     15  O   UNL     1      -0.021  13.318  21.186  0.00  0.00    +0.000 OA
BRANCH  13  17
ATOM     16  C   UNL     1      -0.625   9.987  23.141  0.00  0.00    +0.000 C 
ATOM     17  C   UNL     1      -0.212  10.793  21.920  0.00  0.00    +0.000 C 
ENDBRANCH  13  17
ENDBRANCH   1  13
BRANCH   2  18
ATOM     18  N   UNL     1      -3.645  13.026  23.300  0.00  0.00    +0.000 N 
ATOM     19  O   UNL     1      -3.793  12.152  24.152  0.00  0.00    +0.000 OA
ATOM     20  O   UNL     1      -3.549  14.242  23.509  0.00  0.00    +0.000 OA
ENDBRANCH   2  18
BRANCH   6  21
ATOM     21  N   UNL     1      -1.434  11.949  18.967  0.00  0.00    +0.000 N 
ATOM     22  O   UNL     1      -1.035  12.973  18.400  0.00  0.00    +0.000 OA
ATOM     23  O   UNL     1      -1.032  10.793  18.790  0.00  0.00    +0.000 OA
ENDBRANCH   6  21
TORSDOF 4
ENDMDL
MODEL 8
REMARK VINA RESULT:      -5.5      1.337      1.771
REMARK  Name = 
REMARK  7 active torsions:
REMARK  status: ('A' for Active; 'I' for Inactive)
REMARK    1  A    between atoms: C_1  and  C_2
REMARK    2  A    between atoms: C_2  and  S_3
REMARK    3  A    between atoms: S_3  and  C_6
REMARK    4  A    between atoms: C_7  and  N_8
REMARK    5  A    between atoms: C_14  and  N_15
REMARK    6  A    between atoms: C_21  and  C_22
REMARK    7  A    between atoms: C_21  and  C_23
REMARK                            x       y       z     vdW  Elec       q    Type
REMARK                         _______ _______ _______ _____ _____    ______ ____
ROOT
ATOM      1  C   UNL     1       3.184   3.409  19.095  0.00  0.00    +0.000 A 
ATOM      2  C   UNL     1       4.467   2.986  19.451  0.00  0.00    +0.000 A 
ATOM      3  C   UNL     1       5.623   3.690  19.060  0.00  0.00    +0.000 A 
ATOM      4  C   UNL     1       5.545   4.872  18.306  0.00  0.00    +0.000 A 
ATOM      5  C   UNL     1       4.263   5.333  17.933  0.00  0.00    +0.000 A 
ATOM      6  C   UNL     1       3.105   4.595  18.347  0.00  0.00    +0.000 A 
ATOM      7  C   UNL     1       4.108   6.632  17.158  0.00  0.00    +0.000 C 
ATOM      8  C   UNL     1       5.358   7.068  16.409  0.00  0.00    +0.000 C 
ATOM      9  C   UNL     1       6.565   6.998  17.325  0.00  0.00    +0.000 C 
ATOM     10  C   UNL     1       6.835   5.559  17.826  0.00  0.00    +0.000 C 
ATOM     11  C   UNL     1       7.899   5.675  18.942  0.00  0.00    +0.000 C 
ATOM     12  C   UNL     1       7.427   4.707  16.681  0.00  0.00    +0.000 C 
ENDROOT
BRANCH   1  13
ATOM     13  S   UNL     1       1.737   2.538  19.662  0.00  0.00    +0.000 S 
ATOM     14  O   UNL     1       1.838   1.160  19.238  0.00  0.00    +0.000 OA
ATOM     15  O   UNL     1       0.603   3.325  19.239  0.00  0.00    +0.000 OA
BRANCH  13  17
ATOM     16  C   UNL     1       2.253   3.874  21.992  0.00  0.00    +0.000 C 
ATOM     17  C   UNL     1       1.805   2.528  21.446  0.00  0.00    +0.000 C 
ENDBRANCH  13  17
ENDBRANCH   1  13
BRANCH   2  18
ATOM     18  N   UNL     1       4.729   1.745  20.152  0.00  0.00    +0.000 N 
ATOM     19  O   UNL     1       4.978   1.802  21.355  0.00  0.00    +0.000 OA
ATOM     20  O   UNL     1       4.719   0.721  19.456  0.00  0.00    +0.000 OA
ENDBRANCH   2  18
BRANCH   6  21
ATOM     21  N   UNL     1       1.821   5.088  17.875  0.00  0.00    +0.000 N 
ATOM     22  O   UNL     1       1.296   4.432  16.967  0.00  0.00    +0.000 OA
ATOM     23  O   UNL     1       1.436   6.171  18.331  0.00  0.00    +0.000 OA
ENDBRANCH   6  21
TORSDOF 4
ENDMDL
MODEL 9
REMARK VINA RESULT:      -5.5      8.895     10.868
REMARK  Name = 
REMARK  7 active torsions:
REMARK  status: ('A' for Active; 'I' for Inactive)
REMARK    1  A    between atoms: C_1  and  C_2
REMARK    2  A    between atoms: C_2  and  S_3
REMARK    3  A    between atoms: S_3  and  C_6
REMARK    4  A    between atoms: C_7  and  N_8
REMARK    5  A    between atoms: C_14  and  N_15
REMARK    6  A    between atoms: C_21  and  C_22
REMARK    7  A    between atoms: C_21  and  C_23
REMARK                            x       y       z     vdW  Elec       q    Type
REMARK                         _______ _______ _______ _____ _____    ______ ____
ROOT
ATOM      1  C   UNL     1      -1.526  12.459  20.836  0.00  0.00    +0.000 A 
ATOM      2  C   UNL     1      -0.812  11.856  19.796  0.00  0.00    +0.000 A 
ATOM      3  C   UNL     1      -1.444  11.389  18.627  0.00  0.00    +0.000 A 
ATOM      4  C   UNL     1      -2.828  11.526  18.433  0.00  0.00    +0.000 A 
ATOM      5  C   UNL     1      -3.581  12.136  19.461  0.00  0.00    +0.000 A 
ATOM      6  C   UNL     1      -2.909  12.602  20.639  0.00  0.00    +0.000 A 
ATOM      7  C   UNL     1      -5.076  12.356  19.292  0.00  0.00    +0.000 C 
ATOM      8  C   UNL     1      -5.730  11.453  18.257  0.00  0.00    +0.000 C 
ATOM      9  C   UNL     1      -4.923  11.463  16.973  0.00  0.00    +0.000 C 
ATOM     10  C   UNL     1      -3.488  10.922  17.181  0.00  0.00    +0.000 C 
ATOM     11  C   UNL     1      -2.706  11.238  15.885  0.00  0.00    +0.000 C 
ATOM     12  C   UNL     1      -3.526   9.388  17.360  0.00  0.00    +0.000 C 
ENDROOT
BRANCH   1  13
ATOM     13  S   UNL     1      -0.692  13.103  22.272  0.00  0.00    +0.000 S 
ATOM     14  O   UNL     1       0.673  13.409  21.908  0.00  0.00    +0.000 OA
ATOM     15  O   UNL     1      -0.944  12.162  23.338  0.00  0.00    +0.000 OA
BRANCH  13  17
ATOM     16  C   UNL     1      -1.624  14.835  24.173  0.00  0.00    +0.000 C 
ATOM     17  C   UNL     1      -1.474  14.657  22.670  0.00  0.00    +0.000 C 
ENDBRANCH  13  17
ENDBRANCH   1  13
BRANCH   2  18
ATOM     18  N   UNL     1       0.605  11.562  19.871  0.00  0.00    +0.000 N 
ATOM     19  O   UNL     1       1.379  12.285  19.246  0.00  0.00    +0.000 OA
ATOM     20  O   UNL     1       0.913  10.566  20.538  0.00  0.00    +0.000 OA
ENDBRANCH   2  18
BRANCH   6  21
ATOM     21  N   UNL     1      -3.751  13.162  21.685  0.00  0.00    +0.000 N 
ATOM     22  O   UNL     1      -4.114  12.369  22.563  0.00  0.00    +0.000 OA
ATOM     23  O   UNL     1      -4.124  14.331  21.536  0.00  0.00    +0.000 OA
ENDBRANCH   6  21
TORSDOF 4
ENDMDL
