MODEL 1
REMARK VINA RESULT:      -5.5      0.000      0.000
REMARK  Name = 
REMARK  0 active torsions:
REMARK  status: ('A' for Active; 'I' for Inactive)
REMARK                            x       y       z     vdW  Elec       q    Type
REMARK                         _______ _______ _______ _____ _____    ______ ____
ROOT
ATOM      1 BR   UNL     1       2.773   7.493  18.046  0.00  0.00    +0.000 Br
ATOM      2  C   UNL     1       2.929   5.611  18.155  0.00  0.00    +0.000 A 
ATOM      3  C   UNL     1       1.829   4.808  17.830  0.00  0.00    +0.000 A 
ATOM      4  C   UNL     1       1.920   3.416  17.905  0.00  0.00    +0.000 A 
ATOM      5  C   UNL     1       3.105   2.787  18.303  0.00  0.00    +0.000 A 
ATOM      6  C   UNL     1       4.189   3.613  18.620  0.00  0.00    +0.000 A 
ATOM      7  N   UNL     1       5.463   3.322  19.038  0.00  0.00    +0.000 N 
ATOM      8  N   UNL     1       6.233   4.404  19.242  0.00  0.00    +0.000 NA
ATOM      9  C   UNL     1       5.418   5.424  18.953  0.00  0.00    +0.000 A 
ATOM     10  C   UNL     1       4.130   5.002  18.555  0.00  0.00    +0.000 A 
ATOM     11  H   UNL     1       5.866   2.407  19.204  0.00  0.00    +0.000 HD
ENDROOT
TORSDOF 0
ENDMDL
MODEL 2
REMARK VINA RESULT:      -5.4      1.807      1.807
REMARK  Name = 
REMARK  0 active torsions:
REMARK  status: ('A' for Active; 'I' for Inactive)
REMARK                            x       y       z     vdW  Elec       q    Type
REMARK                         _______ _______ _______ _____ _____    ______ ____
ROOT
ATOM      1 BR   UNL     1       2.118   7.224  19.919  0.00  0.00    +0.000 Br
ATOM      2  C   UNL     1       2.340   5.351  20.061  0.00  0.00    +0.000 A 
ATOM      3  C   UNL     1       1.274   4.563  20.511  0.00  0.00    +0.000 A 
ATOM      4  C   UNL     1       1.416   3.178  20.625  0.00  0.00    +0.000 A 
ATOM      5  C   UNL     1       2.618   2.541  20.296  0.00  0.00    +0.000 A 
ATOM      6  C   UNL     1       3.665   3.352  19.846  0.00  0.00    +0.000 A 
ATOM      7  N   UNL     1       4.945   3.052  19.453  0.00  0.00    +0.000 N 
ATOM      8  N   UNL     1       5.668   4.121  19.079  0.00  0.00    +0.000 NA
ATOM      9  C   UNL     1       4.823   5.142  19.248  0.00  0.00    +0.000 A 
ATOM     10  C   UNL     1       3.556   4.735  19.722  0.00  0.00    +0.000 A 
ATOM     11  H   UNL     1       5.384   2.139  19.420  0.00  0.00    +0.000 HD
ENDROOT
TORSDOF 0
ENDMDL
MODEL 3
REMARK VINA RESULT:      -5.3      2.373      3.143
REMARK  Name = 
REMARK  0 active torsions:
REMARK  status: ('A' for Active; 'I' for Inactive)
REMARK                            x       y       z     vdW  Elec       q    Type
REMARK                         _______ _______ _______ _____ _____    ______ ____
ROOT
ATOM      1 BR   UNL     1       2.805   4.619  17.840  0.00  0.00    +0.000 Br
ATOM      2  C   UNL     1       4.592   4.544  17.227  0.00  0.00    +0.000 A 
ATOM      3  C   UNL     1       4.851   4.203  15.895  0.00  0.00    +0.000 A 
ATOM      4  C   UNL     1       6.164   4.140  15.421  0.00  0.00    +0.000 A 
ATOM      5  C   UNL     1       7.251   4.413  16.258  0.00  0.00    +0.000 A 
ATOM      6  C   UNL     1       6.965   4.753  17.584  0.00  0.00    +0.000 A 
ATOM      7  N   UNL     1       7.781   5.069  18.640  0.00  0.00    +0.000 N 
ATOM      8  N   UNL     1       7.124   5.345  19.779  0.00  0.00    +0.000 NA
ATOM      9  C   UNL     1       5.840   5.190  19.441  0.00  0.00    +0.000 A 
ATOM     10  C   UNL     1       5.668   4.824  18.087  0.00  0.00    +0.000 A 
ATOM     11  H   UNL     1       8.794   5.111  18.648  0.00  0.00    +0.000 HD
ENDROOT
TORSDOF 0
ENDMDL
MODEL 4
REMARK VINA RESULT:      -5.3      3.024      4.149
REMARK  Name = 
REMARK  0 active torsions:
REMARK  status: ('A' for Active; 'I' for Inactive)
REMARK                            x       y       z     vdW  Elec       q    Type
REMARK                         _______ _______ _______ _____ _____    ______ ____
ROOT
ATOM      1 BR   UNL     1       3.326   3.608  17.514  0.00  0.00    +0.000 Br
ATOM      2  C   UNL     1       4.981   4.498  17.731  0.00  0.00    +0.000 A 
ATOM      3  C   UNL     1       5.434   4.807  19.019  0.00  0.00    +0.000 A 
ATOM      4  C   UNL     1       6.653   5.465  19.204  0.00  0.00    +0.000 A 
ATOM      5  C   UNL     1       7.451   5.833  18.115  0.00  0.00    +0.000 A 
ATOM      6  C   UNL     1       6.976   5.511  16.839  0.00  0.00    +0.000 A 
ATOM      7  N   UNL     1       7.501   5.727  15.591  0.00  0.00    +0.000 N 
ATOM      8  N   UNL     1       6.738   5.261  14.587  0.00  0.00    +0.000 NA
ATOM      9  C   UNL     1       5.682   4.737  15.217  0.00  0.00    +0.000 A 
ATOM     10  C   UNL     1       5.766   4.855  16.622  0.00  0.00    +0.000 A 
ATOM     11  H   UNL     1       8.373   6.187  15.357  0.00  0.00    +0.000 HD
ENDROOT
TORSDOF 0
ENDMDL
MODEL 5
REMARK VINA RESULT:      -5.2      2.542      3.118
REMARK  Name = 
REMARK  0 active torsions:
REMARK  status: ('A' for Active; 'I' for Inactive)
REMARK                            x       y       z     vdW  Elec       q    Type
REMARK                         _______ _______ _______ _____ _____    ______ ____
ROOT
ATOM      1 BR   UNL     1       2.679   6.729  18.686  0.00  0.00    +0.000 Br
ATOM      2  C   UNL     1       2.358   5.052  19.500  0.00  0.00    +0.000 A 
ATOM      3  C   UNL     1       2.147   4.986  20.882  0.00  0.00    +0.000 A 
ATOM      4  C   UNL     1       1.909   3.759  21.506  0.00  0.00    +0.000 A 
ATOM      5  C   UNL     1       1.875   2.567  20.773  0.00  0.00    +0.000 A 
ATOM      6  C   UNL     1       2.088   2.662  19.393  0.00  0.00    +0.000 A 
ATOM      7  N   UNL     1       2.122   1.707  18.410  0.00  0.00    +0.000 N 
ATOM      8  N   UNL     1       2.355   2.194  17.179  0.00  0.00    +0.000 NA
ATOM      9  C   UNL     1       2.485   3.508  17.386  0.00  0.00    +0.000 A 
ATOM     10  C   UNL     1       2.327   3.870  18.743  0.00  0.00    +0.000 A 
ATOM     11  H   UNL     1       1.995   0.706  18.514  0.00  0.00    +0.000 HD
ENDROOT
TORSDOF 0
ENDMDL
MODEL 6
REMARK VINA RESULT:      -5.2      2.474      2.916
REMARK  Name = 
REMARK  0 active torsions:
REMARK  status: ('A' for Active; 'I' for Inactive)
REMARK                            x       y       z     vdW  Elec       q    Type
REMARK                         _______ _______ _______ _____ _____    ______ ____
ROOT
ATOM      1 BR   UNL     1       6.077   3.977  14.734  0.00  0.00    +0.000 Br
ATOM      2  C   UNL     1       5.396   4.251  16.477  0.00  0.00    +0.000 A 
ATOM      3  C   UNL     1       4.022   4.117  16.710  0.00  0.00    +0.000 A 
ATOM      4  C   UNL     1       3.496   4.315  17.989  0.00  0.00    +0.000 A 
ATOM      5  C   UNL     1       4.321   4.653  19.068  0.00  0.00    +0.000 A 
ATOM      6  C   UNL     1       5.690   4.779  18.808  0.00  0.00    +0.000 A 
ATOM      7  N   UNL     1       6.746   5.093  19.625  0.00  0.00    +0.000 N 
ATOM      8  N   UNL     1       7.936   5.114  18.999  0.00  0.00    +0.000 NA
ATOM      9  C   UNL     1       7.626   4.812  17.735  0.00  0.00    +0.000 A 
ATOM     10  C   UNL     1       6.244   4.587  17.545  0.00  0.00    +0.000 A 
ATOM     11  H   UNL     1       6.721   5.306  20.615  0.00  0.00    +0.000 HD
ENDROOT
TORSDOF 0
ENDMDL
MODEL 7
REMARK VINA RESULT:      -5.1      2.412      3.069
REMARK  Name = 
REMARK  0 active torsions:
REMARK  status: ('A' for Active; 'I' for Inactive)
REMARK                            x       y       z     vdW  Elec       q    Type
REMARK                         _______ _______ _______ _____ _____    ______ ____
ROOT
ATOM      1 BR   UNL     1       3.763   6.625  17.743  0.00  0.00    +0.000 Br
ATOM      2  C   UNL     1       2.716   5.441  18.782  0.00  0.00    +0.000 A 
ATOM      3  C   UNL     1       2.183   5.879  20.000  0.00  0.00    +0.000 A 
ATOM      4  C   UNL     1       1.408   5.022  20.784  0.00  0.00    +0.000 A 
ATOM      5  C   UNL     1       1.143   3.709  20.379  0.00  0.00    +0.000 A 
ATOM      6  C   UNL     1       1.685   3.297  19.157  0.00  0.00    +0.000 A 
ATOM      7  N   UNL     1       1.618   2.102  18.487  0.00  0.00    +0.000 N 
ATOM      8  N   UNL     1       2.278   2.091  17.317  0.00  0.00    +0.000 NA
ATOM      9  C   UNL     1       2.794   3.322  17.240  0.00  0.00    +0.000 A 
ATOM     10  C   UNL     1       2.461   4.128  18.352  0.00  0.00    +0.000 A 
ATOM     11  H   UNL     1       1.140   1.257  18.777  0.00  0.00    +0.000 HD
ENDROOT
TORSDOF 0
ENDMDL
MODEL 8
REMARK VINA RESULT:      -5.1      2.901      3.362
REMARK  Name = 
REMARK  0 active torsions:
REMARK  status: ('A' for Active; 'I' for Inactive)
REMARK                            x       y       z     vdW  Elec       q    Type
REMARK                         _______ _______ _______ _____ _____    ______ ____
ROOT
ATOM      1 BR   UNL     1       3.813   7.141  17.536  0.00  0.00    +0.000 Br
ATOM      2  C   UNL     1       5.136   6.045  16.745  0.00  0.00    +0.000 A 
ATOM      3  C   UNL     1       5.056   5.742  15.381  0.00  0.00    +0.000 A 
ATOM      4  C   UNL     1       6.021   4.934  14.775  0.00  0.00    +0.000 A 
ATOM      5  C   UNL     1       7.089   4.406  15.509  0.00  0.00    +0.000 A 
ATOM      6  C   UNL     1       7.147   4.726  16.870  0.00  0.00    +0.000 A 
ATOM      7  N   UNL     1       8.042   4.378  17.850  0.00  0.00    +0.000 N 
ATOM      8  N   UNL     1       7.759   4.893  19.059  0.00  0.00    +0.000 NA
ATOM      9  C   UNL     1       6.637   5.587  18.845  0.00  0.00    +0.000 A 
ATOM     10  C   UNL     1       6.202   5.529  17.502  0.00  0.00    +0.000 A 
ATOM     11  H   UNL     1       8.863   3.791  17.758  0.00  0.00    +0.000 HD
ENDROOT
TORSDOF 0
ENDMDL
MODEL 9
REMARK VINA RESULT:      -5.0      1.445      1.445
REMARK  Name = 
REMARK  0 active torsions:
REMARK  status: ('A' for Active; 'I' for Inactive)
REMARK                            x       y       z     vdW  Elec       q    Type
REMARK                         _______ _______ _______ _____ _____    ______ ____
ROOT
ATOM      1 BR   UNL     1       2.666   7.417  18.196  0.00  0.00    +0.000 Br
ATOM      2  C   UNL     1       2.840   5.556  17.903  0.00  0.00    +0.000 A 
ATOM      3  C   UNL     1       1.766   4.709  18.198  0.00  0.00    +0.000 A 
ATOM      4  C   UNL     1       1.872   3.331  17.991  0.00  0.00    +0.000 A 
ATOM      5  C   UNL     1       3.046   2.762  17.487  0.00  0.00    +0.000 A 
ATOM      6  C   UNL     1       4.104   3.631  17.199  0.00  0.00    +0.000 A 
ATOM      7  N   UNL     1       5.363   3.402  16.707  0.00  0.00    +0.000 N 
ATOM      8  N   UNL     1       6.106   4.512  16.561  0.00  0.00    +0.000 NA
ATOM      9  C   UNL     1       5.294   5.486  16.985  0.00  0.00    +0.000 A 
ATOM     10  C   UNL     1       4.029   5.008  17.394  0.00  0.00    +0.000 A 
ATOM     11  H   UNL     1       5.776   2.512  16.454  0.00  0.00    +0.000 HD
ENDROOT
TORSDOF 0
ENDMDL
