MODEL 1
REMARK VINA RESULT:      -7.9      0.000      0.000
REMARK  Name = 
REMARK  7 active torsions:
REMARK  status: ('A' for Active; 'I' for Inactive)
REMARK    1  A    between atoms: C_1  and  C_2
REMARK    2  A    between atoms: C_2  and  C_3
REMARK    3  A    between atoms: C_3  and  C_4
REMARK    4  A    between atoms: C_4  and  C_5
REMARK    5  A    between atoms: C_5  and  C_6
REMARK    6  A    between atoms: C_9  and  C_10
REMARK    7  A    between atoms: N_12  and  C_13
REMARK                            x       y       z     vdW  Elec       q    Type
REMARK                         _______ _______ _______ _____ _____    ______ ____
ROOT
ATOM      1  C   UNL     1       2.847   6.677  18.483  0.00  0.00    +0.000 C 
ATOM      2  O   UNL     1       2.500   6.144  19.535  0.00  0.00    +0.000 OA
ATOM      3  N   UNL     1       2.417   7.911  18.015  0.00  0.00    +0.000 N 
ATOM      4  H   UNL     1       2.581   8.131  17.041  0.00  0.00    +0.000 HD
ENDROOT
BRANCH   3   5
ATOM      5  C   UNL     1       1.572   8.795  18.743  0.00  0.00    +0.000 A 
ATOM      6  C   UNL     1       1.530   8.786  20.145  0.00  0.00    +0.000 A 
ATOM      7  C   UNL     1       0.673   9.610  20.879  0.00  0.00    +0.000 A 
ATOM      8  C   UNL     1      -0.137  10.462  20.143  0.00  0.00    +0.000 A 
ATOM      9  N   UNL     1      -1.089  11.365  20.524  0.00  0.00    +0.000 N 
ATOM     10  C   UNL     1      -1.601  11.946  19.400  0.00  0.00    +0.000 A 
ATOM     11  N   UNL     1      -2.571  12.862  19.500  0.00  0.00    +0.000 N 
ATOM     12  N   UNL     1      -1.030  11.476  18.316  0.00  0.00    +0.000 NA
ATOM     13  C   UNL     1      -0.116  10.539  18.756  0.00  0.00    +0.000 A 
ATOM     14  C   UNL     1       0.764   9.702  18.036  0.00  0.00    +0.000 A 
ATOM     15  H   UNL     1      -1.387  11.554  21.468  0.00  0.00    +0.000 HD
ATOM     16  H   UNL     1      -2.735  13.381  20.355  0.00  0.00    +0.000 HD
ATOM     17  H   UNL     1      -2.796  13.380  18.657  0.00  0.00    +0.000 HD
ENDBRANCH   3   5
BRANCH   1  21
ATOM     18  C   UNL     1       5.409   4.559  15.769  0.00  0.00    +0.000 A 
ATOM     19  C   UNL     1       5.418   5.955  15.843  0.00  0.00    +0.000 A 
ATOM     20  C   UNL     1       4.604   6.613  16.761  0.00  0.00    +0.000 A 
ATOM     21  C   UNL     1       3.762   5.891  17.619  0.00  0.00    +0.000 A 
ATOM     22  C   UNL     1       3.735   4.497  17.546  0.00  0.00    +0.000 A 
ATOM     23  C   UNL     1       4.557   3.837  16.621  0.00  0.00    +0.000 A 
BRANCH  18  24
ATOM     24  C   UNL     1       6.284   3.849  14.761  0.00  0.00    +0.000 C 
BRANCH  24  25
ATOM     25  C   UNL     1       6.603   4.682  13.513  0.00  0.00    +0.000 C 
BRANCH  25  26
ATOM     26  C   UNL     1       6.758   3.832  12.247  0.00  0.00    +0.000 C 
BRANCH  26  28
ATOM     27  C   UNL     1       4.386   3.409  11.508  0.00  0.00    +0.000 C 
ATOM     28  C   UNL     1       5.630   2.806  12.138  0.00  0.00    +0.000 C 
ENDBRANCH  26  28
ENDBRANCH  25  26
ENDBRANCH  24  25
ENDBRANCH  18  24
ENDBRANCH   1  21
TORSDOF 6
ENDMDL
MODEL 2
REMARK VINA RESULT:      -7.8      3.038     10.116
REMARK  Name = 
REMARK  7 active torsions:
REMARK  status: ('A' for Active; 'I' for Inactive)
REMARK    1  A    between atoms: C_1  and  C_2
REMARK    2  A    between atoms: C_2  and  C_3
REMARK    3  A    between atoms: C_3  and  C_4
REMARK    4  A    between atoms: C_4  and  C_5
REMARK    5  A    between atoms: C_5  and  C_6
REMARK    6  A    between atoms: C_9  and  C_10
REMARK    7  A    between atoms: N_12  and  C_13
REMARK                            x       y       z     vdW  Elec       q    Type
REMARK                         _______ _______ _______ _____ _____    ______ ____
ROOT
ATOM      1  C   UNL     1       1.815   8.444  18.781  0.00  0.00    +0.000 C 
ATOM      2  O   UNL     1       1.787   8.921  17.649  0.00  0.00    +0.000 OA
ATOM      3  N   UNL     1       2.401   7.238  19.143  0.00  0.00    +0.000 N 
ATOM      4  H   UNL     1       2.153   6.842  20.041  0.00  0.00    +0.000 HD
ENDROOT
BRANCH   3   5
ATOM      5  C   UNL     1       3.151   6.414  18.258  0.00  0.00    +0.000 A 
ATOM      6  C   UNL     1       2.828   5.064  18.057  0.00  0.00    +0.000 A 
ATOM      7  C   UNL     1       3.579   4.224  17.231  0.00  0.00    +0.000 A 
ATOM      8  C   UNL     1       4.668   4.803  16.595  0.00  0.00    +0.000 A 
ATOM      9  N   UNL     1       5.612   4.282  15.755  0.00  0.00    +0.000 N 
ATOM     10  C   UNL     1       6.476   5.281  15.413  0.00  0.00    +0.000 A 
ATOM     11  N   UNL     1       7.511   5.027  14.605  0.00  0.00    +0.000 N 
ATOM     12  N   UNL     1       6.141   6.419  15.977  0.00  0.00    +0.000 NA
ATOM     13  C   UNL     1       5.017   6.141  16.729  0.00  0.00    +0.000 A 
ATOM     14  C   UNL     1       4.238   6.973  17.563  0.00  0.00    +0.000 A 
ATOM     15  H   UNL     1       5.680   3.322  15.459  0.00  0.00    +0.000 HD
ATOM     16  H   UNL     1       7.524   4.227  13.983  0.00  0.00    +0.000 HD
ATOM     17  H   UNL     1       8.020   5.830  14.250  0.00  0.00    +0.000 HD
ENDBRANCH   3   5
BRANCH   1  21
ATOM     18  C   UNL     1      -0.368  10.414  21.907  0.00  0.00    +0.000 A 
ATOM     19  C   UNL     1       0.415   9.284  22.163  0.00  0.00    +0.000 A 
ATOM     20  C   UNL     1       1.143   8.689  21.136  0.00  0.00    +0.000 A 
ATOM     21  C   UNL     1       1.101   9.207  19.834  0.00  0.00    +0.000 A 
ATOM     22  C   UNL     1       0.313  10.329  19.563  0.00  0.00    +0.000 A 
ATOM     23  C   UNL     1      -0.418  10.926  20.599  0.00  0.00    +0.000 A 
BRANCH  18  24
ATOM     24  C   UNL     1      -1.168  11.049  23.021  0.00  0.00    +0.000 C 
BRANCH  24  25
ATOM     25  C   UNL     1      -1.181  12.583  22.986  0.00  0.00    +0.000 C 
BRANCH  25  26
ATOM     26  C   UNL     1      -2.564  13.178  23.273  0.00  0.00    +0.000 C 
BRANCH  26  28
ATOM     27  C   UNL     1      -4.694  12.715  24.537  0.00  0.00    +0.000 C 
ATOM     28  C   UNL     1      -3.524  12.104  23.785  0.00  0.00    +0.000 C 
ENDBRANCH  26  28
ENDBRANCH  25  26
ENDBRANCH  24  25
ENDBRANCH  18  24
ENDBRANCH   1  21
TORSDOF 6
ENDMDL
MODEL 3
REMARK VINA RESULT:      -7.8      1.320      1.672
REMARK  Name = 
REMARK  7 active torsions:
REMARK  status: ('A' for Active; 'I' for Inactive)
REMARK    1  A    between atoms: C_1  and  C_2
REMARK    2  A    between atoms: C_2  and  C_3
REMARK    3  A    between atoms: C_3  and  C_4
REMARK    4  A    between atoms: C_4  and  C_5
REMARK    5  A    between atoms: C_5  and  C_6
REMARK    6  A    between atoms: C_9  and  C_10
REMARK    7  A    between atoms: N_12  and  C_13
REMARK                            x       y       z     vdW  Elec       q    Type
REMARK                         _______ _______ _______ _____ _____    ______ ____
ROOT
ATOM      1  C   UNL     1       2.279   7.802  18.579  0.00  0.00    +0.000 C 
ATOM      2  O   UNL     1       2.112   7.784  19.796  0.00  0.00    +0.000 OA
ATOM      3  N   UNL     1       1.694   8.694  17.690  0.00  0.00    +0.000 N 
ATOM      4  H   UNL     1       1.715   8.463  16.704  0.00  0.00    +0.000 HD
ENDROOT
BRANCH   3   5
ATOM      5  C   UNL     1       0.879   9.794  18.077  0.00  0.00    +0.000 A 
ATOM      6  C   UNL     1       1.432  10.971  18.604  0.00  0.00    +0.000 A 
ATOM      7  C   UNL     1       0.648  12.044  19.036  0.00  0.00    +0.000 A 
ATOM      8  C   UNL     1      -0.724  11.894  18.903  0.00  0.00    +0.000 A 
ATOM      9  N   UNL     1      -1.765  12.714  19.238  0.00  0.00    +0.000 N 
ATOM     10  C   UNL     1      -2.929  12.087  18.900  0.00  0.00    +0.000 A 
ATOM     11  N   UNL     1      -4.105  12.677  19.142  0.00  0.00    +0.000 N 
ATOM     12  N   UNL     1      -2.700  10.912  18.359  0.00  0.00    +0.000 NA
ATOM     13  C   UNL     1      -1.327  10.767  18.359  0.00  0.00    +0.000 A 
ATOM     14  C   UNL     1      -0.514   9.698  17.921  0.00  0.00    +0.000 A 
ATOM     15  H   UNL     1      -1.693  13.614  19.684  0.00  0.00    +0.000 HD
ATOM     16  H   UNL     1      -4.188  13.678  19.271  0.00  0.00    +0.000 HD
ATOM     17  H   UNL     1      -4.924  12.248  18.724  0.00  0.00    +0.000 HD
ENDBRANCH   3   5
BRANCH   1  21
ATOM     18  C   UNL     1       4.755   4.836  16.710  0.00  0.00    +0.000 A 
ATOM     19  C   UNL     1       5.060   6.199  16.631  0.00  0.00    +0.000 A 
ATOM     20  C   UNL     1       4.260   7.135  17.280  0.00  0.00    +0.000 A 
ATOM     21  C   UNL     1       3.138   6.731  18.017  0.00  0.00    +0.000 A 
ATOM     22  C   UNL     1       2.816   5.374  18.094  0.00  0.00    +0.000 A 
ATOM     23  C   UNL     1       3.624   4.434  17.440  0.00  0.00    +0.000 A 
BRANCH  18  24
ATOM     24  C   UNL     1       5.618   3.824  15.993  0.00  0.00    +0.000 C 
BRANCH  24  25
ATOM     25  C   UNL     1       6.163   4.312  14.644  0.00  0.00    +0.000 C 
BRANCH  25  26
ATOM     26  C   UNL     1       5.234   3.987  13.469  0.00  0.00    +0.000 C 
BRANCH  26  28
ATOM     27  C   UNL     1       7.172   4.104  11.861  0.00  0.00    +0.000 C 
ATOM     28  C   UNL     1       5.996   3.276  12.351  0.00  0.00    +0.000 C 
ENDBRANCH  26  28
ENDBRANCH  25  26
ENDBRANCH  24  25
ENDBRANCH  18  24
ENDBRANCH   1  21
TORSDOF 6
ENDMDL
MODEL 4
REMARK VINA RESULT:      -7.8      1.085      1.874
REMARK  Name = 
REMARK  7 active torsions:
REMARK  status: ('A' for Active; 'I' for Inactive)
REMARK    1  A    between atoms: C_1  and  C_2
REMARK    2  A    between atoms: C_2  and  C_3
REMARK    3  A    between atoms: C_3  and  C_4
REMARK    4  A    between atoms: C_4  and  C_5
REMARK    5  A    between atoms: C_5  and  C_6
REMARK    6  A    between atoms: C_9  and  C_10
REMARK    7  A    between atoms: N_12  and  C_13
REMARK                            x       y       z     vdW  Elec       q    Type
REMARK                         _______ _______ _______ _____ _____    ______ ____
ROOT
ATOM      1  C   UNL     1       2.738   6.407  18.088  0.00  0.00    +0.000 C 
ATOM      2  O   UNL     1       1.960   5.680  18.701  0.00  0.00    +0.000 OA
ATOM      3  N   UNL     1       2.668   7.791  18.009  0.00  0.00    +0.000 N 
ATOM      4  H   UNL     1       3.212   8.252  17.290  0.00  0.00    +0.000 HD
ENDROOT
BRANCH   3   5
ATOM      5  C   UNL     1       1.724   8.588  18.715  0.00  0.00    +0.000 A 
ATOM      6  C   UNL     1       0.930   9.541  18.062  0.00  0.00    +0.000 A 
ATOM      7  C   UNL     1       0.032  10.368  18.742  0.00  0.00    +0.000 A 
ATOM      8  C   UNL     1      -0.049  10.187  20.115  0.00  0.00    +0.000 A 
ATOM      9  N   UNL     1      -0.786  10.824  21.074  0.00  0.00    +0.000 N 
ATOM     10  C   UNL     1      -0.489  10.263  22.283  0.00  0.00    +0.000 A 
ATOM     11  N   UNL     1      -1.070  10.722  23.397  0.00  0.00    +0.000 N 
ATOM     12  N   UNL     1       0.391   9.297  22.159  0.00  0.00    +0.000 NA
ATOM     13  C   UNL     1       0.687   9.237  20.812  0.00  0.00    +0.000 A 
ATOM     14  C   UNL     1       1.583   8.407  20.102  0.00  0.00    +0.000 A 
ATOM     15  H   UNL     1      -1.418  11.593  20.925  0.00  0.00    +0.000 HD
ATOM     16  H   UNL     1      -1.940  11.242  23.375  0.00  0.00    +0.000 HD
ATOM     17  H   UNL     1      -0.945  10.168  24.237  0.00  0.00    +0.000 HD
ENDBRANCH   3   5
BRANCH   1  21
ATOM     18  C   UNL     1       5.759   4.580  15.647  0.00  0.00    +0.000 A 
ATOM     19  C   UNL     1       5.621   5.970  15.722  0.00  0.00    +0.000 A 
ATOM     20  C   UNL     1       4.657   6.535  16.553  0.00  0.00    +0.000 A 
ATOM     21  C   UNL     1       3.810   5.725  17.321  0.00  0.00    +0.000 A 
ATOM     22  C   UNL     1       3.929   4.335  17.246  0.00  0.00    +0.000 A 
ATOM     23  C   UNL     1       4.901   3.770  16.409  0.00  0.00    +0.000 A 
BRANCH  18  24
ATOM     24  C   UNL     1       6.797   3.971  14.734  0.00  0.00    +0.000 C 
BRANCH  24  25
ATOM     25  C   UNL     1       7.227   4.884  13.578  0.00  0.00    +0.000 C 
BRANCH  25  26
ATOM     26  C   UNL     1       6.896   4.304  12.199  0.00  0.00    +0.000 C 
BRANCH  26  28
ATOM     27  C   UNL     1       4.653   3.278  11.681  0.00  0.00    +0.000 C 
ATOM     28  C   UNL     1       6.011   3.064  12.327  0.00  0.00    +0.000 C 
ENDBRANCH  26  28
ENDBRANCH  25  26
ENDBRANCH  24  25
ENDBRANCH  18  24
ENDBRANCH   1  21
TORSDOF 6
ENDMDL
MODEL 5
REMARK VINA RESULT:      -7.8      2.018      3.092
REMARK  Name = 
REMARK  7 active torsions:
REMARK  status: ('A' for Active; 'I' for Inactive)
REMARK    1  A    between atoms: C_1  and  C_2
REMARK    2  A    between atoms: C_2  and  C_3
REMARK    3  A    between atoms: C_3  and  C_4
REMARK    4  A    between atoms: C_4  and  C_5
REMARK    5  A    between atoms: C_5  and  C_6
REMARK    6  A    between atoms: C_9  and  C_10
REMARK    7  A    between atoms: N_12  and  C_13
REMARK                            x       y       z     vdW  Elec       q    Type
REMARK                         _______ _______ _______ _____ _____    ______ ____
ROOT
ATOM      1  C   UNL     1       2.038   8.024  18.685  0.00  0.00    +0.000 C 
ATOM      2  O   UNL     1       1.816   7.927  19.890  0.00  0.00    +0.000 OA
ATOM      3  N   UNL     1       1.473   8.956  17.824  0.00  0.00    +0.000 N 
ATOM      4  H   UNL     1       1.546   8.786  16.829  0.00  0.00    +0.000 HD
ENDROOT
BRANCH   3   5
ATOM      5  C   UNL     1       0.614  10.012  18.238  0.00  0.00    +0.000 A 
ATOM      6  C   UNL     1       1.108  11.152  18.888  0.00  0.00    +0.000 A 
ATOM      7  C   UNL     1       0.278  12.177  19.347  0.00  0.00    +0.000 A 
ATOM      8  C   UNL     1      -1.080  12.019  19.111  0.00  0.00    +0.000 A 
ATOM      9  N   UNL     1      -2.156  12.797  19.436  0.00  0.00    +0.000 N 
ATOM     10  C   UNL     1      -3.283  12.181  18.974  0.00  0.00    +0.000 A 
ATOM     11  N   UNL     1      -4.483  12.735  19.180  0.00  0.00    +0.000 N 
ATOM     12  N   UNL     1      -2.996  11.055  18.361  0.00  0.00    +0.000 NA
ATOM     13  C   UNL     1      -1.624  10.929  18.443  0.00  0.00    +0.000 A 
ATOM     14  C   UNL     1      -0.764   9.908  17.982  0.00  0.00    +0.000 A 
ATOM     15  H   UNL     1      -2.131  13.661  19.953  0.00  0.00    +0.000 HD
ATOM     16  H   UNL     1      -4.593  13.722  19.378  0.00  0.00    +0.000 HD
ATOM     17  H   UNL     1      -5.264  12.328  18.675  0.00  0.00    +0.000 HD
ENDBRANCH   3   5
BRANCH   1  21
ATOM     18  C   UNL     1       4.631   5.205  16.748  0.00  0.00    +0.000 A 
ATOM     19  C   UNL     1       4.791   6.583  16.577  0.00  0.00    +0.000 A 
ATOM     20  C   UNL     1       3.960   7.475  17.248  0.00  0.00    +0.000 A 
ATOM     21  C   UNL     1       2.949   7.009  18.101  0.00  0.00    +0.000 A 
ATOM     22  C   UNL     1       2.771   5.634  18.271  0.00  0.00    +0.000 A 
ATOM     23  C   UNL     1       3.610   4.739  17.594  0.00  0.00    +0.000 A 
BRANCH  18  24
ATOM     24  C   UNL     1       5.527   4.240  16.006  0.00  0.00    +0.000 C 
BRANCH  24  25
ATOM     25  C   UNL     1       7.014   4.619  16.035  0.00  0.00    +0.000 C 
BRANCH  25  26
ATOM     26  C   UNL     1       7.649   4.449  17.419  0.00  0.00    +0.000 C 
BRANCH  26  28
ATOM     27  C   UNL     1       7.328   5.700  19.583  0.00  0.00    +0.000 C 
ATOM     28  C   UNL     1       7.770   5.795  18.133  0.00  0.00    +0.000 C 
ENDBRANCH  26  28
ENDBRANCH  25  26
ENDBRANCH  24  25
ENDBRANCH  18  24
ENDBRANCH   1  21
TORSDOF 6
ENDMDL
MODEL 6
REMARK VINA RESULT:      -7.7      1.598      2.254
REMARK  Name = 
REMARK  7 active torsions:
REMARK  status: ('A' for Active; 'I' for Inactive)
REMARK    1  A    between atoms: C_1  and  C_2
REMARK    2  A    between atoms: C_2  and  C_3
REMARK    3  A    between atoms: C_3  and  C_4
REMARK    4  A    between atoms: C_4  and  C_5
REMARK    5  A    between atoms: C_5  and  C_6
REMARK    6  A    between atoms: C_9  and  C_10
REMARK    7  A    between atoms: N_12  and  C_13
REMARK                            x       y       z     vdW  Elec       q    Type
REMARK                         _______ _______ _______ _____ _____    ______ ____
ROOT
ATOM      1  C   UNL     1       2.090   8.073  18.701  0.00  0.00    +0.000 C 
ATOM      2  O   UNL     1       1.930   8.105  19.919  0.00  0.00    +0.000 OA
ATOM      3  N   UNL     1       1.531   8.952  17.783  0.00  0.00    +0.000 N 
ATOM      4  H   UNL     1       1.539   8.685  16.806  0.00  0.00    +0.000 HD
ENDROOT
BRANCH   3   5
ATOM      5  C   UNL     1       0.757  10.093  18.134  0.00  0.00    +0.000 A 
ATOM      6  C   UNL     1      -0.645  10.051  18.163  0.00  0.00    +0.000 A 
ATOM      7  C   UNL     1      -1.426  11.171  18.457  0.00  0.00    +0.000 A 
ATOM      8  C   UNL     1      -0.739  12.342  18.740  0.00  0.00    +0.000 A 
ATOM      9  N   UNL     1      -1.174  13.602  19.039  0.00  0.00    +0.000 N 
ATOM     10  C   UNL     1      -0.081  14.398  19.227  0.00  0.00    +0.000 A 
ATOM     11  N   UNL     1      -0.236  15.695  19.517  0.00  0.00    +0.000 N 
ATOM     12  N   UNL     1       1.035  13.723  19.073  0.00  0.00    +0.000 NA
ATOM     13  C   UNL     1       0.648  12.436  18.760  0.00  0.00    +0.000 A 
ATOM     14  C   UNL     1       1.417  11.288  18.467  0.00  0.00    +0.000 A 
ATOM     15  H   UNL     1      -2.133  13.905  19.086  0.00  0.00    +0.000 HD
ATOM     16  H   UNL     1      -1.096  16.059  19.911  0.00  0.00    +0.000 HD
ATOM     17  H   UNL     1       0.595  16.198  19.809  0.00  0.00    +0.000 HD
ENDBRANCH   3   5
BRANCH   1  21
ATOM     18  C   UNL     1       4.464   4.965  16.933  0.00  0.00    +0.000 A 
ATOM     19  C   UNL     1       4.844   6.309  16.856  0.00  0.00    +0.000 A 
ATOM     20  C   UNL     1       4.074   7.291  17.472  0.00  0.00    +0.000 A 
ATOM     21  C   UNL     1       2.909   6.953  18.174  0.00  0.00    +0.000 A 
ATOM     22  C   UNL     1       2.512   5.616  18.249  0.00  0.00    +0.000 A 
ATOM     23  C   UNL     1       3.290   4.629  17.627  0.00  0.00    +0.000 A 
BRANCH  18  24
ATOM     24  C   UNL     1       5.295   3.903  16.251  0.00  0.00    +0.000 C 
BRANCH  24  25
ATOM     25  C   UNL     1       6.690   4.380  15.822  0.00  0.00    +0.000 C 
BRANCH  25  26
ATOM     26  C   UNL     1       6.767   4.747  14.336  0.00  0.00    +0.000 C 
BRANCH  26  28
ATOM     27  C   UNL     1       6.390   3.426  12.223  0.00  0.00    +0.000 C 
ATOM     28  C   UNL     1       5.771   3.926  13.518  0.00  0.00    +0.000 C 
ENDBRANCH  26  28
ENDBRANCH  25  26
ENDBRANCH  24  25
ENDBRANCH  18  24
ENDBRANCH   1  21
TORSDOF 6
ENDMDL
MODEL 7
REMARK VINA RESULT:      -7.7      3.018     10.101
REMARK  Name = 
REMARK  7 active torsions:
REMARK  status: ('A' for Active; 'I' for Inactive)
REMARK    1  A    between atoms: C_1  and  C_2
REMARK    2  A    between atoms: C_2  and  C_3
REMARK    3  A    between atoms: C_3  and  C_4
REMARK    4  A    between atoms: C_4  and  C_5
REMARK    5  A    between atoms: C_5  and  C_6
REMARK    6  A    between atoms: C_9  and  C_10
REMARK    7  A    between atoms: N_12  and  C_13
REMARK                            x       y       z     vdW  Elec       q    Type
REMARK                         _______ _______ _______ _____ _____    ______ ____
ROOT
ATOM      1  C   UNL     1       1.890   8.195  19.004  0.00  0.00    +0.000 C 
ATOM      2  O   UNL     1       2.039   8.849  17.974  0.00  0.00    +0.000 OA
ATOM      3  N   UNL     1       2.345   6.901  19.220  0.00  0.00    +0.000 N 
ATOM      4  H   UNL     1       1.958   6.388  20.003  0.00  0.00    +0.000 HD
ENDROOT
BRANCH   3   5
ATOM      5  C   UNL     1       3.145   6.168  18.300  0.00  0.00    +0.000 A 
ATOM      6  C   UNL     1       2.891   4.819  18.014  0.00  0.00    +0.000 A 
ATOM      7  C   UNL     1       3.693   4.067  17.152  0.00  0.00    +0.000 A 
ATOM      8  C   UNL     1       4.761   4.734  16.570  0.00  0.00    +0.000 A 
ATOM      9  N   UNL     1       5.741   4.311  15.716  0.00  0.00    +0.000 N 
ATOM     10  C   UNL     1       6.560   5.369  15.448  0.00  0.00    +0.000 A 
ATOM     11  N   UNL     1       7.617   5.213  14.643  0.00  0.00    +0.000 N 
ATOM     12  N   UNL     1       6.162   6.453  16.073  0.00  0.00    +0.000 NA
ATOM     13  C   UNL     1       5.042   6.077  16.788  0.00  0.00    +0.000 A 
ATOM     14  C   UNL     1       4.213   6.819  17.658  0.00  0.00    +0.000 A 
ATOM     15  H   UNL     1       5.860   3.375  15.364  0.00  0.00    +0.000 HD
ATOM     16  H   UNL     1       7.677   4.454  13.975  0.00  0.00    +0.000 HD
ATOM     17  H   UNL     1       8.091   6.060  14.345  0.00  0.00    +0.000 HD
ENDBRANCH   3   5
BRANCH   1  21
ATOM     18  C   UNL     1      -0.317  10.301  22.023  0.00  0.00    +0.000 A 
ATOM     19  C   UNL     1      -0.469  10.598  20.665  0.00  0.00    +0.000 A 
ATOM     20  C   UNL     1       0.231   9.872  19.706  0.00  0.00    +0.000 A 
ATOM     21  C   UNL     1       1.099   8.838  20.082  0.00  0.00    +0.000 A 
ATOM     22  C   UNL     1       1.269   8.539  21.436  0.00  0.00    +0.000 A 
ATOM     23  C   UNL     1       0.562   9.272  22.400  0.00  0.00    +0.000 A 
BRANCH  18  24
ATOM     24  C   UNL     1      -1.068  11.101  23.062  0.00  0.00    +0.000 C 
BRANCH  24  25
ATOM     25  C   UNL     1      -1.528  12.482  22.576  0.00  0.00    +0.000 C 
BRANCH  25  26
ATOM     26  C   UNL     1      -3.045  12.675  22.663  0.00  0.00    +0.000 C 
BRANCH  26  28
ATOM     27  C   UNL     1      -4.442  12.365  24.738  0.00  0.00    +0.000 C 
ATOM     28  C   UNL     1      -3.444  13.257  24.019  0.00  0.00    +0.000 C 
ENDBRANCH  26  28
ENDBRANCH  25  26
ENDBRANCH  24  25
ENDBRANCH  18  24
ENDBRANCH   1  21
TORSDOF 6
ENDMDL
MODEL 8
REMARK VINA RESULT:      -7.7      2.947      9.798
REMARK  Name = 
REMARK  7 active torsions:
REMARK  status: ('A' for Active; 'I' for Inactive)
REMARK    1  A    between atoms: C_1  and  C_2
REMARK    2  A    between atoms: C_2  and  C_3
REMARK    3  A    between atoms: C_3  and  C_4
REMARK    4  A    between atoms: C_4  and  C_5
REMARK    5  A    between atoms: C_5  and  C_6
REMARK    6  A    between atoms: C_9  and  C_10
REMARK    7  A    between atoms: N_12  and  C_13
REMARK                            x       y       z     vdW  Elec       q    Type
REMARK                         _______ _______ _______ _____ _____    ______ ____
ROOT
ATOM      1  C   UNL     1       1.894   8.314  18.777  0.00  0.00    +0.000 C 
ATOM      2  O   UNL     1       1.880   8.825  17.659  0.00  0.00    +0.000 OA
ATOM      3  N   UNL     1       2.474   7.097  19.109  0.00  0.00    +0.000 N 
ATOM      4  H   UNL     1       2.216   6.675  19.992  0.00  0.00    +0.000 HD
ENDROOT
BRANCH   3   5
ATOM      5  C   UNL     1       3.232   6.298  18.208  0.00  0.00    +0.000 A 
ATOM      6  C   UNL     1       2.967   4.932  18.033  0.00  0.00    +0.000 A 
ATOM      7  C   UNL     1       3.728   4.118  17.191  0.00  0.00    +0.000 A 
ATOM      8  C   UNL     1       4.767   4.739  16.513  0.00  0.00    +0.000 A 
ATOM      9  N   UNL     1       5.705   4.252  15.647  0.00  0.00    +0.000 N 
ATOM     10  C   UNL     1       6.510   5.287  15.264  0.00  0.00    +0.000 A 
ATOM     11  N   UNL     1       7.528   5.071  14.424  0.00  0.00    +0.000 N 
ATOM     12  N   UNL     1       6.140   6.414  15.827  0.00  0.00    +0.000 NA
ATOM     13  C   UNL     1       5.056   6.093  16.619  0.00  0.00    +0.000 A 
ATOM     14  C   UNL     1       4.268   6.898  17.471  0.00  0.00    +0.000 A 
ATOM     15  H   UNL     1       5.809   3.293  15.359  0.00  0.00    +0.000 HD
ATOM     16  H   UNL     1       7.558   4.264  13.811  0.00  0.00    +0.000 HD
ATOM     17  H   UNL     1       7.986   5.892  14.043  0.00  0.00    +0.000 HD
ENDBRANCH   3   5
BRANCH   1  21
ATOM     18  C   UNL     1      -0.331  10.200  21.925  0.00  0.00    +0.000 A 
ATOM     19  C   UNL     1       0.390   9.021  22.144  0.00  0.00    +0.000 A 
ATOM     20  C   UNL     1       1.134   8.454  21.114  0.00  0.00    +0.000 A 
ATOM     21  C   UNL     1       1.170   9.048  19.844  0.00  0.00    +0.000 A 
ATOM     22  C   UNL     1       0.445  10.218  19.610  0.00  0.00    +0.000 A 
ATOM     23  C   UNL     1      -0.303  10.788  20.650  0.00  0.00    +0.000 A 
BRANCH  18  24
ATOM     24  C   UNL     1      -1.149  10.805  23.043  0.00  0.00    +0.000 C 
BRANCH  24  25
ATOM     25  C   UNL     1      -1.895  12.087  22.648  0.00  0.00    +0.000 C 
BRANCH  25  26
ATOM     26  C   UNL     1      -1.358  13.336  23.355  0.00  0.00    +0.000 C 
BRANCH  26  28
ATOM     27  C   UNL     1      -1.067  14.335  21.060  0.00  0.00    +0.000 C 
ATOM     28  C   UNL     1      -0.441  14.136  22.430  0.00  0.00    +0.000 C 
ENDBRANCH  26  28
ENDBRANCH  25  26
ENDBRANCH  24  25
ENDBRANCH  18  24
ENDBRANCH   1  21
TORSDOF 6
ENDMDL
MODEL 9
REMARK VINA RESULT:      -7.6      1.466      2.194
REMARK  Name = 
REMARK  7 active torsions:
REMARK  status: ('A' for Active; 'I' for Inactive)
REMARK    1  A    between atoms: C_1  and  C_2
REMARK    2  A    between atoms: C_2  and  C_3
REMARK    3  A    between atoms: C_3  and  C_4
REMARK    4  A    between atoms: C_4  and  C_5
REMARK    5  A    between atoms: C_5  and  C_6
REMARK    6  A    between atoms: C_9  and  C_10
REMARK    7  A    between atoms: N_12  and  C_13
REMARK                            x       y       z     vdW  Elec       q    Type
REMARK                         _______ _______ _______ _____ _____    ______ ____
ROOT
ATOM      1  C   UNL     1       2.113   6.796  19.807  0.00  0.00    +0.000 C 
ATOM      2  O   UNL     1       1.663   6.068  20.689  0.00  0.00    +0.000 OA
ATOM      3  N   UNL     1       1.874   8.158  19.674  0.00  0.00    +0.000 N 
ATOM      4  H   UNL     1       2.097   8.593  18.788  0.00  0.00    +0.000 HD
ENDROOT
BRANCH   3   5
ATOM      5  C   UNL     1       1.139   8.938  20.610  0.00  0.00    +0.000 A 
ATOM      6  C   UNL     1       1.246   8.724  21.991  0.00  0.00    +0.000 A 
ATOM      7  C   UNL     1       0.497   9.445  22.925  0.00  0.00    +0.000 A 
ATOM      8  C   UNL     1      -0.359  10.408  22.413  0.00  0.00    +0.000 A 
ATOM      9  N   UNL     1      -1.236  11.261  23.023  0.00  0.00    +0.000 N 
ATOM     10  C   UNL     1      -1.846  12.009  22.057  0.00  0.00    +0.000 A 
ATOM     11  N   UNL     1      -2.769  12.916  22.393  0.00  0.00    +0.000 N 
ATOM     12  N   UNL     1      -1.407  11.694  20.860  0.00  0.00    +0.000 NA
ATOM     13  C   UNL     1      -0.482  10.688  21.058  0.00  0.00    +0.000 A 
ATOM     14  C   UNL     1       0.291   9.952  20.133  0.00  0.00    +0.000 A 
ATOM     15  H   UNL     1      -1.426  11.313  24.010  0.00  0.00    +0.000 HD
ATOM     16  H   UNL     1      -2.826  13.306  23.326  0.00  0.00    +0.000 HD
ATOM     17  H   UNL     1      -3.066  13.555  21.662  0.00  0.00    +0.000 HD
ENDBRANCH   3   5
BRANCH   1  21
ATOM     18  C   UNL     1       4.597   4.720  16.990  0.00  0.00    +0.000 A 
ATOM     19  C   UNL     1       3.752   4.031  17.866  0.00  0.00    +0.000 A 
ATOM     20  C   UNL     1       2.929   4.733  18.742  0.00  0.00    +0.000 A 
ATOM     21  C   UNL     1       2.936   6.134  18.764  0.00  0.00    +0.000 A 
ATOM     22  C   UNL     1       3.784   6.834  17.903  0.00  0.00    +0.000 A 
ATOM     23  C   UNL     1       4.611   6.124  17.021  0.00  0.00    +0.000 A 
BRANCH  18  24
ATOM     24  C   UNL     1       5.500   3.954  16.051  0.00  0.00    +0.000 C 
BRANCH  24  25
ATOM     25  C   UNL     1       6.707   4.758  15.549  0.00  0.00    +0.000 C 
BRANCH  25  26
ATOM     26  C   UNL     1       6.906   4.660  14.033  0.00  0.00    +0.000 C 
BRANCH  26  28
ATOM     27  C   UNL     1       6.260   3.239  12.054  0.00  0.00    +0.000 C 
ATOM     28  C   UNL     1       5.815   3.800  13.394  0.00  0.00    +0.000 C 
ENDBRANCH  26  28
ENDBRANCH  25  26
ENDBRANCH  24  25
ENDBRANCH  18  24
ENDBRANCH   1  21
TORSDOF 6
ENDMDL
