MODEL 1
REMARK VINA RESULT:      -8.3      0.000      0.000
REMARK  Name = 
REMARK  9 active torsions:
REMARK  status: ('A' for Active; 'I' for Inactive)
REMARK    1  A    between atoms: C_1  and  C_2
REMARK    2  A    between atoms: C_2  and  N_3
REMARK    3  A    between atoms: C_6  and  N_7
REMARK    4  A    between atoms: C_8  and  C_10
REMARK    5  A    between atoms: C_12  and  C_13
REMARK    6  A    between atoms: C_18  and  N_19
REMARK    7  A    between atoms: N_19  and  C_20
REMARK    8  A    between atoms: C_26  and  C_27
REMARK    9  A    between atoms: N_29  and  C_30
REMARK                            x       y       z     vdW  Elec       q    Type
REMARK                         _______ _______ _______ _____ _____    ______ ____
ROOT
ATOM      1  C   UNL     1       2.005   8.198  19.160  0.00  0.00    +0.000 A 
ATOM      2  N   UNL     1       1.348   9.391  19.002  0.00  0.00    +0.000 NA
ATOM      3  C   UNL     1       0.488   9.747  19.987  0.00  0.00    +0.000 A 
ATOM      4  C   UNL     1       0.315   8.907  21.083  0.00  0.00    +0.000 A 
ATOM      5  N   UNL     1       0.982   7.745  21.255  0.00  0.00    +0.000 NA
ATOM      6  C   UNL     1       1.850   7.370  20.283  0.00  0.00    +0.000 A 
ENDROOT
BRANCH   1   8
ATOM      7  N   UNL     1       3.710   6.734  18.261  0.00  0.00    +0.000 N 
ATOM      8  C   UNL     1       2.855   7.792  17.996  0.00  0.00    +0.000 C 
ATOM      9  O   UNL     1       2.789   8.416  16.940  0.00  0.00    +0.000 OA
ATOM     10  H   UNL     1       3.670   6.314  19.193  0.00  0.00    +0.000 HD
BRANCH   7  14
ATOM     11  N   UNL     1       5.714   4.880  16.004  0.00  0.00    +0.000 N 
ATOM     12  N   UNL     1       6.379   6.050  15.915  0.00  0.00    +0.000 NA
ATOM     13  C   UNL     1       5.705   6.868  16.720  0.00  0.00    +0.000 A 
ATOM     14  C   UNL     1       4.633   6.223  17.361  0.00  0.00    +0.000 A 
ATOM     15  C   UNL     1       4.682   4.899  16.922  0.00  0.00    +0.000 A 
BRANCH  15  16
ATOM     16  C   UNL     1       3.795   3.829  17.320  0.00  0.00    +0.000 C 
ATOM     17  O   UNL     1       2.588   3.863  17.083  0.00  0.00    +0.000 OA
ATOM     18  N   UNL     1       4.354   2.799  18.050  0.00  0.00    +0.000 N 
ATOM     19  C   UNL     1       3.578   1.683  18.539  0.00  0.00    +0.000 C 
ATOM     20  H   UNL     1       5.289   2.895  18.408  0.00  0.00    +0.000 HD
ENDBRANCH  15  16
BRANCH  11  22
ATOM     21  C   UNL     1       5.838   4.039  13.656  0.00  0.00    +0.000 C 
ATOM     22  C   UNL     1       6.167   3.818  15.122  0.00  0.00    +0.000 C 
ENDBRANCH  11  22
ENDBRANCH   7  14
ENDBRANCH   1   8
BRANCH   3  23
ATOM     23  C   UNL     1      -0.291  11.032  19.878  0.00  0.00    +0.000 C 
ATOM     24  C   UNL     1      -0.291  11.837  18.602  0.00  0.00    +0.000 C 
ATOM     25  C   UNL     1      -1.511  11.055  18.985  0.00  0.00    +0.000 C 
ENDBRANCH   3  23
BRANCH   6  26
ATOM     26  N   UNL     1       2.603   6.201  20.491  0.00  0.00    +0.000 N 
ATOM     27  H   UNL     1       3.564   6.270  20.156  0.00  0.00    +0.000 HD
BRANCH  26  28
ATOM     28  C   UNL     1       2.102   4.918  20.745  0.00  0.00    +0.000 A 
ATOM     29  C   UNL     1       2.585   4.103  21.753  0.00  0.00    +0.000 A 
ATOM     30  N   UNL     1       2.172   2.835  21.984  0.00  0.00    +0.000 NA
ATOM     31  C   UNL     1       1.230   2.370  21.147  0.00  0.00    +0.000 A 
ATOM     32  N   UNL     1       0.675   3.045  20.135  0.00  0.00    +0.000 NA
ATOM     33  C   UNL     1       1.140   4.303  19.959  0.00  0.00    +0.000 A 
ENDBRANCH  26  28
ENDBRANCH   6  26
TORSDOF 7
ENDMDL
MODEL 2
REMARK VINA RESULT:      -8.2      0.748      1.136
REMARK  Name = 
REMARK  9 active torsions:
REMARK  status: ('A' for Active; 'I' for Inactive)
REMARK    1  A    between atoms: C_1  and  C_2
REMARK    2  A    between atoms: C_2  and  N_3
REMARK    3  A    between atoms: C_6  and  N_7
REMARK    4  A    between atoms: C_8  and  C_10
REMARK    5  A    between atoms: C_12  and  C_13
REMARK    6  A    between atoms: C_18  and  N_19
REMARK    7  A    between atoms: N_19  and  C_20
REMARK    8  A    between atoms: C_26  and  C_27
REMARK    9  A    between atoms: N_29  and  C_30
REMARK                            x       y       z     vdW  Elec       q    Type
REMARK                         _______ _______ _______ _____ _____    ______ ____
ROOT
ATOM      1  C   UNL     1       1.979   8.206  19.212  0.00  0.00    +0.000 A 
ATOM      2  N   UNL     1       1.309   9.400  19.146  0.00  0.00    +0.000 NA
ATOM      3  C   UNL     1       0.521   9.715  20.204  0.00  0.00    +0.000 A 
ATOM      4  C   UNL     1       0.429   8.834  21.277  0.00  0.00    +0.000 A 
ATOM      5  N   UNL     1       1.111   7.670  21.357  0.00  0.00    +0.000 NA
ATOM      6  C   UNL     1       1.907   7.336  20.312  0.00  0.00    +0.000 A 
ENDROOT
BRANCH   1   8
ATOM      7  N   UNL     1       3.572   6.747  18.121  0.00  0.00    +0.000 N 
ATOM      8  C   UNL     1       2.743   7.848  17.976  0.00  0.00    +0.000 C 
ATOM      9  O   UNL     1       2.639   8.542  16.967  0.00  0.00    +0.000 OA
ATOM     10  H   UNL     1       3.571   6.270  19.026  0.00  0.00    +0.000 HD
BRANCH   7  14
ATOM     11  N   UNL     1       5.688   4.947  15.924  0.00  0.00    +0.000 N 
ATOM     12  N   UNL     1       5.726   6.131  15.279  0.00  0.00    +0.000 NA
ATOM     13  C   UNL     1       4.936   6.919  16.004  0.00  0.00    +0.000 A 
ATOM     14  C   UNL     1       4.422   6.266  17.136  0.00  0.00    +0.000 A 
ATOM     15  C   UNL     1       4.967   4.981  17.102  0.00  0.00    +0.000 A 
BRANCH  15  16
ATOM     16  C   UNL     1       4.754   3.931  18.072  0.00  0.00    +0.000 C 
ATOM     17  O   UNL     1       5.266   3.965  19.191  0.00  0.00    +0.000 OA
ATOM     18  N   UNL     1       4.012   2.844  17.656  0.00  0.00    +0.000 N 
ATOM     19  C   UNL     1       3.750   1.709  18.511  0.00  0.00    +0.000 C 
ATOM     20  H   UNL     1       3.784   2.742  16.682  0.00  0.00    +0.000 HD
ENDBRANCH  15  16
BRANCH  11  22
ATOM     21  C   UNL     1       6.250   3.825  13.764  0.00  0.00    +0.000 C 
ATOM     22  C   UNL     1       6.378   3.843  15.277  0.00  0.00    +0.000 C 
ENDBRANCH  11  22
ENDBRANCH   7  14
ENDBRANCH   1   8
BRANCH   3  23
ATOM     23  C   UNL     1      -0.268  10.998  20.199  0.00  0.00    +0.000 C 
ATOM     24  C   UNL     1      -0.185  11.960  19.040  0.00  0.00    +0.000 C 
ATOM     25  C   UNL     1      -1.418  11.128  19.226  0.00  0.00    +0.000 C 
ENDBRANCH   3  23
BRANCH   6  26
ATOM     26  N   UNL     1       2.677   6.164  20.421  0.00  0.00    +0.000 N 
ATOM     27  H   UNL     1       3.627   6.266  20.065  0.00  0.00    +0.000 HD
BRANCH  26  28
ATOM     28  C   UNL     1       2.195   4.862  20.601  0.00  0.00    +0.000 A 
ATOM     29  C   UNL     1       1.285   4.267  19.746  0.00  0.00    +0.000 A 
ATOM     30  N   UNL     1       0.747   3.037  19.926  0.00  0.00    +0.000 NA
ATOM     31  C   UNL     1       1.147   2.386  21.030  0.00  0.00    +0.000 A 
ATOM     32  N   UNL     1       2.018   2.837  21.939  0.00  0.00    +0.000 NA
ATOM     33  C   UNL     1       2.510   4.075  21.698  0.00  0.00    +0.000 A 
ENDBRANCH  26  28
ENDBRANCH   6  26
TORSDOF 7
ENDMDL
MODEL 3
REMARK VINA RESULT:      -7.9      1.722      6.680
REMARK  Name = 
REMARK  9 active torsions:
REMARK  status: ('A' for Active; 'I' for Inactive)
REMARK    1  A    between atoms: C_1  and  C_2
REMARK    2  A    between atoms: C_2  and  N_3
REMARK    3  A    between atoms: C_6  and  N_7
REMARK    4  A    between atoms: C_8  and  C_10
REMARK    5  A    between atoms: C_12  and  C_13
REMARK    6  A    between atoms: C_18  and  N_19
REMARK    7  A    between atoms: N_19  and  C_20
REMARK    8  A    between atoms: C_26  and  C_27
REMARK    9  A    between atoms: N_29  and  C_30
REMARK                            x       y       z     vdW  Elec       q    Type
REMARK                         _______ _______ _______ _____ _____    ______ ____
ROOT
ATOM      1  C   UNL     1       4.138   5.857  18.047  0.00  0.00    +0.000 A 
ATOM      2  N   UNL     1       5.141   6.751  17.780  0.00  0.00    +0.000 NA
ATOM      3  C   UNL     1       6.371   6.234  17.541  0.00  0.00    +0.000 A 
ATOM      4  C   UNL     1       6.553   4.855  17.580  0.00  0.00    +0.000 A 
ATOM      5  N   UNL     1       5.559   3.968  17.814  0.00  0.00    +0.000 NA
ATOM      6  C   UNL     1       4.321   4.465  18.053  0.00  0.00    +0.000 A 
ENDROOT
BRANCH   1   8
ATOM      7  N   UNL     1       2.898   7.355  19.490  0.00  0.00    +0.000 N 
ATOM      8  C   UNL     1       2.827   6.478  18.418  0.00  0.00    +0.000 C 
ATOM      9  O   UNL     1       1.804   6.158  17.817  0.00  0.00    +0.000 OA
ATOM     10  H   UNL     1       3.818   7.519  19.906  0.00  0.00    +0.000 HD
BRANCH   7  14
ATOM     11  N   UNL     1       0.191   9.433  20.434  0.00  0.00    +0.000 N 
ATOM     12  N   UNL     1       0.044   8.500  21.396  0.00  0.00    +0.000 NA
ATOM     13  C   UNL     1       1.010   7.621  21.144  0.00  0.00    +0.000 A 
ATOM     14  C   UNL     1       1.808   8.001  20.052  0.00  0.00    +0.000 A 
ATOM     15  C   UNL     1       1.291   9.225  19.624  0.00  0.00    +0.000 A 
BRANCH  15  16
ATOM     16  C   UNL     1       1.788  10.036  18.536  0.00  0.00    +0.000 C 
ATOM     17  O   UNL     1       2.065   9.553  17.438  0.00  0.00    +0.000 OA
ATOM     18  N   UNL     1       2.016  11.370  18.809  0.00  0.00    +0.000 N 
ATOM     19  C   UNL     1       2.542  12.286  17.824  0.00  0.00    +0.000 C 
ATOM     20  H   UNL     1       1.982  11.694  19.761  0.00  0.00    +0.000 HD
ENDBRANCH  15  16
BRANCH  11  22
ATOM     21  C   UNL     1      -0.873  11.352  21.627  0.00  0.00    +0.000 C 
ATOM     22  C   UNL     1      -0.824  10.473  20.391  0.00  0.00    +0.000 C 
ENDBRANCH  11  22
ENDBRANCH   7  14
ENDBRANCH   1   8
BRANCH   3  23
ATOM     23  C   UNL     1       7.533   7.150  17.263  0.00  0.00    +0.000 C 
ATOM     24  C   UNL     1       7.479   8.611  17.635  0.00  0.00    +0.000 C 
ATOM     25  C   UNL     1       8.329   7.673  18.438  0.00  0.00    +0.000 C 
ENDBRANCH   3  23
BRANCH   6  26
ATOM     26  N   UNL     1       3.268   3.548  18.223  0.00  0.00    +0.000 N 
ATOM     27  H   UNL     1       2.732   3.381  17.372  0.00  0.00    +0.000 HD
BRANCH  26  28
ATOM     28  C   UNL     1       2.686   3.160  19.436  0.00  0.00    +0.000 A 
ATOM     29  C   UNL     1       1.324   3.217  19.673  0.00  0.00    +0.000 A 
ATOM     30  N   UNL     1       0.733   2.914  20.853  0.00  0.00    +0.000 NA
ATOM     31  C   UNL     1       1.565   2.544  21.840  0.00  0.00    +0.000 A 
ATOM     32  N   UNL     1       2.896   2.445  21.752  0.00  0.00    +0.000 NA
ATOM     33  C   UNL     1       3.418   2.768  20.546  0.00  0.00    +0.000 A 
ENDBRANCH  26  28
ENDBRANCH   6  26
TORSDOF 7
ENDMDL
MODEL 4
REMARK VINA RESULT:      -7.3      1.804      7.292
REMARK  Name = 
REMARK  9 active torsions:
REMARK  status: ('A' for Active; 'I' for Inactive)
REMARK    1  A    between atoms: C_1  and  C_2
REMARK    2  A    between atoms: C_2  and  N_3
REMARK    3  A    between atoms: C_6  and  N_7
REMARK    4  A    between atoms: C_8  and  C_10
REMARK    5  A    between atoms: C_12  and  C_13
REMARK    6  A    between atoms: C_18  and  N_19
REMARK    7  A    between atoms: N_19  and  C_20
REMARK    8  A    between atoms: C_26  and  C_27
REMARK    9  A    between atoms: N_29  and  C_30
REMARK                            x       y       z     vdW  Elec       q    Type
REMARK                         _______ _______ _______ _____ _____    ______ ____
ROOT
ATOM      1  C   UNL     1       3.896   5.366  18.859  0.00  0.00    +0.000 A 
ATOM      2  N   UNL     1       3.048   4.735  19.732  0.00  0.00    +0.000 NA
ATOM      3  C   UNL     1       3.397   3.486  20.124  0.00  0.00    +0.000 A 
ATOM      4  C   UNL     1       4.568   2.916  19.634  0.00  0.00    +0.000 A 
ATOM      5  N   UNL     1       5.421   3.546  18.796  0.00  0.00    +0.000 NA
ATOM      6  C   UNL     1       5.092   4.798  18.393  0.00  0.00    +0.000 A 
ENDROOT
BRANCH   1   8
ATOM      7  N   UNL     1       2.544   7.340  19.233  0.00  0.00    +0.000 N 
ATOM      8  C   UNL     1       3.412   6.694  18.365  0.00  0.00    +0.000 C 
ATOM      9  O   UNL     1       3.750   7.097  17.255  0.00  0.00    +0.000 OA
ATOM     10  H   UNL     1       2.336   6.880  20.123  0.00  0.00    +0.000 HD
BRANCH   7  14
ATOM     11  N   UNL     1       0.738  10.385  19.172  0.00  0.00    +0.000 N 
ATOM     12  N   UNL     1       1.236  10.448  17.920  0.00  0.00    +0.000 NA
ATOM     13  C   UNL     1       1.972   9.345  17.810  0.00  0.00    +0.000 A 
ATOM     14  C   UNL     1       1.919   8.548  18.966  0.00  0.00    +0.000 A 
ATOM     15  C   UNL     1       1.060   9.219  19.838  0.00  0.00    +0.000 A 
BRANCH  15  16
ATOM     16  C   UNL     1       0.664   8.784  21.159  0.00  0.00    +0.000 C 
ATOM     17  O   UNL     1       0.455   7.599  21.419  0.00  0.00    +0.000 OA
ATOM     18  N   UNL     1       0.454   9.772  22.100  0.00  0.00    +0.000 N 
ATOM     19  C   UNL     1       0.025   9.482  23.449  0.00  0.00    +0.000 C 
ATOM     20  H   UNL     1       0.427  10.735  21.810  0.00  0.00    +0.000 HD
ENDBRANCH  15  16
BRANCH  11  22
ATOM     21  C   UNL     1      -0.934  12.136  18.559  0.00  0.00    +0.000 C 
ATOM     22  C   UNL     1      -0.022  11.542  19.617  0.00  0.00    +0.000 C 
ENDBRANCH  11  22
ENDBRANCH   7  14
ENDBRANCH   1   8
BRANCH   3  23
ATOM     23  C   UNL     1       2.507   2.715  21.063  0.00  0.00    +0.000 C 
ATOM     24  C   UNL     1       1.320   3.370  21.725  0.00  0.00    +0.000 C 
ATOM     25  C   UNL     1       1.101   2.390  20.612  0.00  0.00    +0.000 C 
ENDBRANCH   3  23
BRANCH   6  26
ATOM     26  N   UNL     1       6.010   5.488  17.582  0.00  0.00    +0.000 N 
ATOM     27  H   UNL     1       6.282   6.397  17.957  0.00  0.00    +0.000 HD
BRANCH  26  28
ATOM     28  C   UNL     1       6.278   5.245  16.229  0.00  0.00    +0.000 A 
ATOM     29  C   UNL     1       5.466   4.465  15.426  0.00  0.00    +0.000 A 
ATOM     30  N   UNL     1       5.728   4.154  14.134  0.00  0.00    +0.000 NA
ATOM     31  C   UNL     1       6.872   4.652  13.639  0.00  0.00    +0.000 A 
ATOM     32  N   UNL     1       7.748   5.419  14.298  0.00  0.00    +0.000 NA
ATOM     33  C   UNL     1       7.425   5.684  15.585  0.00  0.00    +0.000 A 
ENDBRANCH  26  28
ENDBRANCH   6  26
TORSDOF 7
ENDMDL
MODEL 5
REMARK VINA RESULT:      -7.2      2.789      5.819
REMARK  Name = 
REMARK  9 active torsions:
REMARK  status: ('A' for Active; 'I' for Inactive)
REMARK    1  A    between atoms: C_1  and  C_2
REMARK    2  A    between atoms: C_2  and  N_3
REMARK    3  A    between atoms: C_6  and  N_7
REMARK    4  A    between atoms: C_8  and  C_10
REMARK    5  A    between atoms: C_12  and  C_13
REMARK    6  A    between atoms: C_18  and  N_19
REMARK    7  A    between atoms: N_19  and  C_20
REMARK    8  A    between atoms: C_26  and  C_27
REMARK    9  A    between atoms: N_29  and  C_30
REMARK                            x       y       z     vdW  Elec       q    Type
REMARK                         _______ _______ _______ _____ _____    ______ ____
ROOT
ATOM      1  C   UNL     1       0.350  10.285  18.372  0.00  0.00    +0.000 A 
ATOM      2  N   UNL     1      -0.743   9.851  17.669  0.00  0.00    +0.000 NA
ATOM      3  C   UNL     1      -1.944  10.366  18.031  0.00  0.00    +0.000 A 
ATOM      4  C   UNL     1      -2.009  11.285  19.074  0.00  0.00    +0.000 A 
ATOM      5  N   UNL     1      -0.929  11.737  19.750  0.00  0.00    +0.000 NA
ATOM      6  C   UNL     1       0.282  11.236  19.402  0.00  0.00    +0.000 A 
ENDROOT
BRANCH   1   8
ATOM      7  N   UNL     1       1.656   8.248  18.301  0.00  0.00    +0.000 N 
ATOM      8  C   UNL     1       1.635   9.605  18.015  0.00  0.00    +0.000 C 
ATOM      9  O   UNL     1       2.570  10.258  17.558  0.00  0.00    +0.000 OA
ATOM     10  H   UNL     1       0.808   7.834  18.695  0.00  0.00    +0.000 HD
BRANCH   7  14
ATOM     11  N   UNL     1       4.135   5.720  18.217  0.00  0.00    +0.000 N 
ATOM     12  N   UNL     1       4.742   6.594  17.388  0.00  0.00    +0.000 NA
ATOM     13  C   UNL     1       3.889   7.612  17.310  0.00  0.00    +0.000 A 
ATOM     14  C   UNL     1       2.754   7.422  18.117  0.00  0.00    +0.000 A 
ATOM     15  C   UNL     1       2.953   6.195  18.751  0.00  0.00    +0.000 A 
BRANCH  15  16
ATOM     16  C   UNL     1       2.067   5.567  19.706  0.00  0.00    +0.000 C 
ATOM     17  O   UNL     1       1.736   6.125  20.751  0.00  0.00    +0.000 OA
ATOM     18  N   UNL     1       1.670   4.274  19.427  0.00  0.00    +0.000 N 
ATOM     19  C   UNL     1       0.813   3.517  20.310  0.00  0.00    +0.000 C 
ATOM     20  H   UNL     1       2.116   3.769  18.680  0.00  0.00    +0.000 HD
ENDBRANCH  15  16
BRANCH  11  22
ATOM     21  C   UNL     1       4.427   3.394  17.354  0.00  0.00    +0.000 C 
ATOM     22  C   UNL     1       4.798   4.438  18.392  0.00  0.00    +0.000 C 
ENDBRANCH  11  22
ENDBRANCH   7  14
ENDBRANCH   1   8
BRANCH   3  23
ATOM     23  C   UNL     1      -3.198   9.924  17.324  0.00  0.00    +0.000 C 
ATOM     24  C   UNL     1      -4.316  10.896  17.040  0.00  0.00    +0.000 C 
ATOM     25  C   UNL     1      -3.440  10.425  15.918  0.00  0.00    +0.000 C 
ENDBRANCH   3  23
BRANCH   6  26
ATOM     26  N   UNL     1       1.417  11.756  20.050  0.00  0.00    +0.000 N 
ATOM     27  H   UNL     1       1.615  11.310  20.946  0.00  0.00    +0.000 HD
BRANCH  26  28
ATOM     28  C   UNL     1       2.035  12.987  19.796  0.00  0.00    +0.000 A 
ATOM     29  C   UNL     1       2.619  13.759  20.784  0.00  0.00    +0.000 A 
ATOM     30  N   UNL     1       3.164  14.982  20.586  0.00  0.00    +0.000 NA
ATOM     31  C   UNL     1       3.108  15.445  19.327  0.00  0.00    +0.000 A 
ATOM     32  N   UNL     1       2.577  14.808  18.277  0.00  0.00    +0.000 NA
ATOM     33  C   UNL     1       2.045  13.595  18.550  0.00  0.00    +0.000 A 
ENDBRANCH  26  28
ENDBRANCH   6  26
TORSDOF 7
ENDMDL
MODEL 6
REMARK VINA RESULT:      -7.1      2.851      5.719
REMARK  Name = 
REMARK  9 active torsions:
REMARK  status: ('A' for Active; 'I' for Inactive)
REMARK    1  A    between atoms: C_1  and  C_2
REMARK    2  A    between atoms: C_2  and  N_3
REMARK    3  A    between atoms: C_6  and  N_7
REMARK    4  A    between atoms: C_8  and  C_10
REMARK    5  A    between atoms: C_12  and  C_13
REMARK    6  A    between atoms: C_18  and  N_19
REMARK    7  A    between atoms: N_19  and  C_20
REMARK    8  A    between atoms: C_26  and  C_27
REMARK    9  A    between atoms: N_29  and  C_30
REMARK                            x       y       z     vdW  Elec       q    Type
REMARK                         _______ _______ _______ _____ _____    ______ ____
ROOT
ATOM      1  C   UNL     1       0.175  10.128  18.332  0.00  0.00    +0.000 A 
ATOM      2  N   UNL     1      -0.715   9.808  17.340  0.00  0.00    +0.000 NA
ATOM      3  C   UNL     1      -1.996  10.217  17.516  0.00  0.00    +0.000 A 
ATOM      4  C   UNL     1      -2.338  10.922  18.666  0.00  0.00    +0.000 A 
ATOM      5  N   UNL     1      -1.456  11.264  19.632  0.00  0.00    +0.000 NA
ATOM      6  C   UNL     1      -0.169  10.867  19.474  0.00  0.00    +0.000 A 
ENDROOT
BRANCH   1   8
ATOM      7  N   UNL     1       1.589   8.171  18.150  0.00  0.00    +0.000 N 
ATOM      8  C   UNL     1       1.547   9.557  18.150  0.00  0.00    +0.000 C 
ATOM      9  O   UNL     1       2.517  10.306  18.064  0.00  0.00    +0.000 OA
ATOM     10  H   UNL     1       0.702   7.671  18.245  0.00  0.00    +0.000 HD
BRANCH   7  14
ATOM     11  N   UNL     1       4.257   5.850  18.346  0.00  0.00    +0.000 N 
ATOM     12  N   UNL     1       4.805   6.676  17.432  0.00  0.00    +0.000 NA
ATOM     13  C   UNL     1       3.877   7.611  17.243  0.00  0.00    +0.000 A 
ATOM     14  C   UNL     1       2.750   7.419  18.060  0.00  0.00    +0.000 A 
ATOM     15  C   UNL     1       3.035   6.285  18.822  0.00  0.00    +0.000 A 
BRANCH  15  16
ATOM     16  C   UNL     1       2.188   5.693  19.833  0.00  0.00    +0.000 C 
ATOM     17  O   UNL     1       1.783   6.337  20.801  0.00  0.00    +0.000 OA
ATOM     18  N   UNL     1       1.916   4.346  19.706  0.00  0.00    +0.000 N 
ATOM     19  C   UNL     1       1.112   3.621  20.662  0.00  0.00    +0.000 C 
ATOM     20  H   UNL     1       2.424   3.800  19.030  0.00  0.00    +0.000 HD
ENDBRANCH  15  16
BRANCH  11  22
ATOM     21  C   UNL     1       6.403   4.609  18.049  0.00  0.00    +0.000 C 
ATOM     22  C   UNL     1       5.014   4.650  18.660  0.00  0.00    +0.000 C 
ENDBRANCH  11  22
ENDBRANCH   7  14
ENDBRANCH   1   8
BRANCH   3  23
ATOM     23  C   UNL     1      -3.041   9.885  16.484  0.00  0.00    +0.000 C 
ATOM     24  C   UNL     1      -4.046  10.917  16.033  0.00  0.00    +0.000 C 
ATOM     25  C   UNL     1      -2.925  10.523  15.118  0.00  0.00    +0.000 C 
ENDBRANCH   3  23
BRANCH   6  26
ATOM     26  N   UNL     1       0.768  11.283  20.437  0.00  0.00    +0.000 N 
ATOM     27  H   UNL     1       1.067  10.535  21.063  0.00  0.00    +0.000 HD
BRANCH  26  28
ATOM     28  C   UNL     1       1.025  12.599  20.839  0.00  0.00    +0.000 A 
ATOM     29  C   UNL     1       2.126  13.319  20.410  0.00  0.00    +0.000 A 
ATOM     30  N   UNL     1       2.443  14.567  20.829  0.00  0.00    +0.000 NA
ATOM     31  C   UNL     1       1.607  15.106  21.730  0.00  0.00    +0.000 A 
ATOM     32  N   UNL     1       0.509  14.527  22.230  0.00  0.00    +0.000 NA
ATOM     33  C   UNL     1       0.258  13.279  21.772  0.00  0.00    +0.000 A 
ENDBRANCH  26  28
ENDBRANCH   6  26
TORSDOF 7
ENDMDL
MODEL 7
REMARK VINA RESULT:      -7.1      1.628      2.021
REMARK  Name = 
REMARK  9 active torsions:
REMARK  status: ('A' for Active; 'I' for Inactive)
REMARK    1  A    between atoms: C_1  and  C_2
REMARK    2  A    between atoms: C_2  and  N_3
REMARK    3  A    between atoms: C_6  and  N_7
REMARK    4  A    between atoms: C_8  and  C_10
REMARK    5  A    between atoms: C_12  and  C_13
REMARK    6  A    between atoms: C_18  and  N_19
REMARK    7  A    between atoms: N_19  and  C_20
REMARK    8  A    between atoms: C_26  and  C_27
REMARK    9  A    between atoms: N_29  and  C_30
REMARK                            x       y       z     vdW  Elec       q    Type
REMARK                         _______ _______ _______ _____ _____    ______ ____
ROOT
ATOM      1  C   UNL     1       2.115   7.467  19.389  0.00  0.00    +0.000 A 
ATOM      2  N   UNL     1       1.676   8.719  19.046  0.00  0.00    +0.000 NA
ATOM      3  C   UNL     1       0.988   9.403  19.993  0.00  0.00    +0.000 A 
ATOM      4  C   UNL     1       0.763   8.817  21.235  0.00  0.00    +0.000 A 
ATOM      5  N   UNL     1       1.220   7.594  21.585  0.00  0.00    +0.000 NA
ATOM      6  C   UNL     1       1.913   6.893  20.654  0.00  0.00    +0.000 A 
ENDROOT
BRANCH   1   8
ATOM      7  N   UNL     1       4.005   7.205  17.898  0.00  0.00    +0.000 N 
ATOM      8  C   UNL     1       2.768   6.707  18.277  0.00  0.00    +0.000 C 
ATOM      9  O   UNL     1       2.182   5.762  17.752  0.00  0.00    +0.000 OA
ATOM     10  H   UNL     1       4.368   8.010  18.414  0.00  0.00    +0.000 HD
BRANCH   7  14
ATOM     11  N   UNL     1       6.254   5.582  15.696  0.00  0.00    +0.000 N 
ATOM     12  N   UNL     1       5.574   6.289  14.769  0.00  0.00    +0.000 NA
ATOM     13  C   UNL     1       4.658   6.949  15.474  0.00  0.00    +0.000 A 
ATOM     14  C   UNL     1       4.768   6.707  16.853  0.00  0.00    +0.000 A 
ATOM     15  C   UNL     1       5.858   5.846  16.993  0.00  0.00    +0.000 A 
BRANCH  15  16
ATOM     16  C   UNL     1       6.387   5.323  18.232  0.00  0.00    +0.000 C 
ATOM     17  O   UNL     1       5.809   4.440  18.865  0.00  0.00    +0.000 OA
ATOM     18  N   UNL     1       7.534   5.918  18.717  0.00  0.00    +0.000 N 
ATOM     19  C   UNL     1       8.152   5.517  19.960  0.00  0.00    +0.000 C 
ATOM     20  H   UNL     1       7.867   6.769  18.296  0.00  0.00    +0.000 HD
ENDBRANCH  15  16
BRANCH  11  22
ATOM     21  C   UNL     1       7.080   4.284  13.729  0.00  0.00    +0.000 C 
ATOM     22  C   UNL     1       7.256   4.660  15.189  0.00  0.00    +0.000 C 
ENDBRANCH  11  22
ENDBRANCH   7  14
ENDBRANCH   1   8
BRANCH   3  23
ATOM     23  C   UNL     1       0.450  10.777  19.688  0.00  0.00    +0.000 C 
ATOM     24  C   UNL     1      -0.396  11.029  18.465  0.00  0.00    +0.000 C 
ATOM     25  C   UNL     1      -1.039  11.007  19.819  0.00  0.00    +0.000 C 
ENDBRANCH   3  23
BRANCH   6  26
ATOM     26  N   UNL     1       2.455   5.653  21.036  0.00  0.00    +0.000 N 
ATOM     27  H   UNL     1       3.336   5.733  21.544  0.00  0.00    +0.000 HD
BRANCH  26  28
ATOM     28  C   UNL     1       2.134   4.400  20.500  0.00  0.00    +0.000 A 
ATOM     29  C   UNL     1       3.086   3.456  20.161  0.00  0.00    +0.000 A 
ATOM     30  N   UNL     1       2.817   2.263  19.579  0.00  0.00    +0.000 NA
ATOM     31  C   UNL     1       1.521   2.022  19.325  0.00  0.00    +0.000 A 
ATOM     32  N   UNL     1       0.499   2.840  19.599  0.00  0.00    +0.000 NA
ATOM     33  C   UNL     1       0.842   4.016  20.173  0.00  0.00    +0.000 A 
ENDBRANCH  26  28
ENDBRANCH   6  26
TORSDOF 7
ENDMDL
MODEL 8
REMARK VINA RESULT:      -7.1      1.913      7.555
REMARK  Name = 
REMARK  9 active torsions:
REMARK  status: ('A' for Active; 'I' for Inactive)
REMARK    1  A    between atoms: C_1  and  C_2
REMARK    2  A    between atoms: C_2  and  N_3
REMARK    3  A    between atoms: C_6  and  N_7
REMARK    4  A    between atoms: C_8  and  C_10
REMARK    5  A    between atoms: C_12  and  C_13
REMARK    6  A    between atoms: C_18  and  N_19
REMARK    7  A    between atoms: N_19  and  C_20
REMARK    8  A    between atoms: C_26  and  C_27
REMARK    9  A    between atoms: N_29  and  C_30
REMARK                            x       y       z     vdW  Elec       q    Type
REMARK                         _______ _______ _______ _____ _____    ______ ____
ROOT
ATOM      1  C   UNL     1       2.816   6.647  18.806  0.00  0.00    +0.000 A 
ATOM      2  N   UNL     1       2.183   6.059  19.869  0.00  0.00    +0.000 NA
ATOM      3  C   UNL     1       2.638   4.840  20.250  0.00  0.00    +0.000 A 
ATOM      4  C   UNL     1       3.697   4.257  19.560  0.00  0.00    +0.000 A 
ATOM      5  N   UNL     1       4.341   4.848  18.529  0.00  0.00    +0.000 NA
ATOM      6  C   UNL     1       3.904   6.069  18.133  0.00  0.00    +0.000 A 
ENDROOT
BRANCH   1   8
ATOM      7  N   UNL     1       1.158   8.379  19.142  0.00  0.00    +0.000 N 
ATOM      8  C   UNL     1       2.206   7.936  18.350  0.00  0.00    +0.000 C 
ATOM      9  O   UNL     1       2.611   8.478  17.324  0.00  0.00    +0.000 OA
ATOM     10  H   UNL     1       0.916   7.819  19.963  0.00  0.00    +0.000 HD
BRANCH   7  14
ATOM     11  N   UNL     1      -0.637  11.432  19.104  0.00  0.00    +0.000 N 
ATOM     12  N   UNL     1      -0.855  11.080  17.820  0.00  0.00    +0.000 NA
ATOM     13  C   UNL     1      -0.202   9.928  17.686  0.00  0.00    +0.000 A 
ATOM     14  C   UNL     1       0.400   9.511  18.884  0.00  0.00    +0.000 A 
ATOM     15  C   UNL     1       0.062  10.484  19.826  0.00  0.00    +0.000 A 
BRANCH  15  16
ATOM     16  C   UNL     1       0.430  10.492  21.224  0.00  0.00    +0.000 C 
ATOM     17  O   UNL     1       1.358  11.180  21.649  0.00  0.00    +0.000 OA
ATOM     18  N   UNL     1      -0.259   9.629  22.052  0.00  0.00    +0.000 N 
ATOM     19  C   UNL     1       0.028   9.510  23.463  0.00  0.00    +0.000 C 
ATOM     20  H   UNL     1      -0.863   8.932  21.649  0.00  0.00    +0.000 HD
ENDBRANCH  15  16
BRANCH  11  22
ATOM     21  C   UNL     1      -0.187  13.885  19.243  0.00  0.00    +0.000 C 
ATOM     22  C   UNL     1      -1.143  12.734  19.505  0.00  0.00    +0.000 C 
ENDBRANCH  11  22
ENDBRANCH   7  14
ENDBRANCH   1   8
BRANCH   3  23
ATOM     23  C   UNL     1       1.982   4.115  21.396  0.00  0.00    +0.000 C 
ATOM     24  C   UNL     1       1.087   2.924  21.154  0.00  0.00    +0.000 C 
ATOM     25  C   UNL     1       2.458   2.718  21.725  0.00  0.00    +0.000 C 
ENDBRANCH   3  23
BRANCH   6  26
ATOM     26  N   UNL     1       4.617   6.721  17.111  0.00  0.00    +0.000 N 
ATOM     27  H   UNL     1       4.255   7.649  16.891  0.00  0.00    +0.000 HD
BRANCH  26  28
ATOM     28  C   UNL     1       5.468   6.124  16.173  0.00  0.00    +0.000 A 
ATOM     29  C   UNL     1       5.011   5.328  15.137  0.00  0.00    +0.000 A 
ATOM     30  N   UNL     1       5.808   4.682  14.254  0.00  0.00    +0.000 NA
ATOM     31  C   UNL     1       7.128   4.845  14.435  0.00  0.00    +0.000 A 
ATOM     32  N   UNL     1       7.706   5.583  15.390  0.00  0.00    +0.000 NA
ATOM     33  C   UNL     1       6.850   6.195  16.240  0.00  0.00    +0.000 A 
ENDBRANCH  26  28
ENDBRANCH   6  26
TORSDOF 7
ENDMDL
MODEL 9
REMARK VINA RESULT:      -7.0      1.997      7.493
REMARK  Name = 
REMARK  9 active torsions:
REMARK  status: ('A' for Active; 'I' for Inactive)
REMARK    1  A    between atoms: C_1  and  C_2
REMARK    2  A    between atoms: C_2  and  N_3
REMARK    3  A    between atoms: C_6  and  N_7
REMARK    4  A    between atoms: C_8  and  C_10
REMARK    5  A    between atoms: C_12  and  C_13
REMARK    6  A    between atoms: C_18  and  N_19
REMARK    7  A    between atoms: N_19  and  C_20
REMARK    8  A    between atoms: C_26  and  C_27
REMARK    9  A    between atoms: N_29  and  C_30
REMARK                            x       y       z     vdW  Elec       q    Type
REMARK                         _______ _______ _______ _____ _____    ______ ____
ROOT
ATOM      1  C   UNL     1       2.794   6.592  18.391  0.00  0.00    +0.000 A 
ATOM      2  N   UNL     1       2.035   6.075  19.408  0.00  0.00    +0.000 NA
ATOM      3  C   UNL     1       2.172   4.749  19.658  0.00  0.00    +0.000 A 
ATOM      4  C   UNL     1       3.053   3.995  18.888  0.00  0.00    +0.000 A 
ATOM      5  N   UNL     1       3.825   4.508  17.904  0.00  0.00    +0.000 NA
ATOM      6  C   UNL     1       3.704   5.832  17.639  0.00  0.00    +0.000 A 
ENDROOT
BRANCH   1   8
ATOM      7  N   UNL     1       1.910   8.729  19.106  0.00  0.00    +0.000 N 
ATOM      8  C   UNL     1       2.524   8.030  18.077  0.00  0.00    +0.000 C 
ATOM      9  O   UNL     1       2.799   8.479  16.967  0.00  0.00    +0.000 OA
ATOM     10  H   UNL     1       1.725   8.225  19.976  0.00  0.00    +0.000 HD
BRANCH   7  14
ATOM     11  N   UNL     1       0.551  11.981  19.455  0.00  0.00    +0.000 N 
ATOM     12  N   UNL     1       1.285  12.212  18.348  0.00  0.00    +0.000 NA
ATOM     13  C   UNL     1       1.883  11.048  18.108  0.00  0.00    +0.000 A 
ATOM     14  C   UNL     1       1.507  10.053  19.027  0.00  0.00    +0.000 A 
ATOM     15  C   UNL     1       0.587  10.666  19.879  0.00  0.00    +0.000 A 
BRANCH  15  16
ATOM     16  C   UNL     1      -0.108  10.045  20.983  0.00  0.00    +0.000 C 
ATOM     17  O   UNL     1      -0.643   8.942  20.877  0.00  0.00    +0.000 OA
ATOM     18  N   UNL     1      -0.213  10.783  22.145  0.00  0.00    +0.000 N 
ATOM     19  C   UNL     1      -0.909  10.298  23.314  0.00  0.00    +0.000 C 
ATOM     20  H   UNL     1       0.046  11.755  22.139  0.00  0.00    +0.000 HD
ENDBRANCH  15  16
BRANCH  11  22
ATOM     21  C   UNL     1       0.112  14.433  19.279  0.00  0.00    +0.000 C 
ATOM     22  C   UNL     1      -0.128  13.133  20.025  0.00  0.00    +0.000 C 
ENDBRANCH  11  22
ENDBRANCH   7  14
ENDBRANCH   1   8
BRANCH   3  23
ATOM     23  C   UNL     1       1.357   4.098  20.744  0.00  0.00    +0.000 C 
ATOM     24  C   UNL     1       1.261   2.597  20.852  0.00  0.00    +0.000 C 
ATOM     25  C   UNL     1       2.088   3.361  21.843  0.00  0.00    +0.000 C 
ENDBRANCH   3  23
BRANCH   6  26
ATOM     26  N   UNL     1       4.557   6.387  16.668  0.00  0.00    +0.000 N 
ATOM     27  H   UNL     1       4.299   7.335  16.394  0.00  0.00    +0.000 HD
BRANCH  26  28
ATOM     28  C   UNL     1       5.428   5.688  15.823  0.00  0.00    +0.000 A 
ATOM     29  C   UNL     1       6.802   5.848  15.856  0.00  0.00    +0.000 A 
ATOM     30  N   UNL     1       7.669   5.241  15.011  0.00  0.00    +0.000 NA
ATOM     31  C   UNL     1       7.114   4.442  14.086  0.00  0.00    +0.000 A 
ATOM     32  N   UNL     1       5.807   4.196  13.940  0.00  0.00    +0.000 NA
ATOM     33  C   UNL     1       5.000   4.840  14.814  0.00  0.00    +0.000 A 
ENDBRANCH  26  28
ENDBRANCH   6  26
TORSDOF 7
ENDMDL
