MODEL 1
REMARK VINA RESULT:      -7.2      0.000      0.000
REMARK  Name = 
REMARK  7 active torsions:
REMARK  status: ('A' for Active; 'I' for Inactive)
REMARK    1  A    between atoms: C_1  and  O_2
REMARK    2  A    between atoms: O_2  and  C_3
REMARK    3  A    between atoms: C_3  and  C_5
REMARK    4  A    between atoms: C_9  and  O_10
REMARK    5  A    between atoms: O_10  and  C_11
REMARK    6  A    between atoms: C_14  and  O_15
REMARK    7  A    between atoms: O_15  and  C_16
REMARK                            x       y       z     vdW  Elec       q    Type
REMARK                         _______ _______ _______ _____ _____    ______ ____
ROOT
ATOM      1  C   UNL     1       6.534   5.165  15.535  0.00  0.00    +0.000 A 
ATOM      2  C   UNL     1       7.432   4.813  16.552  0.00  0.00    +0.000 A 
ATOM      3  C   UNL     1       7.114   5.063  17.889  0.00  0.00    +0.000 A 
ATOM      4  C   UNL     1       5.883   5.629  18.220  0.00  0.00    +0.000 A 
ATOM      5  C   UNL     1       4.974   5.957  17.214  0.00  0.00    +0.000 A 
ATOM      6  C   UNL     1       5.323   5.785  15.870  0.00  0.00    +0.000 A 
ENDROOT
BRANCH   1   7
ATOM      7  C   UNL     1       6.873   4.811  14.129  0.00  0.00    +0.000 C 
ATOM      8  O   UNL     1       7.831   5.271  13.529  0.00  0.00    +0.000 OA
BRANCH   7  10
ATOM      9  C   UNL     1       6.315   3.397  12.348  0.00  0.00    +0.000 C 
ATOM     10  O   UNL     1       6.004   3.885  13.652  0.00  0.00    +0.000 OA
ENDBRANCH   7  10
ENDBRANCH   1   7
BRANCH   5  11
ATOM     11  O   UNL     1       3.762   6.471  17.619  0.00  0.00    +0.000 OA
BRANCH  11  12
ATOM     12  C   UNL     1       2.945   5.705  18.425  0.00  0.00    +0.000 A 
ATOM     13  C   UNL     1       2.668   5.995  19.762  0.00  0.00    +0.000 A 
ATOM     14  C   UNL     1       1.890   5.122  20.521  0.00  0.00    +0.000 A 
ATOM     15  C   UNL     1       1.312   3.998  19.933  0.00  0.00    +0.000 A 
ATOM     16  C   UNL     1       1.533   3.739  18.578  0.00  0.00    +0.000 A 
ATOM     17  C   UNL     1       2.349   4.593  17.827  0.00  0.00    +0.000 A 
BRANCH  15  18
ATOM     18  O   UNL     1       0.600   3.200  20.782  0.00  0.00    +0.000 OA
ATOM     19  C   UNL     1       1.374   2.496  21.745  0.00  0.00    +0.000 C 
ENDBRANCH  15  18
ENDBRANCH  11  12
ENDBRANCH   5  11
TORSDOF 5
ENDMDL
MODEL 2
REMARK VINA RESULT:      -6.7      1.682      2.454
REMARK  Name = 
REMARK  7 active torsions:
REMARK  status: ('A' for Active; 'I' for Inactive)
REMARK    1  A    between atoms: C_1  and  O_2
REMARK    2  A    between atoms: O_2  and  C_3
REMARK    3  A    between atoms: C_3  and  C_5
REMARK    4  A    between atoms: C_9  and  O_10
REMARK    5  A    between atoms: O_10  and  C_11
REMARK    6  A    between atoms: C_14  and  O_15
REMARK    7  A    between atoms: O_15  and  C_16
REMARK                            x       y       z     vdW  Elec       q    Type
REMARK                         _______ _______ _______ _____ _____    ______ ____
ROOT
ATOM      1  C   UNL     1       6.465   4.740  15.630  0.00  0.00    +0.000 A 
ATOM      2  C   UNL     1       7.451   4.772  16.626  0.00  0.00    +0.000 A 
ATOM      3  C   UNL     1       7.092   4.696  17.974  0.00  0.00    +0.000 A 
ATOM      4  C   UNL     1       5.752   4.548  18.333  0.00  0.00    +0.000 A 
ATOM      5  C   UNL     1       4.769   4.489  17.345  0.00  0.00    +0.000 A 
ATOM      6  C   UNL     1       5.117   4.649  15.999  0.00  0.00    +0.000 A 
ENDROOT
BRANCH   1   7
ATOM      7  C   UNL     1       6.892   4.743  14.204  0.00  0.00    +0.000 C 
ATOM      8  O   UNL     1       7.787   5.448  13.768  0.00  0.00    +0.000 OA
BRANCH   7  10
ATOM      9  C   UNL     1       6.670   3.592  12.176  0.00  0.00    +0.000 C 
ATOM     10  O   UNL     1       6.182   3.829  13.496  0.00  0.00    +0.000 OA
ENDBRANCH   7  10
ENDBRANCH   1   7
BRANCH   5  11
ATOM     11  O   UNL     1       3.474   4.297  17.772  0.00  0.00    +0.000 OA
BRANCH  11  12
ATOM     12  C   UNL     1       2.887   5.250  18.579  0.00  0.00    +0.000 A 
ATOM     13  C   UNL     1       2.791   6.604  18.251  0.00  0.00    +0.000 A 
ATOM     14  C   UNL     1       2.246   7.508  19.162  0.00  0.00    +0.000 A 
ATOM     15  C   UNL     1       1.715   7.059  20.371  0.00  0.00    +0.000 A 
ATOM     16  C   UNL     1       1.749   5.696  20.675  0.00  0.00    +0.000 A 
ATOM     17  C   UNL     1       2.335   4.794  19.777  0.00  0.00    +0.000 A 
BRANCH  15  18
ATOM     18  O   UNL     1       1.241   8.039  21.196  0.00  0.00    +0.000 OA
ATOM     19  C   UNL     1       1.010   9.297  20.575  0.00  0.00    +0.000 C 
ENDBRANCH  15  18
ENDBRANCH  11  12
ENDBRANCH   5  11
TORSDOF 5
ENDMDL
MODEL 3
REMARK VINA RESULT:      -6.6      0.428      1.182
REMARK  Name = 
REMARK  7 active torsions:
REMARK  status: ('A' for Active; 'I' for Inactive)
REMARK    1  A    between atoms: C_1  and  O_2
REMARK    2  A    between atoms: O_2  and  C_3
REMARK    3  A    between atoms: C_3  and  C_5
REMARK    4  A    between atoms: C_9  and  O_10
REMARK    5  A    between atoms: O_10  and  C_11
REMARK    6  A    between atoms: C_14  and  O_15
REMARK    7  A    between atoms: O_15  and  C_16
REMARK                            x       y       z     vdW  Elec       q    Type
REMARK                         _______ _______ _______ _____ _____    ______ ____
ROOT
ATOM      1  C   UNL     1       6.480   5.128  15.106  0.00  0.00    +0.000 A 
ATOM      2  C   UNL     1       7.516   4.974  16.037  0.00  0.00    +0.000 A 
ATOM      3  C   UNL     1       7.336   5.375  17.363  0.00  0.00    +0.000 A 
ATOM      4  C   UNL     1       6.109   5.894  17.775  0.00  0.00    +0.000 A 
ATOM      5  C   UNL     1       5.065   6.025  16.859  0.00  0.00    +0.000 A 
ATOM      6  C   UNL     1       5.269   5.703  15.512  0.00  0.00    +0.000 A 
ENDROOT
BRANCH   1   7
ATOM      7  C   UNL     1       6.683   4.617  13.722  0.00  0.00    +0.000 C 
ATOM      8  O   UNL     1       7.567   5.011  12.979  0.00  0.00    +0.000 OA
BRANCH   7  10
ATOM      9  C   UNL     1       5.822   3.166  12.098  0.00  0.00    +0.000 C 
ATOM     10  O   UNL     1       5.786   3.638  13.444  0.00  0.00    +0.000 OA
ENDBRANCH   7  10
ENDBRANCH   1   7
BRANCH   5  11
ATOM     11  O   UNL     1       3.869   6.503  17.347  0.00  0.00    +0.000 OA
BRANCH  11  12
ATOM     12  C   UNL     1       3.105   5.692  18.160  0.00  0.00    +0.000 A 
ATOM     13  C   UNL     1       2.477   4.522  17.732  0.00  0.00    +0.000 A 
ATOM     14  C   UNL     1       1.663   3.804  18.608  0.00  0.00    +0.000 A 
ATOM     15  C   UNL     1       1.536   4.200  19.939  0.00  0.00    +0.000 A 
ATOM     16  C   UNL     1       2.215   5.334  20.388  0.00  0.00    +0.000 A 
ATOM     17  C   UNL     1       2.999   6.078  19.498  0.00  0.00    +0.000 A 
BRANCH  15  18
ATOM     18  O   UNL     1       0.685   3.441  20.691  0.00  0.00    +0.000 OA
ATOM     19  C   UNL     1       1.308   2.618  21.669  0.00  0.00    +0.000 C 
ENDBRANCH  15  18
ENDBRANCH  11  12
ENDBRANCH   5  11
TORSDOF 5
ENDMDL
MODEL 4
REMARK VINA RESULT:      -6.6      2.861      4.281
REMARK  Name = 
REMARK  7 active torsions:
REMARK  status: ('A' for Active; 'I' for Inactive)
REMARK    1  A    between atoms: C_1  and  O_2
REMARK    2  A    between atoms: O_2  and  C_3
REMARK    3  A    between atoms: C_3  and  C_5
REMARK    4  A    between atoms: C_9  and  O_10
REMARK    5  A    between atoms: O_10  and  C_11
REMARK    6  A    between atoms: C_14  and  O_15
REMARK    7  A    between atoms: O_15  and  C_16
REMARK                            x       y       z     vdW  Elec       q    Type
REMARK                         _______ _______ _______ _____ _____    ______ ____
ROOT
ATOM      1  C   UNL     1       5.555   4.685  17.273  0.00  0.00    +0.000 A 
ATOM      2  C   UNL     1       4.705   3.746  16.672  0.00  0.00    +0.000 A 
ATOM      3  C   UNL     1       3.399   3.579  17.139  0.00  0.00    +0.000 A 
ATOM      4  C   UNL     1       2.923   4.375  18.181  0.00  0.00    +0.000 A 
ATOM      5  C   UNL     1       3.755   5.331  18.764  0.00  0.00    +0.000 A 
ATOM      6  C   UNL     1       5.089   5.442  18.355  0.00  0.00    +0.000 A 
ENDROOT
BRANCH   1   7
ATOM      7  C   UNL     1       6.912   4.889  16.697  0.00  0.00    +0.000 C 
ATOM      8  O   UNL     1       7.924   4.381  17.153  0.00  0.00    +0.000 OA
BRANCH   7  10
ATOM      9  C   UNL     1       7.046   4.967  14.360  0.00  0.00    +0.000 C 
ATOM     10  O   UNL     1       6.843   5.666  15.587  0.00  0.00    +0.000 OA
ENDBRANCH   7  10
ENDBRANCH   1   7
BRANCH   5  11
ATOM     11  O   UNL     1       3.203   6.110  19.756  0.00  0.00    +0.000 OA
BRANCH  11  12
ATOM     12  C   UNL     1       2.491   7.238  19.403  0.00  0.00    +0.000 A 
ATOM     13  C   UNL     1       2.458   7.773  18.114  0.00  0.00    +0.000 A 
ATOM     14  C   UNL     1       1.770   8.960  17.866  0.00  0.00    +0.000 A 
ATOM     15  C   UNL     1       1.040   9.578  18.880  0.00  0.00    +0.000 A 
ATOM     16  C   UNL     1       1.016   9.011  20.156  0.00  0.00    +0.000 A 
ATOM     17  C   UNL     1       1.742   7.842  20.415  0.00  0.00    +0.000 A 
BRANCH  15  18
ATOM     18  O   UNL     1       0.437  10.753  18.529  0.00  0.00    +0.000 OA
ATOM     19  C   UNL     1      -0.980  10.702  18.430  0.00  0.00    +0.000 C 
ENDBRANCH  15  18
ENDBRANCH  11  12
ENDBRANCH   5  11
TORSDOF 5
ENDMDL
MODEL 5
REMARK VINA RESULT:      -6.6      2.012      6.874
REMARK  Name = 
REMARK  7 active torsions:
REMARK  status: ('A' for Active; 'I' for Inactive)
REMARK    1  A    between atoms: C_1  and  O_2
REMARK    2  A    between atoms: O_2  and  C_3
REMARK    3  A    between atoms: C_3  and  C_5
REMARK    4  A    between atoms: C_9  and  O_10
REMARK    5  A    between atoms: O_10  and  C_11
REMARK    6  A    between atoms: C_14  and  O_15
REMARK    7  A    between atoms: O_15  and  C_16
REMARK                            x       y       z     vdW  Elec       q    Type
REMARK                         _______ _______ _______ _____ _____    ______ ____
ROOT
ATOM      1  C   UNL     1       2.183   5.956  20.115  0.00  0.00    +0.000 A 
ATOM      2  C   UNL     1       1.308   4.986  20.624  0.00  0.00    +0.000 A 
ATOM      3  C   UNL     1       1.692   3.644  20.666  0.00  0.00    +0.000 A 
ATOM      4  C   UNL     1       2.965   3.268  20.236  0.00  0.00    +0.000 A 
ATOM      5  C   UNL     1       3.850   4.232  19.753  0.00  0.00    +0.000 A 
ATOM      6  C   UNL     1       3.439   5.564  19.632  0.00  0.00    +0.000 A 
ENDROOT
BRANCH   1   7
ATOM      7  C   UNL     1       1.769   7.385  20.160  0.00  0.00    +0.000 C 
ATOM      8  O   UNL     1       1.258   7.910  21.136  0.00  0.00    +0.000 OA
BRANCH   7  10
ATOM      9  C   UNL     1       1.451   9.269  18.806  0.00  0.00    +0.000 C 
ATOM     10  O   UNL     1       2.087   8.006  18.997  0.00  0.00    +0.000 OA
ENDBRANCH   7  10
ENDBRANCH   1   7
BRANCH   5  11
ATOM     11  O   UNL     1       5.104   3.794  19.390  0.00  0.00    +0.000 OA
BRANCH  11  12
ATOM     12  C   UNL     1       5.635   4.206  18.185  0.00  0.00    +0.000 A 
ATOM     13  C   UNL     1       5.086   3.895  16.939  0.00  0.00    +0.000 A 
ATOM     14  C   UNL     1       5.733   4.294  15.770  0.00  0.00    +0.000 A 
ATOM     15  C   UNL     1       6.885   5.077  15.833  0.00  0.00    +0.000 A 
ATOM     16  C   UNL     1       7.402   5.445  17.077  0.00  0.00    +0.000 A 
ATOM     17  C   UNL     1       6.775   5.009  18.251  0.00  0.00    +0.000 A 
BRANCH  15  18
ATOM     18  O   UNL     1       7.450   5.376  14.625  0.00  0.00    +0.000 OA
ATOM     19  C   UNL     1       7.001   4.585  13.532  0.00  0.00    +0.000 C 
ENDBRANCH  15  18
ENDBRANCH  11  12
ENDBRANCH   5  11
TORSDOF 5
ENDMDL
MODEL 6
REMARK VINA RESULT:      -6.5      1.638      2.306
REMARK  Name = 
REMARK  7 active torsions:
REMARK  status: ('A' for Active; 'I' for Inactive)
REMARK    1  A    between atoms: C_1  and  O_2
REMARK    2  A    between atoms: O_2  and  C_3
REMARK    3  A    between atoms: C_3  and  C_5
REMARK    4  A    between atoms: C_9  and  O_10
REMARK    5  A    between atoms: O_10  and  C_11
REMARK    6  A    between atoms: C_14  and  O_15
REMARK    7  A    between atoms: O_15  and  C_16
REMARK                            x       y       z     vdW  Elec       q    Type
REMARK                         _______ _______ _______ _____ _____    ______ ____
ROOT
ATOM      1  C   UNL     1       6.456   4.709  15.702  0.00  0.00    +0.000 A 
ATOM      2  C   UNL     1       7.453   4.826  16.681  0.00  0.00    +0.000 A 
ATOM      3  C   UNL     1       7.125   4.727  18.035  0.00  0.00    +0.000 A 
ATOM      4  C   UNL     1       5.808   4.471  18.417  0.00  0.00    +0.000 A 
ATOM      5  C   UNL     1       4.816   4.327  17.447  0.00  0.00    +0.000 A 
ATOM      6  C   UNL     1       5.126   4.509  16.095  0.00  0.00    +0.000 A 
ENDROOT
BRANCH   1   7
ATOM      7  C   UNL     1       6.856   4.742  14.269  0.00  0.00    +0.000 C 
ATOM      8  O   UNL     1       7.813   5.372  13.848  0.00  0.00    +0.000 OA
BRANCH   7  10
ATOM      9  C   UNL     1       6.562   3.588  12.252  0.00  0.00    +0.000 C 
ATOM     10  O   UNL     1       6.043   3.944  13.533  0.00  0.00    +0.000 OA
ENDBRANCH   7  10
ENDBRANCH   1   7
BRANCH   5  11
ATOM     11  O   UNL     1       3.549   4.032  17.897  0.00  0.00    +0.000 OA
BRANCH  11  12
ATOM     12  C   UNL     1       2.930   4.899  18.774  0.00  0.00    +0.000 A 
ATOM     13  C   UNL     1       2.331   4.508  19.972  0.00  0.00    +0.000 A 
ATOM     14  C   UNL     1       1.663   5.445  20.760  0.00  0.00    +0.000 A 
ATOM     15  C   UNL     1       1.659   6.792  20.403  0.00  0.00    +0.000 A 
ATOM     16  C   UNL     1       2.312   7.199  19.238  0.00  0.00    +0.000 A 
ATOM     17  C   UNL     1       2.947   6.251  18.425  0.00  0.00    +0.000 A 
BRANCH  15  18
ATOM     18  O   UNL     1       0.944   7.610  21.231  0.00  0.00    +0.000 OA
ATOM     19  C   UNL     1       1.541   8.871  21.504  0.00  0.00    +0.000 C 
ENDBRANCH  15  18
ENDBRANCH  11  12
ENDBRANCH   5  11
TORSDOF 5
ENDMDL
MODEL 7
REMARK VINA RESULT:      -6.5      1.476      6.849
REMARK  Name = 
REMARK  7 active torsions:
REMARK  status: ('A' for Active; 'I' for Inactive)
REMARK    1  A    between atoms: C_1  and  O_2
REMARK    2  A    between atoms: O_2  and  C_3
REMARK    3  A    between atoms: C_3  and  C_5
REMARK    4  A    between atoms: C_9  and  O_10
REMARK    5  A    between atoms: O_10  and  C_11
REMARK    6  A    between atoms: C_14  and  O_15
REMARK    7  A    between atoms: O_15  and  C_16
REMARK                            x       y       z     vdW  Elec       q    Type
REMARK                         _______ _______ _______ _____ _____    ______ ____
ROOT
ATOM      1  C   UNL     1       2.675   4.497  20.169  0.00  0.00    +0.000 A 
ATOM      2  C   UNL     1       2.154   5.743  19.795  0.00  0.00    +0.000 A 
ATOM      3  C   UNL     1       2.905   6.610  18.999  0.00  0.00    +0.000 A 
ATOM      4  C   UNL     1       4.164   6.222  18.540  0.00  0.00    +0.000 A 
ATOM      5  C   UNL     1       4.678   4.973  18.887  0.00  0.00    +0.000 A 
ATOM      6  C   UNL     1       3.963   4.137  19.752  0.00  0.00    +0.000 A 
ENDROOT
BRANCH   1   7
ATOM      7  C   UNL     1       1.814   3.568  20.951  0.00  0.00    +0.000 C 
ATOM      8  O   UNL     1       2.101   3.155  22.063  0.00  0.00    +0.000 OA
BRANCH   7  10
ATOM      9  C   UNL     1       0.830   2.426  19.159  0.00  0.00    +0.000 C 
ATOM     10  O   UNL     1       0.670   3.301  20.275  0.00  0.00    +0.000 OA
ENDBRANCH   7  10
ENDBRANCH   1   7
BRANCH   5  11
ATOM     11  O   UNL     1       5.907   4.641  18.361  0.00  0.00    +0.000 OA
BRANCH  11  12
ATOM     12  C   UNL     1       6.039   4.521  16.993  0.00  0.00    +0.000 A 
ATOM     13  C   UNL     1       5.122   3.864  16.171  0.00  0.00    +0.000 A 
ATOM     14  C   UNL     1       5.376   3.728  14.807  0.00  0.00    +0.000 A 
ATOM     15  C   UNL     1       6.504   4.317  14.237  0.00  0.00    +0.000 A 
ATOM     16  C   UNL     1       7.391   5.031  15.044  0.00  0.00    +0.000 A 
ATOM     17  C   UNL     1       7.157   5.131  16.421  0.00  0.00    +0.000 A 
BRANCH  15  18
ATOM     18  O   UNL     1       6.666   4.086  12.900  0.00  0.00    +0.000 OA
ATOM     19  C   UNL     1       5.660   3.282  12.296  0.00  0.00    +0.000 C 
ENDBRANCH  15  18
ENDBRANCH  11  12
ENDBRANCH   5  11
TORSDOF 5
ENDMDL
MODEL 8
REMARK VINA RESULT:      -6.5      2.971      5.880
REMARK  Name = 
REMARK  7 active torsions:
REMARK  status: ('A' for Active; 'I' for Inactive)
REMARK    1  A    between atoms: C_1  and  O_2
REMARK    2  A    between atoms: O_2  and  C_3
REMARK    3  A    between atoms: C_3  and  C_5
REMARK    4  A    between atoms: C_9  and  O_10
REMARK    5  A    between atoms: O_10  and  C_11
REMARK    6  A    between atoms: C_14  and  O_15
REMARK    7  A    between atoms: O_15  and  C_16
REMARK                            x       y       z     vdW  Elec       q    Type
REMARK                         _______ _______ _______ _____ _____    ______ ____
ROOT
ATOM      1  C   UNL     1       2.000   3.624  18.282  0.00  0.00    +0.000 A 
ATOM      2  C   UNL     1       3.047   2.857  17.754  0.00  0.00    +0.000 A 
ATOM      3  C   UNL     1       4.163   3.481  17.191  0.00  0.00    +0.000 A 
ATOM      4  C   UNL     1       4.256   4.873  17.189  0.00  0.00    +0.000 A 
ATOM      5  C   UNL     1       3.230   5.641  17.738  0.00  0.00    +0.000 A 
ATOM      6  C   UNL     1       2.074   5.021  18.226  0.00  0.00    +0.000 A 
ENDROOT
BRANCH   1   7
ATOM      7  C   UNL     1       0.865   2.923  18.944  0.00  0.00    +0.000 C 
ATOM      8  O   UNL     1       0.247   2.004  18.431  0.00  0.00    +0.000 OA
BRANCH   7  10
ATOM      9  C   UNL     1       1.454   2.803  21.208  0.00  0.00    +0.000 C 
ATOM     10  O   UNL     1       0.665   3.419  20.190  0.00  0.00    +0.000 OA
ENDBRANCH   7  10
ENDBRANCH   1   7
BRANCH   5  11
ATOM     11  O   UNL     1       3.412   7.006  17.740  0.00  0.00    +0.000 OA
BRANCH  11  12
ATOM     12  C   UNL     1       2.528   7.799  18.442  0.00  0.00    +0.000 A 
ATOM     13  C   UNL     1       2.240   7.641  19.799  0.00  0.00    +0.000 A 
ATOM     14  C   UNL     1       1.276   8.443  20.409  0.00  0.00    +0.000 A 
ATOM     15  C   UNL     1       0.652   9.464  19.694  0.00  0.00    +0.000 A 
ATOM     16  C   UNL     1       0.985   9.669  18.353  0.00  0.00    +0.000 A 
ATOM     17  C   UNL     1       1.922   8.836  17.730  0.00  0.00    +0.000 A 
BRANCH  15  18
ATOM     18  O   UNL     1      -0.298  10.160  20.385  0.00  0.00    +0.000 OA
ATOM     19  C   UNL     1      -1.070  11.068  19.609  0.00  0.00    +0.000 C 
ENDBRANCH  15  18
ENDBRANCH  11  12
ENDBRANCH   5  11
TORSDOF 5
ENDMDL
MODEL 9
REMARK VINA RESULT:      -6.4      2.567      3.902
REMARK  Name = 
REMARK  7 active torsions:
REMARK  status: ('A' for Active; 'I' for Inactive)
REMARK    1  A    between atoms: C_1  and  O_2
REMARK    2  A    between atoms: O_2  and  C_3
REMARK    3  A    between atoms: C_3  and  C_5
REMARK    4  A    between atoms: C_9  and  O_10
REMARK    5  A    between atoms: O_10  and  C_11
REMARK    6  A    between atoms: C_14  and  O_15
REMARK    7  A    between atoms: O_15  and  C_16
REMARK                            x       y       z     vdW  Elec       q    Type
REMARK                         _______ _______ _______ _____ _____    ______ ____
ROOT
ATOM      1  C   UNL     1       6.683   5.901  17.308  0.00  0.00    +0.000 A 
ATOM      2  C   UNL     1       7.064   5.191  16.161  0.00  0.00    +0.000 A 
ATOM      3  C   UNL     1       6.148   4.359  15.512  0.00  0.00    +0.000 A 
ATOM      4  C   UNL     1       4.838   4.263  15.981  0.00  0.00    +0.000 A 
ATOM      5  C   UNL     1       4.445   4.989  17.105  0.00  0.00    +0.000 A 
ATOM      6  C   UNL     1       5.382   5.756  17.807  0.00  0.00    +0.000 A 
ENDROOT
BRANCH   1   7
ATOM      7  C   UNL     1       7.662   6.837  17.926  0.00  0.00    +0.000 C 
ATOM      8  O   UNL     1       8.275   6.593  18.953  0.00  0.00    +0.000 OA
BRANCH   7  10
ATOM      9  C   UNL     1       8.128   9.132  17.890  0.00  0.00    +0.000 C 
ATOM     10  O   UNL     1       7.800   7.949  17.162  0.00  0.00    +0.000 OA
ENDBRANCH   7  10
ENDBRANCH   1   7
BRANCH   5  11
ATOM     11  O   UNL     1       3.125   4.879  17.483  0.00  0.00    +0.000 OA
BRANCH  11  12
ATOM     12  C   UNL     1       2.624   5.750  18.427  0.00  0.00    +0.000 A 
ATOM     13  C   UNL     1       2.468   7.123  18.224  0.00  0.00    +0.000 A 
ATOM     14  C   UNL     1       2.022   7.938  19.263  0.00  0.00    +0.000 A 
ATOM     15  C   UNL     1       1.648   7.383  20.486  0.00  0.00    +0.000 A 
ATOM     16  C   UNL     1       1.741   6.002  20.673  0.00  0.00    +0.000 A 
ATOM     17  C   UNL     1       2.229   5.189  19.643  0.00  0.00    +0.000 A 
BRANCH  15  18
ATOM     18  O   UNL     1       1.261   8.283  21.438  0.00  0.00    +0.000 OA
ATOM     19  C   UNL     1       0.339   9.273  20.999  0.00  0.00    +0.000 C 
ENDBRANCH  15  18
ENDBRANCH  11  12
ENDBRANCH   5  11
TORSDOF 5
ENDMDL
