MODEL 1
REMARK VINA RESULT:      -6.4      0.000      0.000
REMARK  Name = 
REMARK  11 active torsions:
REMARK  status: ('A' for Active; 'I' for Inactive)
REMARK    1  A    between atoms: C_1  and  C_2
REMARK    2  A    between atoms: C_2  and  C_3
REMARK    3  A    between atoms: C_3  and  C_4
REMARK    4  A    between atoms: C_4  and  C_5
REMARK    5  A    between atoms: C_5  and  C_6
REMARK    6  A    between atoms: C_6  and  O_7
REMARK    7  A    between atoms: O_7  and  C_8
REMARK    8  A    between atoms: N_17  and  C_18
REMARK    9  A    between atoms: C_18  and  C_19
REMARK   10  A    between atoms: C_24  and  O_25
REMARK   11  A    between atoms: O_25  and  C_26
REMARK                            x       y       z     vdW  Elec       q    Type
REMARK                         _______ _______ _______ _____ _____    ______ ____
ROOT
ATOM      1  C   UNL     1       2.746   6.770  18.691  0.00  0.00    +0.000 A 
ATOM      2  C   UNL     1       1.833   6.646  19.770  0.00  0.00    +0.000 A 
ATOM      3  C   UNL     1       2.105   5.898  20.879  0.00  0.00    +0.000 A 
ATOM      4  C   UNL     1       3.173   4.995  20.888  0.00  0.00    +0.000 A 
ATOM      5  C   UNL     1       3.994   4.958  19.739  0.00  0.00    +0.000 A 
ATOM      6  C   UNL     1       3.936   5.991  18.739  0.00  0.00    +0.000 A 
ATOM      7  C   UNL     1       5.107   6.021  17.614  0.00  0.00    +0.000 C 
ATOM      8  C   UNL     1       4.394   5.671  16.248  0.00  0.00    +0.000 C 
ATOM      9  C   UNL     1       4.054   4.138  16.090  0.00  0.00    +0.000 C 
ATOM     10  N   UNL     1       4.111   3.395  17.340  0.00  0.00    +0.000 NA
ATOM     11  C   UNL     1       5.303   3.568  18.173  0.00  0.00    +0.000 C 
ATOM     12  C   UNL     1       4.811   3.652  19.620  0.00  0.00    +0.000 C 
ATOM     13  C   UNL     1       6.054   4.873  17.965  0.00  0.00    +0.000 C 
ATOM     14  C   UNL     1       6.665   5.414  19.349  0.00  0.00    +0.000 C 
ATOM     15  C   UNL     1       8.086   5.696  19.113  0.00  0.00    +0.000 C 
ATOM     16  C   UNL     1       7.769   7.034  18.507  0.00  0.00    +0.000 C 
ATOM     17  O   UNL     1       8.561   7.994  18.708  0.00  0.00    +0.000 OA
ATOM     18  C   UNL     1       6.287   7.277  17.648  0.00  0.00    +0.000 C 
ENDROOT
BRANCH  13  19
ATOM     19  O   UNL     1       7.148   4.780  16.999  0.00  0.00    +0.000 OA
ATOM     20  C   UNL     1       7.133   4.149  15.742  0.00  0.00    +0.000 C 
ENDBRANCH  13  19
BRANCH   1  21
ATOM     21  O   UNL     1       2.419   7.470  17.560  0.00  0.00    +0.000 OA
BRANCH  21  22
ATOM     22  C   UNL     1       2.396   8.907  17.681  0.00  0.00    +0.000 C 
BRANCH  22  23
ATOM     23  C   UNL     1       0.990   9.427  17.959  0.00  0.00    +0.000 C 
BRANCH  23  24
ATOM     24  C   UNL     1       0.969  10.209  19.276  0.00  0.00    +0.000 C 
BRANCH  24  25
ATOM     25  C   UNL     1      -0.357  10.053  20.015  0.00  0.00    +0.000 C 
BRANCH  25  27
ATOM     26  C   UNL     1       1.041   9.451  22.021  0.00  0.00    +0.000 C 
ATOM     27  C   UNL     1      -0.217   9.132  21.229  0.00  0.00    +0.000 C 
ENDBRANCH  25  27
ENDBRANCH  24  25
ENDBRANCH  23  24
ENDBRANCH  22  23
ENDBRANCH  21  22
ENDBRANCH   1  21
BRANCH  10  28
ATOM     28  C   UNL     1       3.443   2.121  17.469  0.00  0.00    +0.000 C 
BRANCH  28  29
ATOM     29  C   UNL     1       1.965   2.184  17.619  0.00  0.00    +0.000 C 
ATOM     30  C   UNL     1       1.324   2.370  18.975  0.00  0.00    +0.000 C 
ATOM     31  C   UNL     1       1.413   3.528  17.998  0.00  0.00    +0.000 C 
ENDBRANCH  28  29
ENDBRANCH  10  28
TORSDOF 9
ENDMDL
MODEL 2
REMARK VINA RESULT:      -6.2      0.761      1.253
REMARK  Name = 
REMARK  11 active torsions:
REMARK  status: ('A' for Active; 'I' for Inactive)
REMARK    1  A    between atoms: C_1  and  C_2
REMARK    2  A    between atoms: C_2  and  C_3
REMARK    3  A    between atoms: C_3  and  C_4
REMARK    4  A    between atoms: C_4  and  C_5
REMARK    5  A    between atoms: C_5  and  C_6
REMARK    6  A    between atoms: C_6  and  O_7
REMARK    7  A    between atoms: O_7  and  C_8
REMARK    8  A    between atoms: N_17  and  C_18
REMARK    9  A    between atoms: C_18  and  C_19
REMARK   10  A    between atoms: C_24  and  O_25
REMARK   11  A    between atoms: O_25  and  C_26
REMARK                            x       y       z     vdW  Elec       q    Type
REMARK                         _______ _______ _______ _____ _____    ______ ____
ROOT
ATOM      1  C   UNL     1       2.719   6.727  18.761  0.00  0.00    +0.000 A 
ATOM      2  C   UNL     1       1.821   6.594  19.852  0.00  0.00    +0.000 A 
ATOM      3  C   UNL     1       2.111   5.838  20.951  0.00  0.00    +0.000 A 
ATOM      4  C   UNL     1       3.180   4.938  20.939  0.00  0.00    +0.000 A 
ATOM      5  C   UNL     1       3.986   4.911  19.778  0.00  0.00    +0.000 A 
ATOM      6  C   UNL     1       3.912   5.951  18.787  0.00  0.00    +0.000 A 
ATOM      7  C   UNL     1       5.067   5.992  17.646  0.00  0.00    +0.000 C 
ATOM      8  C   UNL     1       4.335   5.650  16.288  0.00  0.00    +0.000 C 
ATOM      9  C   UNL     1       3.996   4.117  16.122  0.00  0.00    +0.000 C 
ATOM     10  N   UNL     1       4.073   3.365  17.367  0.00  0.00    +0.000 NA
ATOM     11  C   UNL     1       5.275   3.535  18.184  0.00  0.00    +0.000 C 
ATOM     12  C   UNL     1       4.804   3.607  19.639  0.00  0.00    +0.000 C 
ATOM     13  C   UNL     1       6.021   4.843  17.975  0.00  0.00    +0.000 C 
ATOM     14  C   UNL     1       6.650   5.375  19.354  0.00  0.00    +0.000 C 
ATOM     15  C   UNL     1       8.067   5.662  19.101  0.00  0.00    +0.000 C 
ATOM     16  C   UNL     1       7.739   7.004  18.509  0.00  0.00    +0.000 C 
ATOM     17  O   UNL     1       8.531   7.964  18.706  0.00  0.00    +0.000 OA
ATOM     18  C   UNL     1       6.244   7.250  17.672  0.00  0.00    +0.000 C 
ENDROOT
BRANCH  13  19
ATOM     19  O   UNL     1       7.102   4.760  16.993  0.00  0.00    +0.000 OA
ATOM     20  C   UNL     1       7.095   4.076  15.764  0.00  0.00    +0.000 C 
ENDBRANCH  13  19
BRANCH   1  21
ATOM     21  O   UNL     1       2.375   7.435  17.639  0.00  0.00    +0.000 OA
BRANCH  21  22
ATOM     22  C   UNL     1       2.388   8.873  17.761  0.00  0.00    +0.000 C 
BRANCH  22  23
ATOM     23  C   UNL     1       0.977   9.449  17.780  0.00  0.00    +0.000 C 
BRANCH  23  24
ATOM     24  C   UNL     1       0.651   9.994  19.175  0.00  0.00    +0.000 C 
BRANCH  24  25
ATOM     25  C   UNL     1      -0.834  10.303  19.337  0.00  0.00    +0.000 C 
BRANCH  25  27
ATOM     26  C   UNL     1      -2.187  11.574  17.636  0.00  0.00    +0.000 C 
ATOM     27  C   UNL     1      -1.571  10.232  17.999  0.00  0.00    +0.000 C 
ENDBRANCH  25  27
ENDBRANCH  24  25
ENDBRANCH  23  24
ENDBRANCH  22  23
ENDBRANCH  21  22
ENDBRANCH   1  21
BRANCH  10  28
ATOM     28  C   UNL     1       3.409   2.089  17.496  0.00  0.00    +0.000 C 
BRANCH  28  29
ATOM     29  C   UNL     1       1.932   2.147  17.662  0.00  0.00    +0.000 C 
ATOM     30  C   UNL     1       1.306   2.328  19.026  0.00  0.00    +0.000 C 
ATOM     31  C   UNL     1       1.382   3.489  18.051  0.00  0.00    +0.000 C 
ENDBRANCH  28  29
ENDBRANCH  10  28
TORSDOF 9
ENDMDL
MODEL 3
REMARK VINA RESULT:      -6.2      8.426     12.720
REMARK  Name = 
REMARK  11 active torsions:
REMARK  status: ('A' for Active; 'I' for Inactive)
REMARK    1  A    between atoms: C_1  and  C_2
REMARK    2  A    between atoms: C_2  and  C_3
REMARK    3  A    between atoms: C_3  and  C_4
REMARK    4  A    between atoms: C_4  and  C_5
REMARK    5  A    between atoms: C_5  and  C_6
REMARK    6  A    between atoms: C_6  and  O_7
REMARK    7  A    between atoms: O_7  and  C_8
REMARK    8  A    between atoms: N_17  and  C_18
REMARK    9  A    between atoms: C_18  and  C_19
REMARK   10  A    between atoms: C_24  and  O_25
REMARK   11  A    between atoms: O_25  and  C_26
REMARK                            x       y       z     vdW  Elec       q    Type
REMARK                         _______ _______ _______ _____ _____    ______ ____
ROOT
ATOM      1  C   UNL     1      -1.889  12.936  21.197  0.00  0.00    +0.000 A 
ATOM      2  C   UNL     1      -0.979  12.182  21.983  0.00  0.00    +0.000 A 
ATOM      3  C   UNL     1      -1.374  11.464  23.075  0.00  0.00    +0.000 A 
ATOM      4  C   UNL     1      -2.639  11.655  23.637  0.00  0.00    +0.000 A 
ATOM      5  C   UNL     1      -3.507  12.555  22.978  0.00  0.00    +0.000 A 
ATOM      6  C   UNL     1      -3.238  13.019  21.644  0.00  0.00    +0.000 A 
ATOM      7  C   UNL     1      -4.423  13.810  20.864  0.00  0.00    +0.000 C 
ATOM      8  C   UNL     1      -3.909  15.295  20.703  0.00  0.00    +0.000 C 
ATOM      9  C   UNL     1      -3.996  16.140  22.033  0.00  0.00    +0.000 C 
ATOM     10  N   UNL     1      -4.174  15.330  23.229  0.00  0.00    +0.000 NA
ATOM     11  C   UNL     1      -5.226  14.313  23.203  0.00  0.00    +0.000 C 
ATOM     12  C   UNL     1      -4.646  13.072  23.886  0.00  0.00    +0.000 C 
ATOM     13  C   UNL     1      -5.617  13.821  21.819  0.00  0.00    +0.000 C 
ATOM     14  C   UNL     1      -5.981  12.256  21.846  0.00  0.00    +0.000 C 
ATOM     15  C   UNL     1      -7.289  12.105  21.196  0.00  0.00    +0.000 C 
ATOM     16  C   UNL     1      -6.666  12.134  19.828  0.00  0.00    +0.000 C 
ATOM     17  O   UNL     1      -7.163  11.417  18.919  0.00  0.00    +0.000 OA
ATOM     18  C   UNL     1      -5.225  13.050  19.542  0.00  0.00    +0.000 C 
ENDROOT
BRANCH  13  19
ATOM     19  O   UNL     1      -6.752  14.534  21.235  0.00  0.00    +0.000 OA
ATOM     20  C   UNL     1      -7.548  15.523  21.839  0.00  0.00    +0.000 C 
ENDBRANCH  13  19
BRANCH   1  21
ATOM     21  O   UNL     1      -1.456  13.704  20.148  0.00  0.00    +0.000 OA
BRANCH  21  22
ATOM     22  C   UNL     1      -0.501  13.091  19.258  0.00  0.00    +0.000 C 
BRANCH  22  23
ATOM     23  C   UNL     1      -1.190  12.357  18.112  0.00  0.00    +0.000 C 
BRANCH  23  24
ATOM     24  C   UNL     1      -1.249  10.855  18.412  0.00  0.00    +0.000 C 
BRANCH  24  25
ATOM     25  C   UNL     1      -1.921  10.072  17.287  0.00  0.00    +0.000 C 
BRANCH  25  27
ATOM     26  C   UNL     1      -4.156  10.979  16.568  0.00  0.00    +0.000 C 
ATOM     27  C   UNL     1      -3.436  10.000  17.482  0.00  0.00    +0.000 C 
ENDBRANCH  25  27
ENDBRANCH  24  25
ENDBRANCH  23  24
ENDBRANCH  22  23
ENDBRANCH  21  22
ENDBRANCH   1  21
BRANCH  10  28
ATOM     28  C   UNL     1      -3.859  15.866  24.532  0.00  0.00    +0.000 C 
BRANCH  28  29
ATOM     29  C   UNL     1      -2.427  16.193  24.764  0.00  0.00    +0.000 C 
ATOM     30  C   UNL     1      -1.679  15.629  25.950  0.00  0.00    +0.000 C 
ATOM     31  C   UNL     1      -1.467  15.056  24.561  0.00  0.00    +0.000 C 
ENDBRANCH  28  29
ENDBRANCH  10  28
TORSDOF 9
ENDMDL
MODEL 4
REMARK VINA RESULT:      -6.2      2.895      6.710
REMARK  Name = 
REMARK  11 active torsions:
REMARK  status: ('A' for Active; 'I' for Inactive)
REMARK    1  A    between atoms: C_1  and  C_2
REMARK    2  A    between atoms: C_2  and  C_3
REMARK    3  A    between atoms: C_3  and  C_4
REMARK    4  A    between atoms: C_4  and  C_5
REMARK    5  A    between atoms: C_5  and  C_6
REMARK    6  A    between atoms: C_6  and  O_7
REMARK    7  A    between atoms: O_7  and  C_8
REMARK    8  A    between atoms: N_17  and  C_18
REMARK    9  A    between atoms: C_18  and  C_19
REMARK   10  A    between atoms: C_24  and  O_25
REMARK   11  A    between atoms: O_25  and  C_26
REMARK                            x       y       z     vdW  Elec       q    Type
REMARK                         _______ _______ _______ _____ _____    ______ ____
ROOT
ATOM      1  C   UNL     1       5.430   4.703  16.111  0.00  0.00    +0.000 A 
ATOM      2  C   UNL     1       6.517   5.598  15.937  0.00  0.00    +0.000 A 
ATOM      3  C   UNL     1       7.192   6.144  16.991  0.00  0.00    +0.000 A 
ATOM      4  C   UNL     1       6.676   6.070  18.287  0.00  0.00    +0.000 A 
ATOM      5  C   UNL     1       5.478   5.340  18.463  0.00  0.00    +0.000 A 
ATOM      6  C   UNL     1       4.975   4.464  17.439  0.00  0.00    +0.000 A 
ATOM      7  C   UNL     1       3.766   3.454  17.834  0.00  0.00    +0.000 C 
ATOM      8  C   UNL     1       2.512   3.947  17.010  0.00  0.00    +0.000 C 
ATOM      9  C   UNL     1       1.840   5.247  17.602  0.00  0.00    +0.000 C 
ATOM     10  N   UNL     1       2.682   5.959  18.552  0.00  0.00    +0.000 NA
ATOM     11  C   UNL     1       3.304   5.176  19.620  0.00  0.00    +0.000 C 
ATOM     12  C   UNL     1       4.734   5.702  19.767  0.00  0.00    +0.000 C 
ATOM     13  C   UNL     1       3.486   3.697  19.318  0.00  0.00    +0.000 C 
ATOM     14  C   UNL     1       4.847   3.140  19.964  0.00  0.00    +0.000 C 
ATOM     15  C   UNL     1       4.502   1.936  20.730  0.00  0.00    +0.000 C 
ATOM     16  C   UNL     1       4.516   1.086  19.490  0.00  0.00    +0.000 C 
ATOM     17  O   UNL     1       4.931  -0.101  19.573  0.00  0.00    +0.000 OA
ATOM     18  C   UNL     1       4.078   1.763  17.959  0.00  0.00    +0.000 C 
ENDROOT
BRANCH  13  19
ATOM     19  O   UNL     1       2.389   2.855  19.791  0.00  0.00    +0.000 OA
ATOM     20  C   UNL     1       1.259   3.250  20.528  0.00  0.00    +0.000 C 
ENDBRANCH  13  19
BRANCH   1  21
ATOM     21  O   UNL     1       4.724   4.224  15.039  0.00  0.00    +0.000 OA
BRANCH  21  22
ATOM     22  C   UNL     1       5.254   4.537  13.733  0.00  0.00    +0.000 C 
BRANCH  22  23
ATOM     23  C   UNL     1       6.013   3.357  13.136  0.00  0.00    +0.000 C 
BRANCH  23  24
ATOM     24  C   UNL     1       5.296   2.855  11.879  0.00  0.00    +0.000 C 
BRANCH  24  25
ATOM     25  C   UNL     1       4.320   3.888  11.323  0.00  0.00    +0.000 C 
BRANCH  25  27
ATOM     26  C   UNL     1       2.758   4.248   9.381  0.00  0.00    +0.000 C 
ATOM     27  C   UNL     1       3.292   3.244  10.391  0.00  0.00    +0.000 C 
ENDBRANCH  25  27
ENDBRANCH  24  25
ENDBRANCH  23  24
ENDBRANCH  22  23
ENDBRANCH  21  22
ENDBRANCH   1  21
BRANCH  10  28
ATOM     28  C   UNL     1       2.426   7.345  18.865  0.00  0.00    +0.000 C 
BRANCH  28  29
ATOM     29  C   UNL     1       2.030   8.201  17.716  0.00  0.00    +0.000 C 
ATOM     30  C   UNL     1       0.850   9.142  17.813  0.00  0.00    +0.000 C 
ATOM     31  C   UNL     1       2.270   9.673  17.899  0.00  0.00    +0.000 C 
ENDBRANCH  28  29
ENDBRANCH  10  28
TORSDOF 9
ENDMDL
MODEL 5
REMARK VINA RESULT:      -6.0      4.304      9.267
REMARK  Name = 
REMARK  11 active torsions:
REMARK  status: ('A' for Active; 'I' for Inactive)
REMARK    1  A    between atoms: C_1  and  C_2
REMARK    2  A    between atoms: C_2  and  C_3
REMARK    3  A    between atoms: C_3  and  C_4
REMARK    4  A    between atoms: C_4  and  C_5
REMARK    5  A    between atoms: C_5  and  C_6
REMARK    6  A    between atoms: C_6  and  O_7
REMARK    7  A    between atoms: O_7  and  C_8
REMARK    8  A    between atoms: N_17  and  C_18
REMARK    9  A    between atoms: C_18  and  C_19
REMARK   10  A    between atoms: C_24  and  O_25
REMARK   11  A    between atoms: O_25  and  C_26
REMARK                            x       y       z     vdW  Elec       q    Type
REMARK                         _______ _______ _______ _____ _____    ______ ____
ROOT
ATOM      1  C   UNL     1      -0.258  10.235  18.291  0.00  0.00    +0.000 A 
ATOM      2  C   UNL     1      -1.366   9.785  17.528  0.00  0.00    +0.000 A 
ATOM      3  C   UNL     1      -2.401  10.605  17.183  0.00  0.00    +0.000 A 
ATOM      4  C   UNL     1      -2.560  11.851  17.796  0.00  0.00    +0.000 A 
ATOM      5  C   UNL     1      -1.563  12.249  18.716  0.00  0.00    +0.000 A 
ATOM      6  C   UNL     1      -0.301  11.565  18.798  0.00  0.00    +0.000 A 
ATOM      7  C   UNL     1       0.883  12.262  19.665  0.00  0.00    +0.000 C 
ATOM      8  C   UNL     1       1.115  11.314  20.908  0.00  0.00    +0.000 C 
ATOM      9  C   UNL     1      -0.001  11.444  22.017  0.00  0.00    +0.000 C 
ATOM     10  N   UNL     1      -1.208  12.113  21.555  0.00  0.00    +0.000 NA
ATOM     11  C   UNL     1      -1.046  13.383  20.846  0.00  0.00    +0.000 C 
ATOM     12  C   UNL     1      -2.037  13.358  19.680  0.00  0.00    +0.000 C 
ATOM     13  C   UNL     1       0.304  13.583  20.176  0.00  0.00    +0.000 C 
ATOM     14  C   UNL     1       0.147  14.384  18.792  0.00  0.00    +0.000 C 
ATOM     15  C   UNL     1       1.101  15.500  18.828  0.00  0.00    +0.000 C 
ATOM     16  C   UNL     1       2.235  14.607  18.406  0.00  0.00    +0.000 C 
ATOM     17  O   UNL     1       3.128  15.076  17.652  0.00  0.00    +0.000 OA
ATOM     18  C   UNL     1       2.247  12.936  18.856  0.00  0.00    +0.000 C 
ENDROOT
BRANCH  13  19
ATOM     19  O   UNL     1       1.276  14.299  21.000  0.00  0.00    +0.000 OA
ATOM     20  C   UNL     1       1.035  15.011  22.188  0.00  0.00    +0.000 C 
ENDBRANCH  13  19
BRANCH   1  21
ATOM     21  O   UNL     1       0.733   9.374  18.683  0.00  0.00    +0.000 OA
BRANCH  21  22
ATOM     22  C   UNL     1       1.649   8.944  17.655  0.00  0.00    +0.000 C 
BRANCH  22  23
ATOM     23  C   UNL     1       2.756   8.060  18.220  0.00  0.00    +0.000 C 
BRANCH  23  24
ATOM     24  C   UNL     1       2.226   7.250  19.408  0.00  0.00    +0.000 C 
BRANCH  24  25
ATOM     25  C   UNL     1       2.458   5.752  19.230  0.00  0.00    +0.000 C 
BRANCH  25  27
ATOM     26  C   UNL     1       1.004   4.030  20.351  0.00  0.00    +0.000 C 
ATOM     27  C   UNL     1       2.175   4.984  20.522  0.00  0.00    +0.000 C 
ENDBRANCH  25  27
ENDBRANCH  24  25
ENDBRANCH  23  24
ENDBRANCH  22  23
ENDBRANCH  21  22
ENDBRANCH   1  21
BRANCH  10  28
ATOM     28  C   UNL     1      -2.454  11.954  22.268  0.00  0.00    +0.000 C 
BRANCH  28  29
ATOM     29  C   UNL     1      -2.736  12.981  23.306  0.00  0.00    +0.000 C 
ATOM     30  C   UNL     1      -3.969  13.852  23.228  0.00  0.00    +0.000 C 
ATOM     31  C   UNL     1      -3.908  12.687  24.198  0.00  0.00    +0.000 C 
ENDBRANCH  28  29
ENDBRANCH  10  28
TORSDOF 9
ENDMDL
MODEL 6
REMARK VINA RESULT:      -5.8      7.396     10.988
REMARK  Name = 
REMARK  11 active torsions:
REMARK  status: ('A' for Active; 'I' for Inactive)
REMARK    1  A    between atoms: C_1  and  C_2
REMARK    2  A    between atoms: C_2  and  C_3
REMARK    3  A    between atoms: C_3  and  C_4
REMARK    4  A    between atoms: C_4  and  C_5
REMARK    5  A    between atoms: C_5  and  C_6
REMARK    6  A    between atoms: C_6  and  O_7
REMARK    7  A    between atoms: O_7  and  C_8
REMARK    8  A    between atoms: N_17  and  C_18
REMARK    9  A    between atoms: C_18  and  C_19
REMARK   10  A    between atoms: C_24  and  O_25
REMARK   11  A    between atoms: O_25  and  C_26
REMARK                            x       y       z     vdW  Elec       q    Type
REMARK                         _______ _______ _______ _____ _____    ______ ____
ROOT
ATOM      1  C   UNL     1      -1.801  11.424  19.257  0.00  0.00    +0.000 A 
ATOM      2  C   UNL     1      -0.949  10.299  19.114  0.00  0.00    +0.000 A 
ATOM      3  C   UNL     1      -0.360   9.686  20.182  0.00  0.00    +0.000 A 
ATOM      4  C   UNL     1      -0.342  10.298  21.438  0.00  0.00    +0.000 A 
ATOM      5  C   UNL     1      -1.026  11.528  21.565  0.00  0.00    +0.000 A 
ATOM      6  C   UNL     1      -1.947  11.983  20.558  0.00  0.00    +0.000 A 
ATOM      7  C   UNL     1      -2.898  13.249  20.919  0.00  0.00    +0.000 C 
ATOM      8  C   UNL     1      -2.420  14.423  19.976  0.00  0.00    +0.000 C 
ATOM      9  C   UNL     1      -1.069  15.095  20.440  0.00  0.00    +0.000 C 
ATOM     10  N   UNL     1      -0.325  14.302  21.407  0.00  0.00    +0.000 NA
ATOM     11  C   UNL     1      -1.060  13.786  22.563  0.00  0.00    +0.000 C 
ATOM     12  C   UNL     1      -0.567  12.354  22.787  0.00  0.00    +0.000 C 
ATOM     13  C   UNL     1      -2.559  13.630  22.361  0.00  0.00    +0.000 C 
ATOM     14  C   UNL     1      -3.114  12.338  23.139  0.00  0.00    +0.000 C 
ATOM     15  C   UNL     1      -4.260  12.778  23.944  0.00  0.00    +0.000 C 
ATOM     16  C   UNL     1      -5.183  12.700  22.761  0.00  0.00    +0.000 C 
ATOM     17  O   UNL     1      -6.374  12.331  22.943  0.00  0.00    +0.000 OA
ATOM     18  C   UNL     1      -4.586  13.003  21.164  0.00  0.00    +0.000 C 
ENDROOT
BRANCH  13  19
ATOM     19  O   UNL     1      -3.340  14.785  22.798  0.00  0.00    +0.000 OA
ATOM     20  C   UNL     1      -2.872  15.946  23.439  0.00  0.00    +0.000 C 
ENDBRANCH  13  19
BRANCH   1  21
ATOM     21  O   UNL     1      -2.324  12.065  18.164  0.00  0.00    +0.000 OA
BRANCH  21  22
ATOM     22  C   UNL     1      -2.573  11.246  17.002  0.00  0.00    +0.000 C 
BRANCH  22  23
ATOM     23  C   UNL     1      -4.023  11.349  16.541  0.00  0.00    +0.000 C 
BRANCH  23  24
ATOM     24  C   UNL     1      -4.967  11.150  17.731  0.00  0.00    +0.000 C 
BRANCH  24  25
ATOM     25  C   UNL     1      -6.206  12.036  17.634  0.00  0.00    +0.000 C 
BRANCH  25  27
ATOM     26  C   UNL     1      -6.909  10.478  19.483  0.00  0.00    +0.000 C 
ATOM     27  C   UNL     1      -7.134  11.834  18.833  0.00  0.00    +0.000 C 
ENDBRANCH  25  27
ENDBRANCH  24  25
ENDBRANCH  23  24
ENDBRANCH  22  23
ENDBRANCH  21  22
ENDBRANCH   1  21
BRANCH  10  28
ATOM     28  C   UNL     1       1.084  14.536  21.620  0.00  0.00    +0.000 C 
BRANCH  28  29
ATOM     29  C   UNL     1       2.004  13.641  20.871  0.00  0.00    +0.000 C 
ATOM     30  C   UNL     1       1.609  13.057  19.533  0.00  0.00    +0.000 C 
ATOM     31  C   UNL     1       2.580  14.221  19.611  0.00  0.00    +0.000 C 
ENDBRANCH  28  29
ENDBRANCH  10  28
TORSDOF 9
ENDMDL
MODEL 7
REMARK VINA RESULT:      -5.8      7.132     11.000
REMARK  Name = 
REMARK  11 active torsions:
REMARK  status: ('A' for Active; 'I' for Inactive)
REMARK    1  A    between atoms: C_1  and  C_2
REMARK    2  A    between atoms: C_2  and  C_3
REMARK    3  A    between atoms: C_3  and  C_4
REMARK    4  A    between atoms: C_4  and  C_5
REMARK    5  A    between atoms: C_5  and  C_6
REMARK    6  A    between atoms: C_6  and  O_7
REMARK    7  A    between atoms: O_7  and  C_8
REMARK    8  A    between atoms: N_17  and  C_18
REMARK    9  A    between atoms: C_18  and  C_19
REMARK   10  A    between atoms: C_24  and  O_25
REMARK   11  A    between atoms: O_25  and  C_26
REMARK                            x       y       z     vdW  Elec       q    Type
REMARK                         _______ _______ _______ _____ _____    ______ ____
ROOT
ATOM      1  C   UNL     1      -0.860  10.843  19.858  0.00  0.00    +0.000 A 
ATOM      2  C   UNL     1      -0.030   9.826  20.395  0.00  0.00    +0.000 A 
ATOM      3  C   UNL     1       0.073   9.596  21.737  0.00  0.00    +0.000 A 
ATOM      4  C   UNL     1      -0.414  10.524  22.661  0.00  0.00    +0.000 A 
ATOM      5  C   UNL     1      -1.083  11.657  22.144  0.00  0.00    +0.000 A 
ATOM      6  C   UNL     1      -1.515  11.714  20.774  0.00  0.00    +0.000 A 
ATOM      7  C   UNL     1      -2.523  12.915  20.347  0.00  0.00    +0.000 C 
ATOM      8  C   UNL     1      -1.696  13.835  19.364  0.00  0.00    +0.000 C 
ATOM      9  C   UNL     1      -0.644  14.755  20.096  0.00  0.00    +0.000 C 
ATOM     10  N   UNL     1      -0.360  14.344  21.463  0.00  0.00    +0.000 NA
ATOM     11  C   UNL     1      -1.502  14.082  22.339  0.00  0.00    +0.000 C 
ATOM     12  C   UNL     1      -1.151  12.830  23.147  0.00  0.00    +0.000 C 
ATOM     13  C   UNL     1      -2.792  13.709  21.627  0.00  0.00    +0.000 C 
ATOM     14  C   UNL     1      -3.623  12.623  22.471  0.00  0.00    +0.000 C 
ATOM     15  C   UNL     1      -4.994  13.132  22.600  0.00  0.00    +0.000 C 
ATOM     16  C   UNL     1      -5.360  12.632  21.231  0.00  0.00    +0.000 C 
ATOM     17  O   UNL     1      -6.526  12.194  21.036  0.00  0.00    +0.000 OA
ATOM     18  C   UNL     1      -4.167  12.555  19.979  0.00  0.00    +0.000 C 
ENDROOT
BRANCH  13  19
ATOM     19  O   UNL     1      -3.676  14.844  21.365  0.00  0.00    +0.000 OA
ATOM     20  C   UNL     1      -3.500  16.180  21.766  0.00  0.00    +0.000 C 
ENDBRANCH  13  19
BRANCH   1  21
ATOM     21  O   UNL     1      -0.891  11.099  18.512  0.00  0.00    +0.000 OA
BRANCH  21  22
ATOM     22  C   UNL     1      -1.288  10.003  17.662  0.00  0.00    +0.000 C 
BRANCH  22  23
ATOM     23  C   UNL     1      -2.788   9.741  17.743  0.00  0.00    +0.000 C 
BRANCH  23  24
ATOM     24  C   UNL     1      -3.543  10.743  16.864  0.00  0.00    +0.000 C 
BRANCH  24  25
ATOM     25  C   UNL     1      -2.814  11.020  15.552  0.00  0.00    +0.000 C 
BRANCH  25  27
ATOM     26  C   UNL     1      -4.099  10.021  13.631  0.00  0.00    +0.000 C 
ATOM     27  C   UNL     1      -2.929   9.840  14.587  0.00  0.00    +0.000 C 
ENDBRANCH  25  27
ENDBRANCH  24  25
ENDBRANCH  23  24
ENDBRANCH  22  23
ENDBRANCH  21  22
ENDBRANCH   1  21
BRANCH  10  28
ATOM     28  C   UNL     1       0.845  14.785  22.127  0.00  0.00    +0.000 C 
BRANCH  28  29
ATOM     29  C   UNL     1       2.114  14.508  21.405  0.00  0.00    +0.000 C 
ATOM     30  C   UNL     1       2.906  15.624  20.762  0.00  0.00    +0.000 C 
ATOM     31  C   UNL     1       3.359  15.015  22.077  0.00  0.00    +0.000 C 
ENDBRANCH  28  29
ENDBRANCH  10  28
TORSDOF 9
ENDMDL
MODEL 8
REMARK VINA RESULT:      -5.8      4.294      9.404
REMARK  Name = 
REMARK  11 active torsions:
REMARK  status: ('A' for Active; 'I' for Inactive)
REMARK    1  A    between atoms: C_1  and  C_2
REMARK    2  A    between atoms: C_2  and  C_3
REMARK    3  A    between atoms: C_3  and  C_4
REMARK    4  A    between atoms: C_4  and  C_5
REMARK    5  A    between atoms: C_5  and  C_6
REMARK    6  A    between atoms: C_6  and  O_7
REMARK    7  A    between atoms: O_7  and  C_8
REMARK    8  A    between atoms: N_17  and  C_18
REMARK    9  A    between atoms: C_18  and  C_19
REMARK   10  A    between atoms: C_24  and  O_25
REMARK   11  A    between atoms: O_25  and  C_26
REMARK                            x       y       z     vdW  Elec       q    Type
REMARK                         _______ _______ _______ _____ _____    ______ ____
ROOT
ATOM      1  C   UNL     1      -0.119  10.178  18.384  0.00  0.00    +0.000 A 
ATOM      2  C   UNL     1      -1.149   9.662  17.556  0.00  0.00    +0.000 A 
ATOM      3  C   UNL     1      -2.177  10.435  17.098  0.00  0.00    +0.000 A 
ATOM      4  C   UNL     1      -2.420  11.698  17.644  0.00  0.00    +0.000 A 
ATOM      5  C   UNL     1      -1.511  12.164  18.621  0.00  0.00    +0.000 A 
ATOM      6  C   UNL     1      -0.240  11.524  18.830  0.00  0.00    +0.000 A 
ATOM      7  C   UNL     1       0.850  12.293  19.758  0.00  0.00    +0.000 C 
ATOM      8  C   UNL     1       1.010  11.402  21.053  0.00  0.00    +0.000 C 
ATOM      9  C   UNL     1      -0.193  11.539  22.065  0.00  0.00    +0.000 C 
ATOM     10  N   UNL     1      -1.379  12.151  21.483  0.00  0.00    +0.000 NA
ATOM     11  C   UNL     1      -1.198  13.397  20.736  0.00  0.00    +0.000 C 
ATOM     12  C   UNL     1      -2.092  13.295  19.498  0.00  0.00    +0.000 C 
ATOM     13  C   UNL     1       0.195  13.613  20.166  0.00  0.00    +0.000 C 
ATOM     14  C   UNL     1       0.126  14.354  18.742  0.00  0.00    +0.000 C 
ATOM     15  C   UNL     1       1.041  15.500  18.806  0.00  0.00    +0.000 C 
ATOM     16  C   UNL     1       2.229  14.628  18.511  0.00  0.00    +0.000 C 
ATOM     17  O   UNL     1       3.167  15.096  17.810  0.00  0.00    +0.000 OA
ATOM     18  C   UNL     1       2.254  12.977  19.030  0.00  0.00    +0.000 C 
ENDROOT
BRANCH  13  19
ATOM     19  O   UNL     1       1.077  14.392  21.033  0.00  0.00    +0.000 OA
ATOM     20  C   UNL     1       0.744  15.047  22.232  0.00  0.00    +0.000 C 
ENDBRANCH  13  19
BRANCH   1  21
ATOM     21  O   UNL     1       0.862   9.365  18.888  0.00  0.00    +0.000 OA
BRANCH  21  22
ATOM     22  C   UNL     1       1.876   8.934  17.956  0.00  0.00    +0.000 C 
BRANCH  22  23
ATOM     23  C   UNL     1       2.493   7.603  18.370  0.00  0.00    +0.000 C 
BRANCH  23  24
ATOM     24  C   UNL     1       3.723   7.303  17.508  0.00  0.00    +0.000 C 
BRANCH  24  25
ATOM     25  C   UNL     1       4.091   5.822  17.527  0.00  0.00    +0.000 C 
BRANCH  25  27
ATOM     26  C   UNL     1       5.908   5.197  19.155  0.00  0.00    +0.000 C 
ATOM     27  C   UNL     1       5.594   5.621  17.729  0.00  0.00    +0.000 C 
ENDBRANCH  25  27
ENDBRANCH  24  25
ENDBRANCH  23  24
ENDBRANCH  22  23
ENDBRANCH  21  22
ENDBRANCH   1  21
BRANCH  10  28
ATOM     28  C   UNL     1      -2.673  11.980  22.102  0.00  0.00    +0.000 C 
BRANCH  28  29
ATOM     29  C   UNL     1      -2.752  12.354  23.539  0.00  0.00    +0.000 C 
ATOM     30  C   UNL     1      -2.996  13.784  23.962  0.00  0.00    +0.000 C 
ATOM     31  C   UNL     1      -4.114  12.760  24.023  0.00  0.00    +0.000 C 
ENDBRANCH  28  29
ENDBRANCH  10  28
TORSDOF 9
ENDMDL
MODEL 9
REMARK VINA RESULT:      -5.8      8.106     11.847
REMARK  Name = 
REMARK  11 active torsions:
REMARK  status: ('A' for Active; 'I' for Inactive)
REMARK    1  A    between atoms: C_1  and  C_2
REMARK    2  A    between atoms: C_2  and  C_3
REMARK    3  A    between atoms: C_3  and  C_4
REMARK    4  A    between atoms: C_4  and  C_5
REMARK    5  A    between atoms: C_5  and  C_6
REMARK    6  A    between atoms: C_6  and  O_7
REMARK    7  A    between atoms: O_7  and  C_8
REMARK    8  A    between atoms: N_17  and  C_18
REMARK    9  A    between atoms: C_18  and  C_19
REMARK   10  A    between atoms: C_24  and  O_25
REMARK   11  A    between atoms: O_25  and  C_26
REMARK                            x       y       z     vdW  Elec       q    Type
REMARK                         _______ _______ _______ _____ _____    ______ ____
ROOT
ATOM      1  C   UNL     1      -1.871  11.873  20.024  0.00  0.00    +0.000 A 
ATOM      2  C   UNL     1      -0.800  10.947  20.119  0.00  0.00    +0.000 A 
ATOM      3  C   UNL     1      -0.291  10.535  21.317  0.00  0.00    +0.000 A 
ATOM      4  C   UNL     1      -0.607  11.211  22.499  0.00  0.00    +0.000 A 
ATOM      5  C   UNL     1      -1.535  12.274  22.404  0.00  0.00    +0.000 A 
ATOM      6  C   UNL     1      -2.344  12.464  21.231  0.00  0.00    +0.000 A 
ATOM      7  C   UNL     1      -3.575  13.519  21.323  0.00  0.00    +0.000 C 
ATOM      8  C   UNL     1      -3.187  14.710  20.359  0.00  0.00    +0.000 C 
ATOM      9  C   UNL     1      -2.095  15.678  20.961  0.00  0.00    +0.000 C 
ATOM     10  N   UNL     1      -1.383  15.118  22.100  0.00  0.00    +0.000 NA
ATOM     11  C   UNL     1      -2.185  14.528  23.173  0.00  0.00    +0.000 C 
ATOM     12  C   UNL     1      -1.462  13.248  23.601  0.00  0.00    +0.000 C 
ATOM     13  C   UNL     1      -3.566  14.047  22.758  0.00  0.00    +0.000 C 
ATOM     14  C   UNL     1      -3.977  12.715  23.558  0.00  0.00    +0.000 C 
ATOM     15  C   UNL     1      -5.307  12.949  24.134  0.00  0.00    +0.000 C 
ATOM     16  C   UNL     1      -5.982  12.609  22.835  0.00  0.00    +0.000 C 
ATOM     17  O   UNL     1      -7.089  12.007  22.865  0.00  0.00    +0.000 OA
ATOM     18  C   UNL     1      -5.196  12.936  21.328  0.00  0.00    +0.000 C 
ENDROOT
BRANCH  13  19
ATOM     19  O   UNL     1      -4.625  15.035  22.961  0.00  0.00    +0.000 OA
ATOM     20  C   UNL     1      -4.513  16.303  23.559  0.00  0.00    +0.000 C 
ENDBRANCH  13  19
BRANCH   1  21
ATOM     21  O   UNL     1      -2.318  12.323  18.810  0.00  0.00    +0.000 OA
BRANCH  21  22
ATOM     22  C   UNL     1      -2.011  11.494  17.669  0.00  0.00    +0.000 C 
BRANCH  22  23
ATOM     23  C   UNL     1      -3.223  10.689  17.214  0.00  0.00    +0.000 C 
BRANCH  23  24
ATOM     24  C   UNL     1      -4.496  11.527  17.365  0.00  0.00    +0.000 C 
BRANCH  24  25
ATOM     25  C   UNL     1      -5.512  10.865  18.292  0.00  0.00    +0.000 C 
BRANCH  25  27
ATOM     26  C   UNL     1      -6.826  12.795  17.347  0.00  0.00    +0.000 C 
ATOM     27  C   UNL     1      -6.891  11.517  18.169  0.00  0.00    +0.000 C 
ENDBRANCH  25  27
ENDBRANCH  24  25
ENDBRANCH  23  24
ENDBRANCH  22  23
ENDBRANCH  21  22
ENDBRANCH   1  21
BRANCH  10  28
ATOM     28  C   UNL     1      -0.105  15.657  22.505  0.00  0.00    +0.000 C 
BRANCH  28  29
ATOM     29  C   UNL     1       0.986  15.542  21.502  0.00  0.00    +0.000 C 
ATOM     30  C   UNL     1       2.339  14.983  21.881  0.00  0.00    +0.000 C 
ATOM     31  C   UNL     1       1.346  14.140  21.101  0.00  0.00    +0.000 C 
ENDBRANCH  28  29
ENDBRANCH  10  28
TORSDOF 9
ENDMDL
