MODEL 1
REMARK VINA RESULT:      -7.4      0.000      0.000
REMARK  Name = 
REMARK  3 active torsions:
REMARK  status: ('A' for Active; 'I' for Inactive)
REMARK    1  A    between atoms: C_10  and  C_11
REMARK    2  A    between atoms: N_19  and  C_20
REMARK    3  A    between atoms: C_20  and  C_21
REMARK                            x       y       z     vdW  Elec       q    Type
REMARK                         _______ _______ _______ _____ _____    ______ ____
ROOT
ATOM      1  O   UNL     1       6.174   6.890  17.764  0.00  0.00    +0.000 OA
ATOM      2  C   UNL     1       5.489   5.906  17.512  0.00  0.00    +0.000 C 
ATOM      3  C   UNL     1       5.769   5.140  16.286  0.00  0.00    +0.000 A 
ATOM      4  C   UNL     1       6.460   5.727  15.220  0.00  0.00    +0.000 A 
ATOM      5  C   UNL     1       6.658   5.005  14.046  0.00  0.00    +0.000 A 
ATOM      6  C   UNL     1       6.181   3.699  13.951  0.00  0.00    +0.000 A 
ATOM      7  C   UNL     1       5.492   3.124  15.022  0.00  0.00    +0.000 A 
ATOM      8  C   UNL     1       5.254   3.851  16.195  0.00  0.00    +0.000 A 
ATOM      9  N   UNL     1       4.606   3.249  17.263  0.00  0.00    +0.000 N 
ATOM     10  C   UNL     1       4.371   4.015  18.483  0.00  0.00    +0.000 C 
ATOM     11  N   UNL     1       4.390   5.460  18.263  0.00  0.00    +0.000 N 
ATOM     12  H   UNL     1       3.835   2.659  16.966  0.00  0.00    +0.000 HD
ENDROOT
BRANCH  10  13
ATOM     13  C   UNL     1       3.126   3.467  19.171  0.00  0.00    +0.000 A 
ATOM     14  C   UNL     1       1.833   3.795  18.710  0.00  0.00    +0.000 A 
ATOM     15 CL   UNL     1       1.556   4.731  17.281  0.00  0.00    +0.000 Cl
ATOM     16  C   UNL     1       0.685   3.359  19.387  0.00  0.00    +0.000 A 
ATOM     17  C   UNL     1       0.796   2.580  20.533  0.00  0.00    +0.000 A 
ATOM     18  C   UNL     1       2.056   2.211  20.986  0.00  0.00    +0.000 A 
ATOM     19  C   UNL     1       3.208   2.636  20.310  0.00  0.00    +0.000 A 
ATOM     20 CL   UNL     1       4.716   2.092  20.963  0.00  0.00    +0.000 Cl
ENDBRANCH  10  13
BRANCH  11  21
ATOM     21  C   UNL     1       3.983   6.286  19.403  0.00  0.00    +0.000 C 
BRANCH  21  22
ATOM     22  C   UNL     1       2.936   7.353  19.149  0.00  0.00    +0.000 A 
ATOM     23  C   UNL     1       2.838   8.015  17.917  0.00  0.00    +0.000 A 
ATOM     24  C   UNL     1       1.867   9.002  17.725  0.00  0.00    +0.000 A 
ATOM     25  C   UNL     1       0.984   9.335  18.750  0.00  0.00    +0.000 A 
ATOM     26  C   UNL     1       1.068   8.676  19.978  0.00  0.00    +0.000 A 
ATOM     27  C   UNL     1       2.036   7.691  20.173  0.00  0.00    +0.000 A 
ENDBRANCH  21  22
ENDBRANCH  11  21
TORSDOF 3
ENDMDL
MODEL 2
REMARK VINA RESULT:      -7.0      0.219      1.811
REMARK  Name = 
REMARK  3 active torsions:
REMARK  status: ('A' for Active; 'I' for Inactive)
REMARK    1  A    between atoms: C_10  and  C_11
REMARK    2  A    between atoms: N_19  and  C_20
REMARK    3  A    between atoms: C_20  and  C_21
REMARK                            x       y       z     vdW  Elec       q    Type
REMARK                         _______ _______ _______ _____ _____    ______ ____
ROOT
ATOM      1  O   UNL     1       6.264   6.812  17.838  0.00  0.00    +0.000 OA
ATOM      2  C   UNL     1       5.559   5.863  17.518  0.00  0.00    +0.000 C 
ATOM      3  C   UNL     1       5.863   5.141  16.270  0.00  0.00    +0.000 A 
ATOM      4  C   UNL     1       6.612   5.751  15.257  0.00  0.00    +0.000 A 
ATOM      5  C   UNL     1       6.832   5.075  14.060  0.00  0.00    +0.000 A 
ATOM      6  C   UNL     1       6.320   3.790  13.890  0.00  0.00    +0.000 A 
ATOM      7  C   UNL     1       5.574   3.192  14.909  0.00  0.00    +0.000 A 
ATOM      8  C   UNL     1       5.313   3.875  16.104  0.00  0.00    +0.000 A 
ATOM      9  N   UNL     1       4.608   3.248  17.119  0.00  0.00    +0.000 N 
ATOM     10  C   UNL     1       4.349   3.968  18.363  0.00  0.00    +0.000 C 
ATOM     11  N   UNL     1       4.419   5.420  18.207  0.00  0.00    +0.000 N 
ATOM     12  H   UNL     1       3.831   2.695  16.769  0.00  0.00    +0.000 HD
ENDROOT
BRANCH  10  13
ATOM     13  C   UNL     1       3.063   3.430  18.979  0.00  0.00    +0.000 A 
ATOM     14  C   UNL     1       3.092   2.577  20.102  0.00  0.00    +0.000 A 
ATOM     15 CL   UNL     1       4.554   2.172  20.935  0.00  0.00    +0.000 Cl
ATOM     16  C   UNL     1       1.917   2.015  20.623  0.00  0.00    +0.000 A 
ATOM     17  C   UNL     1       0.685   2.297  20.043  0.00  0.00    +0.000 A 
ATOM     18  C   UNL     1       0.624   3.164  18.960  0.00  0.00    +0.000 A 
ATOM     19  C   UNL     1       1.793   3.735  18.439  0.00  0.00    +0.000 A 
ATOM     20 CL   UNL     1       1.581   4.815  17.103  0.00  0.00    +0.000 Cl
ENDBRANCH  10  13
BRANCH  11  21
ATOM     21  C   UNL     1       3.994   6.209  19.367  0.00  0.00    +0.000 C 
BRANCH  21  22
ATOM     22  C   UNL     1       2.971   7.301  19.127  0.00  0.00    +0.000 A 
ATOM     23  C   UNL     1       2.898   7.991  17.908  0.00  0.00    +0.000 A 
ATOM     24  C   UNL     1       1.948   9.001  17.729  0.00  0.00    +0.000 A 
ATOM     25  C   UNL     1       1.060   9.328  18.752  0.00  0.00    +0.000 A 
ATOM     26  C   UNL     1       1.119   8.640  19.966  0.00  0.00    +0.000 A 
ATOM     27  C   UNL     1       2.067   7.633  20.149  0.00  0.00    +0.000 A 
ENDBRANCH  21  22
ENDBRANCH  11  21
TORSDOF 3
ENDMDL
MODEL 3
REMARK VINA RESULT:      -6.9      2.500      6.593
REMARK  Name = 
REMARK  3 active torsions:
REMARK  status: ('A' for Active; 'I' for Inactive)
REMARK    1  A    between atoms: C_10  and  C_11
REMARK    2  A    between atoms: N_19  and  C_20
REMARK    3  A    between atoms: C_20  and  C_21
REMARK                            x       y       z     vdW  Elec       q    Type
REMARK                         _______ _______ _______ _____ _____    ______ ____
ROOT
ATOM      1  O   UNL     1       4.236   1.790  18.366  0.00  0.00    +0.000 OA
ATOM      2  C   UNL     1       4.162   3.002  18.527  0.00  0.00    +0.000 C 
ATOM      3  C   UNL     1       2.987   3.555  19.222  0.00  0.00    +0.000 A 
ATOM      4  C   UNL     1       1.796   2.826  19.302  0.00  0.00    +0.000 A 
ATOM      5  C   UNL     1       0.678   3.395  19.907  0.00  0.00    +0.000 A 
ATOM      6  C   UNL     1       0.763   4.678  20.444  0.00  0.00    +0.000 A 
ATOM      7  C   UNL     1       1.959   5.396  20.359  0.00  0.00    +0.000 A 
ATOM      8  C   UNL     1       3.079   4.851  19.720  0.00  0.00    +0.000 A 
ATOM      9  N   UNL     1       4.269   5.562  19.683  0.00  0.00    +0.000 N 
ATOM     10  C   UNL     1       5.433   4.979  19.021  0.00  0.00    +0.000 C 
ATOM     11  N   UNL     1       5.078   3.950  18.045  0.00  0.00    +0.000 N 
ATOM     12  H   UNL     1       4.124   6.552  19.513  0.00  0.00    +0.000 HD
ENDROOT
BRANCH  10  13
ATOM     13  C   UNL     1       6.314   6.108  18.500  0.00  0.00    +0.000 A 
ATOM     14  C   UNL     1       7.613   6.316  19.010  0.00  0.00    +0.000 A 
ATOM     15 CL   UNL     1       8.350   5.254  20.161  0.00  0.00    +0.000 Cl
ATOM     16  C   UNL     1       8.396   7.402  18.592  0.00  0.00    +0.000 A 
ATOM     17  C   UNL     1       7.908   8.301  17.651  0.00  0.00    +0.000 A 
ATOM     18  C   UNL     1       6.647   8.099  17.105  0.00  0.00    +0.000 A 
ATOM     19  C   UNL     1       5.862   7.011  17.512  0.00  0.00    +0.000 A 
ATOM     20 CL   UNL     1       4.320   6.857  16.741  0.00  0.00    +0.000 Cl
ENDBRANCH  10  13
BRANCH  11  21
ATOM     21  C   UNL     1       6.177   3.450  17.214  0.00  0.00    +0.000 C 
BRANCH  21  22
ATOM     22  C   UNL     1       6.212   3.898  15.766  0.00  0.00    +0.000 A 
ATOM     23  C   UNL     1       5.203   3.546  14.859  0.00  0.00    +0.000 A 
ATOM     24  C   UNL     1       5.277   3.967  13.528  0.00  0.00    +0.000 A 
ATOM     25  C   UNL     1       6.347   4.745  13.090  0.00  0.00    +0.000 A 
ATOM     26  C   UNL     1       7.352   5.108  13.988  0.00  0.00    +0.000 A 
ATOM     27  C   UNL     1       7.282   4.688  15.316  0.00  0.00    +0.000 A 
ENDBRANCH  21  22
ENDBRANCH  11  21
TORSDOF 3
ENDMDL
MODEL 4
REMARK VINA RESULT:      -6.9      7.897      9.905
REMARK  Name = 
REMARK  3 active torsions:
REMARK  status: ('A' for Active; 'I' for Inactive)
REMARK    1  A    between atoms: C_10  and  C_11
REMARK    2  A    between atoms: N_19  and  C_20
REMARK    3  A    between atoms: C_20  and  C_21
REMARK                            x       y       z     vdW  Elec       q    Type
REMARK                         _______ _______ _______ _____ _____    ______ ____
ROOT
ATOM      1  O   UNL     1       0.092   9.642  17.988  0.00  0.00    +0.000 OA
ATOM      2  C   UNL     1      -0.649  10.554  18.330  0.00  0.00    +0.000 C 
ATOM      3  C   UNL     1      -1.944  10.713  17.646  0.00  0.00    +0.000 A 
ATOM      4  C   UNL     1      -2.151  10.164  16.375  0.00  0.00    +0.000 A 
ATOM      5  C   UNL     1      -3.359  10.381  15.719  0.00  0.00    +0.000 A 
ATOM      6  C   UNL     1      -4.358  11.128  16.342  0.00  0.00    +0.000 A 
ATOM      7  C   UNL     1      -4.139  11.670  17.611  0.00  0.00    +0.000 A 
ATOM      8  C   UNL     1      -2.914  11.491  18.267  0.00  0.00    +0.000 A 
ATOM      9  N   UNL     1      -2.732  12.001  19.543  0.00  0.00    +0.000 N 
ATOM     10  C   UNL     1      -1.454  11.801  20.219  0.00  0.00    +0.000 C 
ATOM     11  N   UNL     1      -0.355  11.532  19.294  0.00  0.00    +0.000 N 
ATOM     12  H   UNL     1      -3.142  12.924  19.655  0.00  0.00    +0.000 HD
ENDROOT
BRANCH  10  13
ATOM     13  C   UNL     1      -1.232  12.952  21.193  0.00  0.00    +0.000 A 
ATOM     14  C   UNL     1      -1.260  12.745  22.589  0.00  0.00    +0.000 A 
ATOM     15 CL   UNL     1      -1.425  11.176  23.301  0.00  0.00    +0.000 Cl
ATOM     16  C   UNL     1      -1.137  13.814  23.488  0.00  0.00    +0.000 A 
ATOM     17  C   UNL     1      -0.974  15.113  23.020  0.00  0.00    +0.000 A 
ATOM     18  C   UNL     1      -0.905  15.340  21.651  0.00  0.00    +0.000 A 
ATOM     19  C   UNL     1      -1.020  14.276  20.747  0.00  0.00    +0.000 A 
ATOM     20 CL   UNL     1      -0.896  14.687  19.070  0.00  0.00    +0.000 Cl
ENDBRANCH  10  13
BRANCH  11  21
ATOM     21  C   UNL     1       0.986  11.500  19.886  0.00  0.00    +0.000 C 
BRANCH  21  22
ATOM     22  C   UNL     1       1.897  12.679  19.606  0.00  0.00    +0.000 A 
ATOM     23  C   UNL     1       2.211  13.077  18.299  0.00  0.00    +0.000 A 
ATOM     24  C   UNL     1       3.065  14.162  18.081  0.00  0.00    +0.000 A 
ATOM     25  C   UNL     1       3.607  14.864  19.156  0.00  0.00    +0.000 A 
ATOM     26  C   UNL     1       3.293  14.481  20.461  0.00  0.00    +0.000 A 
ATOM     27  C   UNL     1       2.443  13.397  20.682  0.00  0.00    +0.000 A 
ENDBRANCH  21  22
ENDBRANCH  11  21
TORSDOF 3
ENDMDL
MODEL 5
REMARK VINA RESULT:      -6.8      5.734      8.867
REMARK  Name = 
REMARK  3 active torsions:
REMARK  status: ('A' for Active; 'I' for Inactive)
REMARK    1  A    between atoms: C_10  and  C_11
REMARK    2  A    between atoms: N_19  and  C_20
REMARK    3  A    between atoms: C_20  and  C_21
REMARK                            x       y       z     vdW  Elec       q    Type
REMARK                         _______ _______ _______ _____ _____    ______ ____
ROOT
ATOM      1  O   UNL     1      -2.050  13.739  19.874  0.00  0.00    +0.000 OA
ATOM      2  C   UNL     1      -0.931  13.249  19.789  0.00  0.00    +0.000 C 
ATOM      3  C   UNL     1       0.235  14.147  19.731  0.00  0.00    +0.000 A 
ATOM      4  C   UNL     1       0.090  15.480  19.333  0.00  0.00    +0.000 A 
ATOM      5  C   UNL     1       1.215  16.294  19.223  0.00  0.00    +0.000 A 
ATOM      6  C   UNL     1       2.472  15.776  19.528  0.00  0.00    +0.000 A 
ATOM      7  C   UNL     1       2.604  14.442  19.925  0.00  0.00    +0.000 A 
ATOM      8  C   UNL     1       1.486  13.603  20.003  0.00  0.00    +0.000 A 
ATOM      9  N   UNL     1       1.632  12.295  20.440  0.00  0.00    +0.000 N 
ATOM     10  C   UNL     1       0.457  11.433  20.526  0.00  0.00    +0.000 C 
ATOM     11  N   UNL     1      -0.643  11.880  19.673  0.00  0.00    +0.000 N 
ATOM     12  H   UNL     1       2.468  11.854  20.070  0.00  0.00    +0.000 HD
ENDROOT
BRANCH  10  13
ATOM     13  C   UNL     1       0.899   9.987  20.331  0.00  0.00    +0.000 A 
ATOM     14  C   UNL     1       0.742   9.030  21.357  0.00  0.00    +0.000 A 
ATOM     15 CL   UNL     1      -0.061   9.380  22.850  0.00  0.00    +0.000 Cl
ATOM     16  C   UNL     1       1.220   7.720  21.212  0.00  0.00    +0.000 A 
ATOM     17  C   UNL     1       1.857   7.328  20.041  0.00  0.00    +0.000 A 
ATOM     18  C   UNL     1       1.992   8.239  19.001  0.00  0.00    +0.000 A 
ATOM     19  C   UNL     1       1.510   9.548  19.135  0.00  0.00    +0.000 A 
ATOM     20 CL   UNL     1       1.719  10.580  17.761  0.00  0.00    +0.000 Cl
ENDBRANCH  10  13
BRANCH  11  21
ATOM     21  C   UNL     1      -1.784  10.966  19.570  0.00  0.00    +0.000 C 
BRANCH  21  22
ATOM     22  C   UNL     1      -2.427  10.809  18.206  0.00  0.00    +0.000 A 
ATOM     23  C   UNL     1      -1.837  10.038  17.195  0.00  0.00    +0.000 A 
ATOM     24  C   UNL     1      -2.453   9.928  15.945  0.00  0.00    +0.000 A 
ATOM     25  C   UNL     1      -3.662  10.575  15.692  0.00  0.00    +0.000 A 
ATOM     26  C   UNL     1      -4.262  11.338  16.696  0.00  0.00    +0.000 A 
ATOM     27  C   UNL     1      -3.648  11.451  17.943  0.00  0.00    +0.000 A 
ENDBRANCH  21  22
ENDBRANCH  11  21
TORSDOF 3
ENDMDL
MODEL 6
REMARK VINA RESULT:      -6.8      2.516      6.318
REMARK  Name = 
REMARK  3 active torsions:
REMARK  status: ('A' for Active; 'I' for Inactive)
REMARK    1  A    between atoms: C_10  and  C_11
REMARK    2  A    between atoms: N_19  and  C_20
REMARK    3  A    between atoms: C_20  and  C_21
REMARK                            x       y       z     vdW  Elec       q    Type
REMARK                         _______ _______ _______ _____ _____    ______ ____
ROOT
ATOM      1  O   UNL     1       4.236   1.715  18.351  0.00  0.00    +0.000 OA
ATOM      2  C   UNL     1       4.136   2.922  18.535  0.00  0.00    +0.000 C 
ATOM      3  C   UNL     1       2.943   3.438  19.228  0.00  0.00    +0.000 A 
ATOM      4  C   UNL     1       1.765   2.684  19.278  0.00  0.00    +0.000 A 
ATOM      5  C   UNL     1       0.630   3.219  19.882  0.00  0.00    +0.000 A 
ATOM      6  C   UNL     1       0.684   4.492  20.446  0.00  0.00    +0.000 A 
ATOM      7  C   UNL     1       1.866   5.235  20.389  0.00  0.00    +0.000 A 
ATOM      8  C   UNL     1       3.004   4.725  19.752  0.00  0.00    +0.000 A 
ATOM      9  N   UNL     1       4.180   5.460  19.743  0.00  0.00    +0.000 N 
ATOM     10  C   UNL     1       5.362   4.913  19.083  0.00  0.00    +0.000 C 
ATOM     11  N   UNL     1       5.039   3.897  18.083  0.00  0.00    +0.000 N 
ATOM     12  H   UNL     1       4.018   6.450  19.591  0.00  0.00    +0.000 HD
ENDROOT
BRANCH  10  13
ATOM     13  C   UNL     1       6.226   6.069  18.595  0.00  0.00    +0.000 A 
ATOM     14  C   UNL     1       5.753   6.976  17.622  0.00  0.00    +0.000 A 
ATOM     15 CL   UNL     1       4.138   6.925  17.000  0.00  0.00    +0.000 Cl
ATOM     16  C   UNL     1       6.573   7.992  17.112  0.00  0.00    +0.000 A 
ATOM     17  C   UNL     1       7.879   8.137  17.563  0.00  0.00    +0.000 A 
ATOM     18  C   UNL     1       8.359   7.282  18.547  0.00  0.00    +0.000 A 
ATOM     19  C   UNL     1       7.542   6.269  19.068  0.00  0.00    +0.000 A 
ATOM     20 CL   UNL     1       8.249   5.284  20.305  0.00  0.00    +0.000 Cl
ENDBRANCH  10  13
BRANCH  11  21
ATOM     21  C   UNL     1       6.157   3.436  17.255  0.00  0.00    +0.000 C 
BRANCH  21  22
ATOM     22  C   UNL     1       6.193   3.903  15.813  0.00  0.00    +0.000 A 
ATOM     23  C   UNL     1       5.179   3.571  14.903  0.00  0.00    +0.000 A 
ATOM     24  C   UNL     1       5.254   4.010  13.578  0.00  0.00    +0.000 A 
ATOM     25  C   UNL     1       6.329   4.787  13.149  0.00  0.00    +0.000 A 
ATOM     26  C   UNL     1       7.338   5.130  14.050  0.00  0.00    +0.000 A 
ATOM     27  C   UNL     1       7.268   4.692  15.373  0.00  0.00    +0.000 A 
ENDBRANCH  21  22
ENDBRANCH  11  21
TORSDOF 3
ENDMDL
MODEL 7
REMARK VINA RESULT:      -6.8      6.070      9.016
REMARK  Name = 
REMARK  3 active torsions:
REMARK  status: ('A' for Active; 'I' for Inactive)
REMARK    1  A    between atoms: C_10  and  C_11
REMARK    2  A    between atoms: N_19  and  C_20
REMARK    3  A    between atoms: C_20  and  C_21
REMARK                            x       y       z     vdW  Elec       q    Type
REMARK                         _______ _______ _______ _____ _____    ______ ____
ROOT
ATOM      1  O   UNL     1      -1.759  14.372  19.943  0.00  0.00    +0.000 OA
ATOM      2  C   UNL     1      -0.700  13.764  19.847  0.00  0.00    +0.000 C 
ATOM      3  C   UNL     1       0.544  14.530  19.656  0.00  0.00    +0.000 A 
ATOM      4  C   UNL     1       0.507  15.835  19.152  0.00  0.00    +0.000 A 
ATOM      5  C   UNL     1       1.699  16.517  18.919  0.00  0.00    +0.000 A 
ATOM      6  C   UNL     1       2.915  15.900  19.206  0.00  0.00    +0.000 A 
ATOM      7  C   UNL     1       2.937  14.596  19.708  0.00  0.00    +0.000 A 
ATOM      8  C   UNL     1       1.748  13.885  19.913  0.00  0.00    +0.000 A 
ATOM      9  N   UNL     1       1.790  12.608  20.453  0.00  0.00    +0.000 N 
ATOM     10  C   UNL     1       0.543  11.880  20.669  0.00  0.00    +0.000 C 
ATOM     11  N   UNL     1      -0.554  12.368  19.835  0.00  0.00    +0.000 N 
ATOM     12  H   UNL     1       2.556  12.055  20.082  0.00  0.00    +0.000 HD
ENDROOT
BRANCH  10  13
ATOM     13  C   UNL     1       0.829  10.386  20.578  0.00  0.00    +0.000 A 
ATOM     14  C   UNL     1       0.522   9.517  21.646  0.00  0.00    +0.000 A 
ATOM     15 CL   UNL     1      -0.300  10.042  23.076  0.00  0.00    +0.000 Cl
ATOM     16  C   UNL     1       0.857   8.156  21.599  0.00  0.00    +0.000 A 
ATOM     17  C   UNL     1       1.497   7.626  20.485  0.00  0.00    +0.000 A 
ATOM     18  C   UNL     1       1.777   8.452  19.403  0.00  0.00    +0.000 A 
ATOM     19  C   UNL     1       1.438   9.811  19.440  0.00  0.00    +0.000 A 
ATOM     20 CL   UNL     1       1.820  10.728  18.022  0.00  0.00    +0.000 Cl
ENDBRANCH  10  13
BRANCH  11  21
ATOM     21  C   UNL     1      -1.784  11.571  19.866  0.00  0.00    +0.000 C 
BRANCH  21  22
ATOM     22  C   UNL     1      -2.391  11.178  18.533  0.00  0.00    +0.000 A 
ATOM     23  C   UNL     1      -3.619  11.697  18.099  0.00  0.00    +0.000 A 
ATOM     24  C   UNL     1      -4.153  11.302  16.869  0.00  0.00    +0.000 A 
ATOM     25  C   UNL     1      -3.470  10.396  16.059  0.00  0.00    +0.000 A 
ATOM     26  C   UNL     1      -2.243   9.880  16.479  0.00  0.00    +0.000 A 
ATOM     27  C   UNL     1      -1.708  10.271  17.707  0.00  0.00    +0.000 A 
ENDBRANCH  21  22
ENDBRANCH  11  21
TORSDOF 3
ENDMDL
MODEL 8
REMARK VINA RESULT:      -6.7      7.933      9.803
REMARK  Name = 
REMARK  3 active torsions:
REMARK  status: ('A' for Active; 'I' for Inactive)
REMARK    1  A    between atoms: C_10  and  C_11
REMARK    2  A    between atoms: N_19  and  C_20
REMARK    3  A    between atoms: C_20  and  C_21
REMARK                            x       y       z     vdW  Elec       q    Type
REMARK                         _______ _______ _______ _____ _____    ______ ____
ROOT
ATOM      1  O   UNL     1       0.113   9.610  18.174  0.00  0.00    +0.000 OA
ATOM      2  C   UNL     1      -0.633  10.538  18.460  0.00  0.00    +0.000 C 
ATOM      3  C   UNL     1      -1.901  10.682  17.726  0.00  0.00    +0.000 A 
ATOM      4  C   UNL     1      -2.068  10.093  16.467  0.00  0.00    +0.000 A 
ATOM      5  C   UNL     1      -3.252  10.296  15.762  0.00  0.00    +0.000 A 
ATOM      6  C   UNL     1      -4.265  11.069  16.325  0.00  0.00    +0.000 A 
ATOM      7  C   UNL     1      -4.086  11.652  17.582  0.00  0.00    +0.000 A 
ATOM      8  C   UNL     1      -2.887  11.487  18.286  0.00  0.00    +0.000 A 
ATOM      9  N   UNL     1      -2.746  12.038  19.551  0.00  0.00    +0.000 N 
ATOM     10  C   UNL     1      -1.493  11.852  20.277  0.00  0.00    +0.000 C 
ATOM     11  N   UNL     1      -0.365  11.545  19.401  0.00  0.00    +0.000 N 
ATOM     12  H   UNL     1      -3.152  12.967  19.617  0.00  0.00    +0.000 HD
ENDROOT
BRANCH  10  13
ATOM     13  C   UNL     1      -1.296  13.034  21.220  0.00  0.00    +0.000 A 
ATOM     14  C   UNL     1      -0.959  14.313  20.727  0.00  0.00    +0.000 A 
ATOM     15 CL   UNL     1      -0.859  14.671  19.036  0.00  0.00    +0.000 Cl
ATOM     16  C   UNL     1      -0.698  15.383  21.595  0.00  0.00    +0.000 A 
ATOM     17  C   UNL     1      -0.775  15.209  22.971  0.00  0.00    +0.000 A 
ATOM     18  C   UNL     1      -1.142  13.971  23.482  0.00  0.00    +0.000 A 
ATOM     19  C   UNL     1      -1.412  12.898  22.621  0.00  0.00    +0.000 A 
ATOM     20 CL   UNL     1      -1.880  11.414  23.380  0.00  0.00    +0.000 Cl
ENDBRANCH  10  13
BRANCH  11  21
ATOM     21  C   UNL     1       0.954  11.525  20.040  0.00  0.00    +0.000 C 
BRANCH  21  22
ATOM     22  C   UNL     1       1.909  12.651  19.698  0.00  0.00    +0.000 A 
ATOM     23  C   UNL     1       2.261  12.946  18.373  0.00  0.00    +0.000 A 
ATOM     24  C   UNL     1       3.155  13.985  18.098  0.00  0.00    +0.000 A 
ATOM     25  C   UNL     1       3.701  14.742  19.134  0.00  0.00    +0.000 A 
ATOM     26  C   UNL     1       3.350  14.462  20.456  0.00  0.00    +0.000 A 
ATOM     27  C   UNL     1       2.459  13.424  20.733  0.00  0.00    +0.000 A 
ENDBRANCH  21  22
ENDBRANCH  11  21
TORSDOF 3
ENDMDL
MODEL 9
REMARK VINA RESULT:      -6.7      4.073      7.100
REMARK  Name = 
REMARK  3 active torsions:
REMARK  status: ('A' for Active; 'I' for Inactive)
REMARK    1  A    between atoms: C_10  and  C_11
REMARK    2  A    between atoms: N_19  and  C_20
REMARK    3  A    between atoms: C_20  and  C_21
REMARK                            x       y       z     vdW  Elec       q    Type
REMARK                         _______ _______ _______ _____ _____    ______ ____
ROOT
ATOM      1  O   UNL     1       1.922   9.085  17.073  0.00  0.00    +0.000 OA
ATOM      2  C   UNL     1       1.611   8.868  18.238  0.00  0.00    +0.000 C 
ATOM      3  C   UNL     1       2.034   7.604  18.863  0.00  0.00    +0.000 A 
ATOM      4  C   UNL     1       2.373   6.497  18.076  0.00  0.00    +0.000 A 
ATOM      5  C   UNL     1       2.707   5.292  18.688  0.00  0.00    +0.000 A 
ATOM      6  C   UNL     1       2.718   5.205  20.079  0.00  0.00    +0.000 A 
ATOM      7  C   UNL     1       2.378   6.317  20.854  0.00  0.00    +0.000 A 
ATOM      8  C   UNL     1       2.003   7.524  20.251  0.00  0.00    +0.000 A 
ATOM      9  N   UNL     1       1.711   8.629  21.037  0.00  0.00    +0.000 N 
ATOM     10  C   UNL     1       1.330   9.884  20.396  0.00  0.00    +0.000 C 
ATOM     11  N   UNL     1       0.814   9.700  19.041  0.00  0.00    +0.000 N 
ATOM     12  H   UNL     1       1.176   8.385  21.865  0.00  0.00    +0.000 HD
ENDROOT
BRANCH  10  13
ATOM     13  C   UNL     1       0.428  10.662  21.347  0.00  0.00    +0.000 A 
ATOM     14  C   UNL     1      -0.536  10.005  22.141  0.00  0.00    +0.000 A 
ATOM     15 CL   UNL     1      -0.692   8.282  22.193  0.00  0.00    +0.000 Cl
ATOM     16  C   UNL     1      -1.423  10.724  22.956  0.00  0.00    +0.000 A 
ATOM     17  C   UNL     1      -1.365  12.112  23.007  0.00  0.00    +0.000 A 
ATOM     18  C   UNL     1      -0.401  12.781  22.264  0.00  0.00    +0.000 A 
ATOM     19  C   UNL     1       0.493  12.069  21.453  0.00  0.00    +0.000 A 
ATOM     20 CL   UNL     1       1.661  13.017  20.595  0.00  0.00    +0.000 Cl
ENDBRANCH  10  13
BRANCH  11  21
ATOM     21  C   UNL     1       0.245  10.892  18.406  0.00  0.00    +0.000 C 
BRANCH  21  22
ATOM     22  C   UNL     1      -1.243  10.880  18.115  0.00  0.00    +0.000 A 
ATOM     23  C   UNL     1      -1.800  10.033  17.146  0.00  0.00    +0.000 A 
ATOM     24  C   UNL     1      -3.176  10.060  16.897  0.00  0.00    +0.000 A 
ATOM     25  C   UNL     1      -4.007  10.922  17.611  0.00  0.00    +0.000 A 
ATOM     26  C   UNL     1      -3.463  11.762  18.583  0.00  0.00    +0.000 A 
ATOM     27  C   UNL     1      -2.090  11.739  18.833  0.00  0.00    +0.000 A 
ENDBRANCH  21  22
ENDBRANCH  11  21
TORSDOF 3
ENDMDL
