MODEL 1
REMARK VINA RESULT:      -8.2      0.000      0.000
REMARK  Name = 
REMARK  7 active torsions:
REMARK  status: ('A' for Active; 'I' for Inactive)
REMARK    1  A    between atoms: C_1  and  C_2
REMARK    2  A    between atoms: C_2  and  O_3
REMARK    3  A    between atoms: O_3  and  C_4
REMARK    4  A    between atoms: C_4  and  C_6
REMARK    5  A    between atoms: C_9  and  C_10
REMARK    6  A    between atoms: C_15  and  C_16
REMARK    7  A    between atoms: C_19  and  C_20
REMARK                            x       y       z     vdW  Elec       q    Type
REMARK                         _______ _______ _______ _____ _____    ______ ____
ROOT
ATOM      1  C   UNL     1       5.632   4.742  16.957  0.00  0.00    +0.000 A 
ATOM      2  N   UNL     1       4.586   3.987  17.344  0.00  0.00    +0.000 NA
ATOM      3  N   UNL     1       3.768   4.809  18.034  0.00  0.00    +0.000 N 
ATOM      4  C   UNL     1       2.562   4.505  18.656  0.00  0.00    +0.000 A 
ATOM      5  C   UNL     1       1.886   5.479  19.298  0.00  0.00    +0.000 A 
ATOM      6  C   UNL     1       2.466   6.854  19.245  0.00  0.00    +0.000 A 
ATOM      7  N   UNL     1       3.611   7.137  18.692  0.00  0.00    +0.000 NA
ATOM      8  C   UNL     1       4.279   6.110  18.080  0.00  0.00    +0.000 A 
ATOM      9  C   UNL     1       5.478   6.074  17.404  0.00  0.00    +0.000 A 
ATOM     10 CL   UNL     1       6.526   7.385  17.135  0.00  0.00    +0.000 Cl
ENDROOT
BRANCH   6  11
ATOM     11  C   UNL     1       1.660   7.941  19.868  0.00  0.00    +0.000 A 
ATOM     12  C   UNL     1       1.234   7.808  21.194  0.00  0.00    +0.000 A 
ATOM     13  C   UNL     1       0.515   8.841  21.806  0.00  0.00    +0.000 A 
ATOM     14  C   UNL     1       0.224  10.016  21.103  0.00  0.00    +0.000 A 
ATOM     15  C   UNL     1      -0.528  11.143  21.747  0.00  0.00    +0.000 C 
ATOM     16  C   UNL     1       0.646  10.140  19.777  0.00  0.00    +0.000 A 
ATOM     17  C   UNL     1       1.368   9.115  19.164  0.00  0.00    +0.000 A 
ENDBRANCH   6  11
BRANCH   4  18
ATOM     18  C   UNL     1       2.040   3.120  18.618  0.00  0.00    +0.000 C 
ATOM     19  F   UNL     1       2.033   2.501  17.415  0.00  0.00    +0.000 F 
ATOM     20  F   UNL     1       2.755   2.316  19.456  0.00  0.00    +0.000 F 
ATOM     21  F   UNL     1       0.758   3.080  19.076  0.00  0.00    +0.000 F 
ENDBRANCH   4  18
BRANCH   1  22
ATOM     22  C   UNL     1       6.715   4.199  16.127  0.00  0.00    +0.000 C 
ATOM     23  O   UNL     1       7.905   4.356  16.372  0.00  0.00    +0.000 OA
BRANCH  22  24
ATOM     24  O   UNL     1       6.248   3.591  14.995  0.00  0.00    +0.000 OA
BRANCH  24  26
ATOM     25  C   UNL     1       5.987   3.451  12.631  0.00  0.00    +0.000 C 
ATOM     26  C   UNL     1       6.513   4.296  13.777  0.00  0.00    +0.000 C 
ENDBRANCH  24  26
ENDBRANCH  22  24
ENDBRANCH   1  22
TORSDOF 5
ENDMDL
MODEL 2
REMARK VINA RESULT:      -8.2      0.942      1.382
REMARK  Name = 
REMARK  7 active torsions:
REMARK  status: ('A' for Active; 'I' for Inactive)
REMARK    1  A    between atoms: C_1  and  C_2
REMARK    2  A    between atoms: C_2  and  O_3
REMARK    3  A    between atoms: O_3  and  C_4
REMARK    4  A    between atoms: C_4  and  C_6
REMARK    5  A    between atoms: C_9  and  C_10
REMARK    6  A    between atoms: C_15  and  C_16
REMARK    7  A    between atoms: C_19  and  C_20
REMARK                            x       y       z     vdW  Elec       q    Type
REMARK                         _______ _______ _______ _____ _____    ______ ____
ROOT
ATOM      1  C   UNL     1       6.073   5.172  16.915  0.00  0.00    +0.000 A 
ATOM      2  N   UNL     1       4.959   4.435  17.089  0.00  0.00    +0.000 NA
ATOM      3  N   UNL     1       4.031   5.274  17.593  0.00  0.00    +0.000 N 
ATOM      4  C   UNL     1       2.721   4.992  17.963  0.00  0.00    +0.000 A 
ATOM      5  C   UNL     1       1.944   5.981  18.448  0.00  0.00    +0.000 A 
ATOM      6  C   UNL     1       2.542   7.348  18.503  0.00  0.00    +0.000 A 
ATOM      7  N   UNL     1       3.779   7.611  18.189  0.00  0.00    +0.000 NA
ATOM      8  C   UNL     1       4.541   6.569  17.731  0.00  0.00    +0.000 A 
ATOM      9  C   UNL     1       5.852   6.511  17.311  0.00  0.00    +0.000 A 
ATOM     10 CL   UNL     1       6.951   7.805  17.248  0.00  0.00    +0.000 Cl
ENDROOT
BRANCH   6  11
ATOM     11  C   UNL     1       1.643   8.451  18.942  0.00  0.00    +0.000 A 
ATOM     12  C   UNL     1       1.099   9.317  17.987  0.00  0.00    +0.000 A 
ATOM     13  C   UNL     1       0.217  10.330  18.381  0.00  0.00    +0.000 A 
ATOM     14  C   UNL     1      -0.136  10.479  19.727  0.00  0.00    +0.000 A 
ATOM     15  C   UNL     1      -1.096  11.545  20.167  0.00  0.00    +0.000 C 
ATOM     16  C   UNL     1       0.415   9.615  20.677  0.00  0.00    +0.000 A 
ATOM     17  C   UNL     1       1.291   8.601  20.289  0.00  0.00    +0.000 A 
ENDBRANCH   6  11
BRANCH   4  18
ATOM     18  C   UNL     1       2.197   3.613  17.831  0.00  0.00    +0.000 C 
ATOM     19  F   UNL     1       2.359   3.008  16.632  0.00  0.00    +0.000 F 
ATOM     20  F   UNL     1       2.774   2.792  18.754  0.00  0.00    +0.000 F 
ATOM     21  F   UNL     1       0.862   3.583  18.098  0.00  0.00    +0.000 F 
ENDBRANCH   4  18
BRANCH   1  22
ATOM     22  C   UNL     1       7.292   4.607  16.324  0.00  0.00    +0.000 C 
ATOM     23  O   UNL     1       8.216   4.141  16.981  0.00  0.00    +0.000 OA
BRANCH  22  24
ATOM     24  O   UNL     1       7.329   4.756  14.964  0.00  0.00    +0.000 OA
BRANCH  24  26
ATOM     25  C   UNL     1       6.772   3.966  12.787  0.00  0.00    +0.000 C 
ATOM     26  C   UNL     1       6.353   3.992  14.246  0.00  0.00    +0.000 C 
ENDBRANCH  24  26
ENDBRANCH  22  24
ENDBRANCH   1  22
TORSDOF 5
ENDMDL
MODEL 3
REMARK VINA RESULT:      -8.2      0.108      1.193
REMARK  Name = 
REMARK  7 active torsions:
REMARK  status: ('A' for Active; 'I' for Inactive)
REMARK    1  A    between atoms: C_1  and  C_2
REMARK    2  A    between atoms: C_2  and  O_3
REMARK    3  A    between atoms: O_3  and  C_4
REMARK    4  A    between atoms: C_4  and  C_6
REMARK    5  A    between atoms: C_9  and  C_10
REMARK    6  A    between atoms: C_15  and  C_16
REMARK    7  A    between atoms: C_19  and  C_20
REMARK                            x       y       z     vdW  Elec       q    Type
REMARK                         _______ _______ _______ _____ _____    ______ ____
ROOT
ATOM      1  C   UNL     1       5.671   4.767  16.929  0.00  0.00    +0.000 A 
ATOM      2  N   UNL     1       4.626   4.007  17.309  0.00  0.00    +0.000 NA
ATOM      3  N   UNL     1       3.810   4.820  18.012  0.00  0.00    +0.000 N 
ATOM      4  C   UNL     1       2.606   4.508  18.634  0.00  0.00    +0.000 A 
ATOM      5  C   UNL     1       1.932   5.474  19.290  0.00  0.00    +0.000 A 
ATOM      6  C   UNL     1       2.511   6.850  19.252  0.00  0.00    +0.000 A 
ATOM      7  N   UNL     1       3.654   7.140  18.698  0.00  0.00    +0.000 NA
ATOM      8  C   UNL     1       4.320   6.121  18.071  0.00  0.00    +0.000 A 
ATOM      9  C   UNL     1       5.518   6.093  17.392  0.00  0.00    +0.000 A 
ATOM     10 CL   UNL     1       6.564   7.407  17.135  0.00  0.00    +0.000 Cl
ENDROOT
BRANCH   6  11
ATOM     11  C   UNL     1       1.707   7.929  19.890  0.00  0.00    +0.000 A 
ATOM     12  C   UNL     1       1.407   9.086  19.162  0.00  0.00    +0.000 A 
ATOM     13  C   UNL     1       0.613  10.087  19.733  0.00  0.00    +0.000 A 
ATOM     14  C   UNL     1       0.106   9.937  21.030  0.00  0.00    +0.000 A 
ATOM     15  C   UNL     1      -0.762  10.990  21.653  0.00  0.00    +0.000 C 
ATOM     16  C   UNL     1       0.415   8.783  21.754  0.00  0.00    +0.000 A 
ATOM     17  C   UNL     1       1.201   7.780  21.187  0.00  0.00    +0.000 A 
ENDBRANCH   6  11
BRANCH   4  18
ATOM     18  C   UNL     1       2.084   3.124  18.581  0.00  0.00    +0.000 C 
ATOM     19  F   UNL     1       2.778   2.181  19.259  0.00  0.00    +0.000 F 
ATOM     20  F   UNL     1       0.808   3.076  19.059  0.00  0.00    +0.000 F 
ATOM     21  F   UNL     1       2.010   2.691  17.292  0.00  0.00    +0.000 F 
ENDBRANCH   4  18
BRANCH   1  22
ATOM     22  C   UNL     1       6.750   4.234  16.089  0.00  0.00    +0.000 C 
ATOM     23  O   UNL     1       7.941   4.421  16.310  0.00  0.00    +0.000 OA
BRANCH  22  24
ATOM     24  O   UNL     1       6.278   3.598  14.974  0.00  0.00    +0.000 OA
BRANCH  24  26
ATOM     25  C   UNL     1       5.902   3.456  12.626  0.00  0.00    +0.000 C 
ATOM     26  C   UNL     1       6.521   4.281  13.739  0.00  0.00    +0.000 C 
ENDBRANCH  24  26
ENDBRANCH  22  24
ENDBRANCH   1  22
TORSDOF 5
ENDMDL
MODEL 4
REMARK VINA RESULT:      -8.0      1.059      1.348
REMARK  Name = 
REMARK  7 active torsions:
REMARK  status: ('A' for Active; 'I' for Inactive)
REMARK    1  A    between atoms: C_1  and  C_2
REMARK    2  A    between atoms: C_2  and  O_3
REMARK    3  A    between atoms: O_3  and  C_4
REMARK    4  A    between atoms: C_4  and  C_6
REMARK    5  A    between atoms: C_9  and  C_10
REMARK    6  A    between atoms: C_15  and  C_16
REMARK    7  A    between atoms: C_19  and  C_20
REMARK                            x       y       z     vdW  Elec       q    Type
REMARK                         _______ _______ _______ _____ _____    ______ ____
ROOT
ATOM      1  C   UNL     1       6.134   5.293  16.909  0.00  0.00    +0.000 A 
ATOM      2  N   UNL     1       5.036   4.529  17.069  0.00  0.00    +0.000 NA
ATOM      3  N   UNL     1       4.084   5.344  17.569  0.00  0.00    +0.000 N 
ATOM      4  C   UNL     1       2.777   5.030  17.925  0.00  0.00    +0.000 A 
ATOM      5  C   UNL     1       1.972   5.998  18.407  0.00  0.00    +0.000 A 
ATOM      6  C   UNL     1       2.538   7.379  18.473  0.00  0.00    +0.000 A 
ATOM      7  N   UNL     1       3.771   7.672  18.172  0.00  0.00    +0.000 NA
ATOM      8  C   UNL     1       4.562   6.650  17.717  0.00  0.00    +0.000 A 
ATOM      9  C   UNL     1       5.877   6.625  17.309  0.00  0.00    +0.000 A 
ATOM     10 CL   UNL     1       6.946   7.945  17.262  0.00  0.00    +0.000 Cl
ENDROOT
BRANCH   6  11
ATOM     11  C   UNL     1       1.609   8.458  18.909  0.00  0.00    +0.000 A 
ATOM     12  C   UNL     1       1.290   8.586  20.265  0.00  0.00    +0.000 A 
ATOM     13  C   UNL     1       0.455   9.624  20.694  0.00  0.00    +0.000 A 
ATOM     14  C   UNL     1      -0.059  10.546  19.775  0.00  0.00    +0.000 A 
ATOM     15  C   UNL     1      -0.940  11.677  20.218  0.00  0.00    +0.000 C 
ATOM     16  C   UNL     1       0.258  10.410  18.422  0.00  0.00    +0.000 A 
ATOM     17  C   UNL     1       1.094   9.380  17.989  0.00  0.00    +0.000 A 
ENDBRANCH   6  11
BRANCH   4  18
ATOM     18  C   UNL     1       2.287   3.640  17.782  0.00  0.00    +0.000 C 
ATOM     19  F   UNL     1       0.982   3.419  18.061  0.00  0.00    +0.000 F 
ATOM     20  F   UNL     1       2.487   3.191  16.510  0.00  0.00    +0.000 F 
ATOM     21  F   UNL     1       2.997   2.798  18.584  0.00  0.00    +0.000 F 
ENDBRANCH   4  18
BRANCH   1  22
ATOM     22  C   UNL     1       7.371   4.760  16.327  0.00  0.00    +0.000 C 
ATOM     23  O   UNL     1       8.188   4.095  16.954  0.00  0.00    +0.000 OA
BRANCH  22  24
ATOM     24  O   UNL     1       7.563   5.177  15.038  0.00  0.00    +0.000 OA
BRANCH  24  26
ATOM     25  C   UNL     1       7.360   4.782  12.698  0.00  0.00    +0.000 C 
ATOM     26  C   UNL     1       6.749   4.517  14.062  0.00  0.00    +0.000 C 
ENDBRANCH  24  26
ENDBRANCH  22  24
ENDBRANCH   1  22
TORSDOF 5
ENDMDL
MODEL 5
REMARK VINA RESULT:      -7.8      0.991      1.641
REMARK  Name = 
REMARK  7 active torsions:
REMARK  status: ('A' for Active; 'I' for Inactive)
REMARK    1  A    between atoms: C_1  and  C_2
REMARK    2  A    between atoms: C_2  and  O_3
REMARK    3  A    between atoms: O_3  and  C_4
REMARK    4  A    between atoms: C_4  and  C_6
REMARK    5  A    between atoms: C_9  and  C_10
REMARK    6  A    between atoms: C_15  and  C_16
REMARK    7  A    between atoms: C_19  and  C_20
REMARK                            x       y       z     vdW  Elec       q    Type
REMARK                         _______ _______ _______ _____ _____    ______ ____
ROOT
ATOM      1  C   UNL     1       6.246   5.042  17.608  0.00  0.00    +0.000 A 
ATOM      2  N   UNL     1       5.227   4.285  18.060  0.00  0.00    +0.000 NA
ATOM      3  N   UNL     1       4.253   5.147  18.418  0.00  0.00    +0.000 N 
ATOM      4  C   UNL     1       3.005   4.863  18.961  0.00  0.00    +0.000 A 
ATOM      5  C   UNL     1       2.163   5.876  19.249  0.00  0.00    +0.000 A 
ATOM      6  C   UNL     1       2.620   7.255  18.905  0.00  0.00    +0.000 A 
ATOM      7  N   UNL     1       3.801   7.529  18.426  0.00  0.00    +0.000 NA
ATOM      8  C   UNL     1       4.635   6.471  18.180  0.00  0.00    +0.000 A 
ATOM      9  C   UNL     1       5.914   6.415  17.673  0.00  0.00    +0.000 A 
ATOM     10 CL   UNL     1       6.868   7.735  17.189  0.00  0.00    +0.000 Cl
ENDROOT
BRANCH   6  11
ATOM     11  C   UNL     1       1.643   8.356  19.130  0.00  0.00    +0.000 A 
ATOM     12  C   UNL     1       1.239   9.149  18.051  0.00  0.00    +0.000 A 
ATOM     13  C   UNL     1       0.287  10.158  18.240  0.00  0.00    +0.000 A 
ATOM     14  C   UNL     1      -0.275  10.375  19.503  0.00  0.00    +0.000 A 
ATOM     15  C   UNL     1      -1.312  11.437  19.722  0.00  0.00    +0.000 C 
ATOM     16  C   UNL     1       0.137   9.584  20.578  0.00  0.00    +0.000 A 
ATOM     17  C   UNL     1       1.082   8.574  20.395  0.00  0.00    +0.000 A 
ENDBRANCH   6  11
BRANCH   4  18
ATOM     18  C   UNL     1       2.618   3.458  19.228  0.00  0.00    +0.000 C 
ATOM     19  F   UNL     1       3.414   2.751  20.061  0.00  0.00    +0.000 F 
ATOM     20  F   UNL     1       1.363   3.401  19.758  0.00  0.00    +0.000 F 
ATOM     21  F   UNL     1       2.557   2.751  18.065  0.00  0.00    +0.000 F 
ENDBRANCH   4  18
BRANCH   1  22
ATOM     22  C   UNL     1       7.476   4.447  17.072  0.00  0.00    +0.000 C 
ATOM     23  O   UNL     1       8.397   4.039  17.772  0.00  0.00    +0.000 OA
BRANCH  22  24
ATOM     24  O   UNL     1       7.526   4.494  15.706  0.00  0.00    +0.000 OA
BRANCH  24  26
ATOM     25  C   UNL     1       6.469   4.295  13.581  0.00  0.00    +0.000 C 
ATOM     26  C   UNL     1       6.419   3.877  15.040  0.00  0.00    +0.000 C 
ENDBRANCH  24  26
ENDBRANCH  22  24
ENDBRANCH   1  22
TORSDOF 5
ENDMDL
MODEL 6
REMARK VINA RESULT:      -7.6      1.004      1.474
REMARK  Name = 
REMARK  7 active torsions:
REMARK  status: ('A' for Active; 'I' for Inactive)
REMARK    1  A    between atoms: C_1  and  C_2
REMARK    2  A    between atoms: C_2  and  O_3
REMARK    3  A    between atoms: O_3  and  C_4
REMARK    4  A    between atoms: C_4  and  C_6
REMARK    5  A    between atoms: C_9  and  C_10
REMARK    6  A    between atoms: C_15  and  C_16
REMARK    7  A    between atoms: C_19  and  C_20
REMARK                            x       y       z     vdW  Elec       q    Type
REMARK                         _______ _______ _______ _____ _____    ______ ____
ROOT
ATOM      1  C   UNL     1       4.881   4.606  16.707  0.00  0.00    +0.000 A 
ATOM      2  N   UNL     1       4.306   3.908  17.704  0.00  0.00    +0.000 NA
ATOM      3  N   UNL     1       3.611   4.804  18.435  0.00  0.00    +0.000 N 
ATOM      4  C   UNL     1       2.858   4.585  19.583  0.00  0.00    +0.000 A 
ATOM      5  C   UNL     1       2.228   5.624  20.168  0.00  0.00    +0.000 A 
ATOM      6  C   UNL     1       2.344   6.952  19.495  0.00  0.00    +0.000 A 
ATOM      7  N   UNL     1       3.074   7.169  18.439  0.00  0.00    +0.000 NA
ATOM      8  C   UNL     1       3.722   6.090  17.897  0.00  0.00    +0.000 A 
ATOM      9  C   UNL     1       4.544   5.976  16.798  0.00  0.00    +0.000 A 
ATOM     10 CL   UNL     1       5.010   7.230  15.750  0.00  0.00    +0.000 Cl
ENDROOT
BRANCH   6  11
ATOM     11  C   UNL     1       1.561   8.070  20.092  0.00  0.00    +0.000 A 
ATOM     12  C   UNL     1       1.267   9.196  19.315  0.00  0.00    +0.000 A 
ATOM     13  C   UNL     1       0.493  10.233  19.847  0.00  0.00    +0.000 A 
ATOM     14  C   UNL     1       0.001  10.151  21.155  0.00  0.00    +0.000 A 
ATOM     15  C   UNL     1      -0.847  11.243  21.738  0.00  0.00    +0.000 C 
ATOM     16  C   UNL     1       0.303   9.028  21.929  0.00  0.00    +0.000 A 
ATOM     17  C   UNL     1       1.069   7.988  21.400  0.00  0.00    +0.000 A 
ENDBRANCH   6  11
BRANCH   4  18
ATOM     18  C   UNL     1       2.762   3.223  20.155  0.00  0.00    +0.000 C 
ATOM     19  F   UNL     1       2.197   2.270  19.378  0.00  0.00    +0.000 F 
ATOM     20  F   UNL     1       4.000   2.757  20.490  0.00  0.00    +0.000 F 
ATOM     21  F   UNL     1       2.051   3.241  21.316  0.00  0.00    +0.000 F 
ENDBRANCH   4  18
BRANCH   1  22
ATOM     22  C   UNL     1       5.682   3.953  15.664  0.00  0.00    +0.000 C 
ATOM     23  O   UNL     1       6.755   3.400  15.875  0.00  0.00    +0.000 OA
BRANCH  22  24
ATOM     24  O   UNL     1       5.148   4.120  14.416  0.00  0.00    +0.000 OA
BRANCH  24  26
ATOM     25  C   UNL     1       5.215   3.360  12.159  0.00  0.00    +0.000 C 
ATOM     26  C   UNL     1       6.045   3.846  13.334  0.00  0.00    +0.000 C 
ENDBRANCH  24  26
ENDBRANCH  22  24
ENDBRANCH   1  22
TORSDOF 5
ENDMDL
MODEL 7
REMARK VINA RESULT:      -7.5      3.523      7.309
REMARK  Name = 
REMARK  7 active torsions:
REMARK  status: ('A' for Active; 'I' for Inactive)
REMARK    1  A    between atoms: C_1  and  C_2
REMARK    2  A    between atoms: C_2  and  O_3
REMARK    3  A    between atoms: O_3  and  C_4
REMARK    4  A    between atoms: C_4  and  C_6
REMARK    5  A    between atoms: C_9  and  C_10
REMARK    6  A    between atoms: C_15  and  C_16
REMARK    7  A    between atoms: C_19  and  C_20
REMARK                            x       y       z     vdW  Elec       q    Type
REMARK                         _______ _______ _______ _____ _____    ______ ____
ROOT
ATOM      1  C   UNL     1       1.273   8.260  20.589  0.00  0.00    +0.000 A 
ATOM      2  N   UNL     1       1.417   6.971  20.952  0.00  0.00    +0.000 NA
ATOM      3  N   UNL     1       2.139   6.386  19.974  0.00  0.00    +0.000 N 
ATOM      4  C   UNL     1       2.539   5.059  19.871  0.00  0.00    +0.000 A 
ATOM      5  C   UNL     1       3.268   4.669  18.805  0.00  0.00    +0.000 A 
ATOM      6  C   UNL     1       3.647   5.726  17.821  0.00  0.00    +0.000 A 
ATOM      7  N   UNL     1       3.247   6.964  17.896  0.00  0.00    +0.000 NA
ATOM      8  C   UNL     1       2.482   7.307  18.978  0.00  0.00    +0.000 A 
ATOM      9  C   UNL     1       1.921   8.506  19.357  0.00  0.00    +0.000 A 
ATOM     10 CL   UNL     1       2.033   9.982  18.523  0.00  0.00    +0.000 Cl
ENDROOT
BRANCH   6  11
ATOM     11  C   UNL     1       4.538   5.306  16.704  0.00  0.00    +0.000 A 
ATOM     12  C   UNL     1       4.788   3.945  16.497  0.00  0.00    +0.000 A 
ATOM     13  C   UNL     1       5.586   3.533  15.423  0.00  0.00    +0.000 A 
ATOM     14  C   UNL     1       6.133   4.476  14.544  0.00  0.00    +0.000 A 
ATOM     15  C   UNL     1       6.975   4.054  13.376  0.00  0.00    +0.000 C 
ATOM     16  C   UNL     1       5.885   5.834  14.760  0.00  0.00    +0.000 A 
ATOM     17  C   UNL     1       5.086   6.249  15.825  0.00  0.00    +0.000 A 
ENDBRANCH   6  11
BRANCH   4  18
ATOM     18  C   UNL     1       2.155   4.088  20.920  0.00  0.00    +0.000 C 
ATOM     19  F   UNL     1       0.839   3.791  21.028  0.00  0.00    +0.000 F 
ATOM     20  F   UNL     1       2.799   2.901  20.733  0.00  0.00    +0.000 F 
ATOM     21  F   UNL     1       2.549   4.529  22.147  0.00  0.00    +0.000 F 
ENDBRANCH   4  18
BRANCH   1  22
ATOM     22  C   UNL     1       0.583   9.233  21.444  0.00  0.00    +0.000 C 
ATOM     23  O   UNL     1       0.941   9.516  22.581  0.00  0.00    +0.000 OA
BRANCH  22  24
ATOM     24  O   UNL     1      -0.564   9.710  20.871  0.00  0.00    +0.000 OA
BRANCH  24  26
ATOM     25  C   UNL     1      -1.467  11.480  19.558  0.00  0.00    +0.000 C 
ATOM     26  C   UNL     1      -0.652  11.137  20.791  0.00  0.00    +0.000 C 
ENDBRANCH  24  26
ENDBRANCH  22  24
ENDBRANCH   1  22
TORSDOF 5
ENDMDL
MODEL 8
REMARK VINA RESULT:      -7.5      1.210      1.701
REMARK  Name = 
REMARK  7 active torsions:
REMARK  status: ('A' for Active; 'I' for Inactive)
REMARK    1  A    between atoms: C_1  and  C_2
REMARK    2  A    between atoms: C_2  and  O_3
REMARK    3  A    between atoms: O_3  and  C_4
REMARK    4  A    between atoms: C_4  and  C_6
REMARK    5  A    between atoms: C_9  and  C_10
REMARK    6  A    between atoms: C_15  and  C_16
REMARK    7  A    between atoms: C_19  and  C_20
REMARK                            x       y       z     vdW  Elec       q    Type
REMARK                         _______ _______ _______ _____ _____    ______ ____
ROOT
ATOM      1  C   UNL     1       4.451   4.652  17.076  0.00  0.00    +0.000 A 
ATOM      2  N   UNL     1       3.761   3.989  18.023  0.00  0.00    +0.000 NA
ATOM      3  N   UNL     1       3.139   4.932  18.760  0.00  0.00    +0.000 N 
ATOM      4  C   UNL     1       2.319   4.760  19.870  0.00  0.00    +0.000 A 
ATOM      5  C   UNL     1       1.783   5.842  20.470  0.00  0.00    +0.000 A 
ATOM      6  C   UNL     1       2.072   7.171  19.853  0.00  0.00    +0.000 A 
ATOM      7  N   UNL     1       2.865   7.340  18.834  0.00  0.00    +0.000 NA
ATOM      8  C   UNL     1       3.413   6.215  18.276  0.00  0.00    +0.000 A 
ATOM      9  C   UNL     1       4.262   6.047  17.205  0.00  0.00    +0.000 A 
ATOM     10 CL   UNL     1       4.907   7.276  16.225  0.00  0.00    +0.000 Cl
ENDROOT
BRANCH   6  11
ATOM     11  C   UNL     1       1.392   8.349  20.461  0.00  0.00    +0.000 A 
ATOM     12  C   UNL     1       0.983   9.406  19.642  0.00  0.00    +0.000 A 
ATOM     13  C   UNL     1       0.303  10.498  20.193  0.00  0.00    +0.000 A 
ATOM     14  C   UNL     1       0.018  10.537  21.563  0.00  0.00    +0.000 A 
ATOM     15  C   UNL     1      -0.728  11.689  22.171  0.00  0.00    +0.000 C 
ATOM     16  C   UNL     1       0.435   9.482  22.378  0.00  0.00    +0.000 A 
ATOM     17  C   UNL     1       1.109   8.389  21.832  0.00  0.00    +0.000 A 
ENDBRANCH   6  11
BRANCH   4  18
ATOM     18  C   UNL     1       2.051   3.398  20.386  0.00  0.00    +0.000 C 
ATOM     19  F   UNL     1       3.125   2.647  20.720  0.00  0.00    +0.000 F 
ATOM     20  F   UNL     1       1.264   3.455  21.498  0.00  0.00    +0.000 F 
ATOM     21  F   UNL     1       1.346   2.673  19.474  0.00  0.00    +0.000 F 
ENDBRANCH   4  18
BRANCH   1  22
ATOM     22  C   UNL     1       5.218   3.949  16.040  0.00  0.00    +0.000 C 
ATOM     23  O   UNL     1       5.856   2.923  16.243  0.00  0.00    +0.000 OA
BRANCH  22  24
ATOM     24  O   UNL     1       5.227   4.623  14.850  0.00  0.00    +0.000 OA
BRANCH  24  26
ATOM     25  C   UNL     1       6.023   3.661  12.822  0.00  0.00    +0.000 C 
ATOM     26  C   UNL     1       6.410   4.444  14.063  0.00  0.00    +0.000 C 
ENDBRANCH  24  26
ENDBRANCH  22  24
ENDBRANCH   1  22
TORSDOF 5
ENDMDL
MODEL 9
REMARK VINA RESULT:      -7.4      1.702      2.271
REMARK  Name = 
REMARK  7 active torsions:
REMARK  status: ('A' for Active; 'I' for Inactive)
REMARK    1  A    between atoms: C_1  and  C_2
REMARK    2  A    between atoms: C_2  and  O_3
REMARK    3  A    between atoms: O_3  and  C_4
REMARK    4  A    between atoms: C_4  and  C_6
REMARK    5  A    between atoms: C_9  and  C_10
REMARK    6  A    between atoms: C_15  and  C_16
REMARK    7  A    between atoms: C_19  and  C_20
REMARK                            x       y       z     vdW  Elec       q    Type
REMARK                         _______ _______ _______ _____ _____    ______ ____
ROOT
ATOM      1  C   UNL     1       4.296   4.942  17.572  0.00  0.00    +0.000 A 
ATOM      2  N   UNL     1       3.655   4.266  18.544  0.00  0.00    +0.000 NA
ATOM      3  N   UNL     1       2.968   5.188  19.250  0.00  0.00    +0.000 N 
ATOM      4  C   UNL     1       2.163   4.998  20.367  0.00  0.00    +0.000 A 
ATOM      5  C   UNL     1       1.553   6.060  20.931  0.00  0.00    +0.000 A 
ATOM      6  C   UNL     1       1.747   7.384  20.267  0.00  0.00    +0.000 A 
ATOM      7  N   UNL     1       2.527   7.572  19.240  0.00  0.00    +0.000 NA
ATOM      8  C   UNL     1       3.151   6.470  18.720  0.00  0.00    +0.000 A 
ATOM      9  C   UNL     1       4.010   6.324  17.654  0.00  0.00    +0.000 A 
ATOM     10 CL   UNL     1       4.567   7.560  16.629  0.00  0.00    +0.000 Cl
ENDROOT
BRANCH   6  11
ATOM     11  C   UNL     1       0.987   8.531  20.835  0.00  0.00    +0.000 A 
ATOM     12  C   UNL     1       0.696   8.554  22.203  0.00  0.00    +0.000 A 
ATOM     13  C   UNL     1       0.023   9.648  22.759  0.00  0.00    +0.000 A 
ATOM     14  C   UNL     1      -0.357  10.730  21.956  0.00  0.00    +0.000 A 
ATOM     15  C   UNL     1      -1.062  11.920  22.536  0.00  0.00    +0.000 C 
ATOM     16  C   UNL     1      -0.070  10.698  20.589  0.00  0.00    +0.000 A 
ATOM     17  C   UNL     1       0.606   9.613  20.031  0.00  0.00    +0.000 A 
ENDBRANCH   6  11
BRANCH   4  18
ATOM     18  C   UNL     1       1.991   3.640  20.931  0.00  0.00    +0.000 C 
ATOM     19  F   UNL     1       2.745   2.653  20.394  0.00  0.00    +0.000 F 
ATOM     20  F   UNL     1       2.258   3.640  22.268  0.00  0.00    +0.000 F 
ATOM     21  F   UNL     1       0.695   3.236  20.816  0.00  0.00    +0.000 F 
ENDBRANCH   4  18
BRANCH   1  22
ATOM     22  C   UNL     1       5.110   4.258  16.560  0.00  0.00    +0.000 C 
ATOM     23  O   UNL     1       4.709   3.983  15.435  0.00  0.00    +0.000 OA
BRANCH  22  24
ATOM     24  O   UNL     1       6.328   3.868  17.046  0.00  0.00    +0.000 OA
BRANCH  24  26
ATOM     25  C   UNL     1       7.648   5.279  18.438  0.00  0.00    +0.000 C 
ATOM     26  C   UNL     1       7.345   4.875  17.007  0.00  0.00    +0.000 C 
ENDBRANCH  24  26
ENDBRANCH  22  24
ENDBRANCH   1  22
TORSDOF 5
ENDMDL
