MODEL 1
REMARK VINA RESULT:      -8.2      0.000      0.000
REMARK  Name = 
REMARK  9 active torsions:
REMARK  status: ('A' for Active; 'I' for Inactive)
REMARK    1  A    between atoms: C_1  and  C_2
REMARK    2  A    between atoms: C_5  and  N_6
REMARK    3  A    between atoms: C_7  and  C_9
REMARK    4  A    between atoms: C_9  and  C_10
REMARK    5  A    between atoms: C_10  and  C_11
REMARK    6  A    between atoms: C_11  and  N_12
REMARK    7  A    between atoms: C_14  and  C_15
REMARK    8  A    between atoms: C_17  and  C_18
REMARK    9  A    between atoms: N_19  and  C_20
REMARK                            x       y       z     vdW  Elec       q    Type
REMARK                         _______ _______ _______ _____ _____    ______ ____
ROOT
ATOM      1  N   UNL     1       3.706   2.835  19.015  0.00  0.00    +0.000 N 
ATOM      2  N   UNL     1       4.589   3.710  19.646  0.00  0.00    +0.000 NA
ATOM      3  C   UNL     1       5.452   4.411  18.968  0.00  0.00    +0.000 A 
ATOM      4  C   UNL     1       6.358   5.338  19.725  0.00  0.00    +0.000 C 
ATOM      5  C   UNL     1       5.505   4.283  17.534  0.00  0.00    +0.000 A 
ATOM      6  C   UNL     1       6.294   4.858  16.551  0.00  0.00    +0.000 A 
ATOM      7  C   UNL     1       7.340   5.910  16.651  0.00  0.00    +0.000 C 
ATOM      8  N   UNL     1       5.869   4.286  15.345  0.00  0.00    +0.000 N 
ATOM      9  N   UNL     1       4.755   3.515  15.533  0.00  0.00    +0.000 NA
ATOM     10  C   UNL     1       4.595   3.454  16.865  0.00  0.00    +0.000 A 
ATOM     11  C   UNL     1       3.601   2.668  17.612  0.00  0.00    +0.000 A 
ATOM     12  O   UNL     1       2.771   1.929  17.086  0.00  0.00    +0.000 OA
ENDROOT
BRANCH   8  13
ATOM     13  C   UNL     1       6.440   4.410  14.034  0.00  0.00    +0.000 A 
ATOM     14  C   UNL     1       7.420   5.371  13.741  0.00  0.00    +0.000 A 
ATOM     15  C   UNL     1       7.976   5.469  12.461  0.00  0.00    +0.000 A 
ATOM     16  C   UNL     1       7.566   4.602  11.456  0.00  0.00    +0.000 A 
ATOM     17  C   UNL     1       6.602   3.633  11.733  0.00  0.00    +0.000 A 
ATOM     18  C   UNL     1       6.045   3.529  13.016  0.00  0.00    +0.000 A 
ENDBRANCH   8  13
BRANCH   1  19
ATOM     19  C   UNL     1       2.815   2.107  19.927  0.00  0.00    +0.000 C 
BRANCH  19  20
ATOM     20  C   UNL     1       3.037   2.508  21.387  0.00  0.00    +0.000 C 
BRANCH  20  21
ATOM     21  C   UNL     1       1.889   3.350  21.948  0.00  0.00    +0.000 C 
BRANCH  21  23
ATOM     22  N   UNL     1       2.352   5.494  20.882  0.00  0.00    +0.000 N 
ATOM     23  C   UNL     1       1.485   4.413  20.939  0.00  0.00    +0.000 C 
ATOM     24  O   UNL     1       0.446   4.276  20.299  0.00  0.00    +0.000 OA
ATOM     25  H   UNL     1       3.201   5.436  21.433  0.00  0.00    +0.000 HD
BRANCH  22  30
ATOM     26  C   UNL     1       1.513  10.332  17.873  0.00  0.00    +0.000 C 
ATOM     27  C   UNL     1       1.734   9.084  18.680  0.00  0.00    +0.000 A 
ATOM     28  C   UNL     1       2.425   8.015  18.104  0.00  0.00    +0.000 A 
ATOM     29  C   UNL     1       2.645   6.829  18.816  0.00  0.00    +0.000 A 
ATOM     30  C   UNL     1       2.177   6.677  20.120  0.00  0.00    +0.000 A 
ATOM     31  C   UNL     1       1.486   7.743  20.708  0.00  0.00    +0.000 A 
ATOM     32  C   UNL     1       1.267   8.934  19.992  0.00  0.00    +0.000 A 
ATOM     33 CL   UNL     1       0.403  10.210  20.783  0.00  0.00    +0.000 Cl
ENDBRANCH  22  30
ENDBRANCH  21  23
ENDBRANCH  20  21
ENDBRANCH  19  20
ENDBRANCH   1  19
TORSDOF 6
ENDMDL
MODEL 2
REMARK VINA RESULT:      -7.9      6.396     12.118
REMARK  Name = 
REMARK  9 active torsions:
REMARK  status: ('A' for Active; 'I' for Inactive)
REMARK    1  A    between atoms: C_1  and  C_2
REMARK    2  A    between atoms: C_5  and  N_6
REMARK    3  A    between atoms: C_7  and  C_9
REMARK    4  A    between atoms: C_9  and  C_10
REMARK    5  A    between atoms: C_10  and  C_11
REMARK    6  A    between atoms: C_11  and  N_12
REMARK    7  A    between atoms: C_14  and  C_15
REMARK    8  A    between atoms: C_17  and  C_18
REMARK    9  A    between atoms: N_19  and  C_20
REMARK                            x       y       z     vdW  Elec       q    Type
REMARK                         _______ _______ _______ _____ _____    ______ ____
ROOT
ATOM      1  N   UNL     1      -0.807  11.549  19.203  0.00  0.00    +0.000 N 
ATOM      2  N   UNL     1      -1.703  11.266  18.173  0.00  0.00    +0.000 NA
ATOM      3  C   UNL     1      -2.967  11.565  18.269  0.00  0.00    +0.000 A 
ATOM      4  C   UNL     1      -3.860  11.235  17.109  0.00  0.00    +0.000 C 
ATOM      5  C   UNL     1      -3.460  12.201  19.465  0.00  0.00    +0.000 A 
ATOM      6  C   UNL     1      -4.713  12.621  19.876  0.00  0.00    +0.000 A 
ATOM      7  C   UNL     1      -6.011  12.632  19.150  0.00  0.00    +0.000 C 
ATOM      8  N   UNL     1      -4.534  13.132  21.168  0.00  0.00    +0.000 N 
ATOM      9  N   UNL     1      -3.207  13.188  21.493  0.00  0.00    +0.000 NA
ATOM     10  C   UNL     1      -2.576  12.549  20.495  0.00  0.00    +0.000 A 
ATOM     11  C   UNL     1      -1.142  12.235  20.397  0.00  0.00    +0.000 A 
ATOM     12  O   UNL     1      -0.315  12.520  21.261  0.00  0.00    +0.000 OA
ENDROOT
BRANCH   8  13
ATOM     13  C   UNL     1      -5.521  13.564  22.116  0.00  0.00    +0.000 A 
ATOM     14  C   UNL     1      -6.251  12.651  22.893  0.00  0.00    +0.000 A 
ATOM     15  C   UNL     1      -7.201  13.091  23.822  0.00  0.00    +0.000 A 
ATOM     16  C   UNL     1      -7.429  14.450  23.995  0.00  0.00    +0.000 A 
ATOM     17  C   UNL     1      -6.703  15.372  23.240  0.00  0.00    +0.000 A 
ATOM     18  C   UNL     1      -5.748  14.935  22.310  0.00  0.00    +0.000 A 
ENDBRANCH   8  13
BRANCH   1  19
ATOM     19  C   UNL     1       0.574  11.127  18.942  0.00  0.00    +0.000 C 
BRANCH  19  20
ATOM     20  C   UNL     1       0.637   9.751  18.275  0.00  0.00    +0.000 C 
BRANCH  20  21
ATOM     21  C   UNL     1       2.067   9.325  17.936  0.00  0.00    +0.000 C 
BRANCH  21  23
ATOM     22  N   UNL     1       2.787   7.023  17.578  0.00  0.00    +0.000 N 
ATOM     23  C   UNL     1       2.347   7.948  18.514  0.00  0.00    +0.000 C 
ATOM     24  O   UNL     1       2.137   7.737  19.705  0.00  0.00    +0.000 OA
ATOM     25  H   UNL     1       2.966   7.363  16.641  0.00  0.00    +0.000 HD
BRANCH  22  30
ATOM     26  C   UNL     1       3.608   1.410  18.573  0.00  0.00    +0.000 C 
ATOM     27  C   UNL     1       3.371   2.869  18.302  0.00  0.00    +0.000 A 
ATOM     28  C   UNL     1       4.461   3.692  18.003  0.00  0.00    +0.000 A 
ATOM     29  C   UNL     1       4.286   5.059  17.754  0.00  0.00    +0.000 A 
ATOM     30  C   UNL     1       3.021   5.642  17.802  0.00  0.00    +0.000 A 
ATOM     31  C   UNL     1       1.922   4.827  18.097  0.00  0.00    +0.000 A 
ATOM     32  C   UNL     1       2.099   3.453  18.346  0.00  0.00    +0.000 A 
ATOM     33 CL   UNL     1       0.694   2.507  18.708  0.00  0.00    +0.000 Cl
ENDBRANCH  22  30
ENDBRANCH  21  23
ENDBRANCH  20  21
ENDBRANCH  19  20
ENDBRANCH   1  19
TORSDOF 6
ENDMDL
MODEL 3
REMARK VINA RESULT:      -7.9      4.752     10.512
REMARK  Name = 
REMARK  9 active torsions:
REMARK  status: ('A' for Active; 'I' for Inactive)
REMARK    1  A    between atoms: C_1  and  C_2
REMARK    2  A    between atoms: C_5  and  N_6
REMARK    3  A    between atoms: C_7  and  C_9
REMARK    4  A    between atoms: C_9  and  C_10
REMARK    5  A    between atoms: C_10  and  C_11
REMARK    6  A    between atoms: C_11  and  N_12
REMARK    7  A    between atoms: C_14  and  C_15
REMARK    8  A    between atoms: C_17  and  C_18
REMARK    9  A    between atoms: N_19  and  C_20
REMARK                            x       y       z     vdW  Elec       q    Type
REMARK                         _______ _______ _______ _____ _____    ______ ____
ROOT
ATOM      1  N   UNL     1       0.983   8.837  20.684  0.00  0.00    +0.000 N 
ATOM      2  N   UNL     1       0.323   9.233  19.521  0.00  0.00    +0.000 NA
ATOM      3  C   UNL     1      -0.472  10.264  19.509  0.00  0.00    +0.000 A 
ATOM      4  C   UNL     1      -1.134  10.629  18.212  0.00  0.00    +0.000 C 
ATOM      5  C   UNL     1      -0.684  11.016  20.720  0.00  0.00    +0.000 A 
ATOM      6  C   UNL     1      -1.457  12.120  21.037  0.00  0.00    +0.000 A 
ATOM      7  C   UNL     1      -2.300  12.986  20.170  0.00  0.00    +0.000 C 
ATOM      8  N   UNL     1      -1.252  12.343  22.405  0.00  0.00    +0.000 N 
ATOM      9  N   UNL     1      -0.269  11.527  22.893  0.00  0.00    +0.000 NA
ATOM     10  C   UNL     1       0.007  10.677  21.891  0.00  0.00    +0.000 A 
ATOM     11  C   UNL     1       0.923   9.526  21.920  0.00  0.00    +0.000 A 
ATOM     12  O   UNL     1       1.564   9.182  22.911  0.00  0.00    +0.000 OA
ENDROOT
BRANCH   8  13
ATOM     13  C   UNL     1      -1.918  13.263  23.282  0.00  0.00    +0.000 A 
ATOM     14  C   UNL     1      -3.242  13.058  23.704  0.00  0.00    +0.000 A 
ATOM     15  C   UNL     1      -3.871  13.959  24.570  0.00  0.00    +0.000 A 
ATOM     16  C   UNL     1      -3.185  15.074  25.034  0.00  0.00    +0.000 A 
ATOM     17  C   UNL     1      -1.866  15.286  24.634  0.00  0.00    +0.000 A 
ATOM     18  C   UNL     1      -1.230  14.384  23.770  0.00  0.00    +0.000 A 
ENDBRANCH   8  13
BRANCH   1  19
ATOM     19  C   UNL     1       1.824   7.643  20.529  0.00  0.00    +0.000 C 
BRANCH  19  20
ATOM     20  C   UNL     1       1.051   6.355  20.819  0.00  0.00    +0.000 C 
BRANCH  20  21
ATOM     21  C   UNL     1       1.943   5.112  20.786  0.00  0.00    +0.000 C 
BRANCH  21  23
ATOM     22  N   UNL     1       3.919   4.935  19.369  0.00  0.00    +0.000 N 
ATOM     23  C   UNL     1       2.532   4.934  19.397  0.00  0.00    +0.000 C 
ATOM     24  O   UNL     1       1.783   4.848  18.428  0.00  0.00    +0.000 OA
ATOM     25  H   UNL     1       4.400   4.959  20.260  0.00  0.00    +0.000 HD
BRANCH  22  30
ATOM     26  C   UNL     1       7.272   4.936  14.687  0.00  0.00    +0.000 C 
ATOM     27  C   UNL     1       6.417   4.945  15.922  0.00  0.00    +0.000 A 
ATOM     28  C   UNL     1       5.458   3.942  16.094  0.00  0.00    +0.000 A 
ATOM     29  C   UNL     1       4.634   3.919  17.225  0.00  0.00    +0.000 A 
ATOM     30  C   UNL     1       4.740   4.897  18.213  0.00  0.00    +0.000 A 
ATOM     31  C   UNL     1       5.698   5.904  18.053  0.00  0.00    +0.000 A 
ATOM     32  C   UNL     1       6.528   5.926  16.916  0.00  0.00    +0.000 A 
ATOM     33 CL   UNL     1       7.690   7.203  16.784  0.00  0.00    +0.000 Cl
ENDBRANCH  22  30
ENDBRANCH  21  23
ENDBRANCH  20  21
ENDBRANCH  19  20
ENDBRANCH   1  19
TORSDOF 6
ENDMDL
MODEL 4
REMARK VINA RESULT:      -7.8      3.730      8.688
REMARK  Name = 
REMARK  9 active torsions:
REMARK  status: ('A' for Active; 'I' for Inactive)
REMARK    1  A    between atoms: C_1  and  C_2
REMARK    2  A    between atoms: C_5  and  N_6
REMARK    3  A    between atoms: C_7  and  C_9
REMARK    4  A    between atoms: C_9  and  C_10
REMARK    5  A    between atoms: C_10  and  C_11
REMARK    6  A    between atoms: C_11  and  N_12
REMARK    7  A    between atoms: C_14  and  C_15
REMARK    8  A    between atoms: C_17  and  C_18
REMARK    9  A    between atoms: N_19  and  C_20
REMARK                            x       y       z     vdW  Elec       q    Type
REMARK                         _______ _______ _______ _____ _____    ______ ____
ROOT
ATOM      1  N   UNL     1       1.675   7.981  20.111  0.00  0.00    +0.000 N 
ATOM      2  N   UNL     1       1.119   8.170  21.376  0.00  0.00    +0.000 NA
ATOM      3  C   UNL     1       0.665   9.331  21.752  0.00  0.00    +0.000 A 
ATOM      4  C   UNL     1       0.072   9.444  23.127  0.00  0.00    +0.000 C 
ATOM      5  C   UNL     1       0.738  10.452  20.850  0.00  0.00    +0.000 A 
ATOM      6  C   UNL     1       0.370  11.783  20.948  0.00  0.00    +0.000 A 
ATOM      7  C   UNL     1      -0.332  12.510  22.039  0.00  0.00    +0.000 C 
ATOM      8  N   UNL     1       0.742  12.367  19.730  0.00  0.00    +0.000 N 
ATOM      9  N   UNL     1       1.169  11.419  18.842  0.00  0.00    +0.000 NA
ATOM     10  C   UNL     1       1.241  10.283  19.553  0.00  0.00    +0.000 A 
ATOM     11  C   UNL     1       1.742   8.975  19.103  0.00  0.00    +0.000 A 
ATOM     12  O   UNL     1       2.187   8.758  17.977  0.00  0.00    +0.000 OA
ENDROOT
BRANCH   8  13
ATOM     13  C   UNL     1       0.728  13.750  19.348  0.00  0.00    +0.000 A 
ATOM     14  C   UNL     1      -0.469  14.432  19.076  0.00  0.00    +0.000 A 
ATOM     15  C   UNL     1      -0.465  15.784  18.718  0.00  0.00    +0.000 A 
ATOM     16  C   UNL     1       0.735  16.479  18.634  0.00  0.00    +0.000 A 
ATOM     17  C   UNL     1       1.933  15.820  18.912  0.00  0.00    +0.000 A 
ATOM     18  C   UNL     1       1.933  14.466  19.275  0.00  0.00    +0.000 A 
ENDBRANCH   8  13
BRANCH   1  19
ATOM     19  C   UNL     1       2.158   6.618  19.856  0.00  0.00    +0.000 C 
BRANCH  19  20
ATOM     20  C   UNL     1       1.436   5.583  20.721  0.00  0.00    +0.000 C 
BRANCH  20  21
ATOM     21  C   UNL     1       1.229   4.251  19.998  0.00  0.00    +0.000 C 
BRANCH  21  23
ATOM     22  N   UNL     1       3.376   4.312  18.844  0.00  0.00    +0.000 N 
ATOM     23  C   UNL     1       2.000   4.248  18.688  0.00  0.00    +0.000 C 
ATOM     24  O   UNL     1       1.386   4.232  17.625  0.00  0.00    +0.000 OA
ATOM     25  H   UNL     1       3.737   4.262  19.789  0.00  0.00    +0.000 HD
BRANCH  22  30
ATOM     26  C   UNL     1       7.300   4.956  14.678  0.00  0.00    +0.000 C 
ATOM     27  C   UNL     1       6.294   4.795  15.783  0.00  0.00    +0.000 A 
ATOM     28  C   UNL     1       5.332   3.786  15.686  0.00  0.00    +0.000 A 
ATOM     29  C   UNL     1       4.370   3.608  16.687  0.00  0.00    +0.000 A 
ATOM     30  C   UNL     1       4.338   4.433  17.809  0.00  0.00    +0.000 A 
ATOM     31  C   UNL     1       5.299   5.445  17.918  0.00  0.00    +0.000 A 
ATOM     32  C   UNL     1       6.267   5.623  16.912  0.00  0.00    +0.000 A 
ATOM     33 CL   UNL     1       7.422   6.897  17.113  0.00  0.00    +0.000 Cl
ENDBRANCH  22  30
ENDBRANCH  21  23
ENDBRANCH  20  21
ENDBRANCH  19  20
ENDBRANCH   1  19
TORSDOF 6
ENDMDL
MODEL 5
REMARK VINA RESULT:      -7.7      0.589      1.042
REMARK  Name = 
REMARK  9 active torsions:
REMARK  status: ('A' for Active; 'I' for Inactive)
REMARK    1  A    between atoms: C_1  and  C_2
REMARK    2  A    between atoms: C_5  and  N_6
REMARK    3  A    between atoms: C_7  and  C_9
REMARK    4  A    between atoms: C_9  and  C_10
REMARK    5  A    between atoms: C_10  and  C_11
REMARK    6  A    between atoms: C_11  and  N_12
REMARK    7  A    between atoms: C_14  and  C_15
REMARK    8  A    between atoms: C_17  and  C_18
REMARK    9  A    between atoms: N_19  and  C_20
REMARK                            x       y       z     vdW  Elec       q    Type
REMARK                         _______ _______ _______ _____ _____    ______ ____
ROOT
ATOM      1  N   UNL     1       4.558   2.845  19.634  0.00  0.00    +0.000 N 
ATOM      2  N   UNL     1       5.339   3.927  20.038  0.00  0.00    +0.000 NA
ATOM      3  C   UNL     1       5.967   4.673  19.175  0.00  0.00    +0.000 A 
ATOM      4  C   UNL     1       6.777   5.825  19.695  0.00  0.00    +0.000 C 
ATOM      5  C   UNL     1       5.862   4.379  17.768  0.00  0.00    +0.000 A 
ATOM      6  C   UNL     1       6.402   4.950  16.629  0.00  0.00    +0.000 A 
ATOM      7  C   UNL     1       7.243   6.166  16.469  0.00  0.00    +0.000 C 
ATOM      8  N   UNL     1       5.941   4.170  15.561  0.00  0.00    +0.000 N 
ATOM      9  N   UNL     1       5.019   3.253  15.986  0.00  0.00    +0.000 NA
ATOM     10  C   UNL     1       5.041   3.332  17.326  0.00  0.00    +0.000 A 
ATOM     11  C   UNL     1       4.309   2.490  18.285  0.00  0.00    +0.000 A 
ATOM     12  O   UNL     1       3.569   1.563  17.962  0.00  0.00    +0.000 OA
ENDROOT
BRANCH   8  13
ATOM     13  C   UNL     1       6.310   4.223  14.175  0.00  0.00    +0.000 A 
ATOM     14  C   UNL     1       5.626   3.482  13.198  0.00  0.00    +0.000 A 
ATOM     15  C   UNL     1       5.991   3.557  11.849  0.00  0.00    +0.000 A 
ATOM     16  C   UNL     1       7.039   4.379  11.455  0.00  0.00    +0.000 A 
ATOM     17  C   UNL     1       7.721   5.132  12.412  0.00  0.00    +0.000 A 
ATOM     18  C   UNL     1       7.356   5.063  13.764  0.00  0.00    +0.000 A 
ENDBRANCH   8  13
BRANCH   1  19
ATOM     19  C   UNL     1       3.937   2.098  20.734  0.00  0.00    +0.000 C 
BRANCH  19  20
ATOM     20  C   UNL     1       2.433   2.359  20.828  0.00  0.00    +0.000 C 
BRANCH  20  21
ATOM     21  C   UNL     1       2.101   3.603  21.655  0.00  0.00    +0.000 C 
BRANCH  21  23
ATOM     22  N   UNL     1       2.464   5.782  20.622  0.00  0.00    +0.000 N 
ATOM     23  C   UNL     1       1.593   4.710  20.745  0.00  0.00    +0.000 C 
ATOM     24  O   UNL     1       0.481   4.611  20.234  0.00  0.00    +0.000 OA
ATOM     25  H   UNL     1       3.373   5.692  21.061  0.00  0.00    +0.000 HD
BRANCH  22  30
ATOM     26  C   UNL     1       1.332  10.739  17.918  0.00  0.00    +0.000 C 
ATOM     27  C   UNL     1       1.631   9.459  18.646  0.00  0.00    +0.000 A 
ATOM     28  C   UNL     1       2.322   8.442  17.980  0.00  0.00    +0.000 A 
ATOM     29  C   UNL     1       2.612   7.230  18.617  0.00  0.00    +0.000 A 
ATOM     30  C   UNL     1       2.216   6.997  19.933  0.00  0.00    +0.000 A 
ATOM     31  C   UNL     1       1.526   8.008  20.610  0.00  0.00    +0.000 A 
ATOM     32  C   UNL     1       1.237   9.227  19.969  0.00  0.00    +0.000 A 
ATOM     33 CL   UNL     1       0.378  10.433  20.869  0.00  0.00    +0.000 Cl
ENDBRANCH  22  30
ENDBRANCH  21  23
ENDBRANCH  20  21
ENDBRANCH  19  20
ENDBRANCH   1  19
TORSDOF 6
ENDMDL
MODEL 6
REMARK VINA RESULT:      -7.7      4.725      6.242
REMARK  Name = 
REMARK  9 active torsions:
REMARK  status: ('A' for Active; 'I' for Inactive)
REMARK    1  A    between atoms: C_1  and  C_2
REMARK    2  A    between atoms: C_5  and  N_6
REMARK    3  A    between atoms: C_7  and  C_9
REMARK    4  A    between atoms: C_9  and  C_10
REMARK    5  A    between atoms: C_10  and  C_11
REMARK    6  A    between atoms: C_11  and  N_12
REMARK    7  A    between atoms: C_14  and  C_15
REMARK    8  A    between atoms: C_17  and  C_18
REMARK    9  A    between atoms: N_19  and  C_20
REMARK                            x       y       z     vdW  Elec       q    Type
REMARK                         _______ _______ _______ _____ _____    ______ ____
ROOT
ATOM      1  N   UNL     1       1.409   7.828  20.043  0.00  0.00    +0.000 N 
ATOM      2  N   UNL     1       1.465   6.633  20.760  0.00  0.00    +0.000 NA
ATOM      3  C   UNL     1       2.249   5.659  20.398  0.00  0.00    +0.000 A 
ATOM      4  C   UNL     1       2.256   4.412  21.233  0.00  0.00    +0.000 C 
ATOM      5  C   UNL     1       3.077   5.807  19.227  0.00  0.00    +0.000 A 
ATOM      6  C   UNL     1       3.980   4.978  18.584  0.00  0.00    +0.000 A 
ATOM      7  C   UNL     1       4.480   3.628  18.955  0.00  0.00    +0.000 C 
ATOM      8  N   UNL     1       4.429   5.702  17.472  0.00  0.00    +0.000 N 
ATOM      9  N   UNL     1       3.963   6.987  17.502  0.00  0.00    +0.000 NA
ATOM     10  C   UNL     1       3.085   7.015  18.517  0.00  0.00    +0.000 A 
ATOM     11  C   UNL     1       2.220   8.134  18.923  0.00  0.00    +0.000 A 
ATOM     12  O   UNL     1       2.185   9.221  18.347  0.00  0.00    +0.000 OA
ENDROOT
BRANCH   8  13
ATOM     13  C   UNL     1       5.259   5.268  16.384  0.00  0.00    +0.000 A 
ATOM     14  C   UNL     1       6.627   5.579  16.326  0.00  0.00    +0.000 A 
ATOM     15  C   UNL     1       7.424   5.136  15.265  0.00  0.00    +0.000 A 
ATOM     16  C   UNL     1       6.868   4.368  14.250  0.00  0.00    +0.000 A 
ATOM     17  C   UNL     1       5.513   4.039  14.298  0.00  0.00    +0.000 A 
ATOM     18  C   UNL     1       4.712   4.478  15.362  0.00  0.00    +0.000 A 
ENDBRANCH   8  13
BRANCH   1  19
ATOM     19  C   UNL     1       0.459   8.813  20.575  0.00  0.00    +0.000 C 
BRANCH  19  20
ATOM     20  C   UNL     1       0.947   9.429  21.887  0.00  0.00    +0.000 C 
BRANCH  20  21
ATOM     21  C   UNL     1      -0.193   9.709  22.868  0.00  0.00    +0.000 C 
BRANCH  21  23
ATOM     22  N   UNL     1      -1.976  11.343  23.183  0.00  0.00    +0.000 N 
ATOM     23  C   UNL     1      -0.701  11.129  22.680  0.00  0.00    +0.000 C 
ATOM     24  O   UNL     1      -0.003  11.947  22.087  0.00  0.00    +0.000 OA
ATOM     25  H   UNL     1      -2.404  10.582  23.698  0.00  0.00    +0.000 HD
BRANCH  22  30
ATOM     26  C   UNL     1      -5.096  16.138  22.516  0.00  0.00    +0.000 C 
ATOM     27  C   UNL     1      -4.300  14.873  22.678  0.00  0.00    +0.000 A 
ATOM     28  C   UNL     1      -3.518  14.702  23.824  0.00  0.00    +0.000 A 
ATOM     29  C   UNL     1      -2.754  13.544  24.010  0.00  0.00    +0.000 A 
ATOM     30  C   UNL     1      -2.745  12.528  23.057  0.00  0.00    +0.000 A 
ATOM     31  C   UNL     1      -3.526  12.686  21.907  0.00  0.00    +0.000 A 
ATOM     32  C   UNL     1      -4.296  13.850  21.721  0.00  0.00    +0.000 A 
ATOM     33 CL   UNL     1      -5.236  13.978  20.272  0.00  0.00    +0.000 Cl
ENDBRANCH  22  30
ENDBRANCH  21  23
ENDBRANCH  20  21
ENDBRANCH  19  20
ENDBRANCH   1  19
TORSDOF 6
ENDMDL
MODEL 7
REMARK VINA RESULT:      -7.6      3.580      5.373
REMARK  Name = 
REMARK  9 active torsions:
REMARK  status: ('A' for Active; 'I' for Inactive)
REMARK    1  A    between atoms: C_1  and  C_2
REMARK    2  A    between atoms: C_5  and  N_6
REMARK    3  A    between atoms: C_7  and  C_9
REMARK    4  A    between atoms: C_9  and  C_10
REMARK    5  A    between atoms: C_10  and  C_11
REMARK    6  A    between atoms: C_11  and  N_12
REMARK    7  A    between atoms: C_14  and  C_15
REMARK    8  A    between atoms: C_17  and  C_18
REMARK    9  A    between atoms: N_19  and  C_20
REMARK                            x       y       z     vdW  Elec       q    Type
REMARK                         _______ _______ _______ _____ _____    ______ ____
ROOT
ATOM      1  N   UNL     1       1.306   7.216  20.546  0.00  0.00    +0.000 N 
ATOM      2  N   UNL     1       1.387   5.960  21.146  0.00  0.00    +0.000 NA
ATOM      3  C   UNL     1       2.199   5.045  20.701  0.00  0.00    +0.000 A 
ATOM      4  C   UNL     1       2.232   3.724  21.412  0.00  0.00    +0.000 C 
ATOM      5  C   UNL     1       3.035   5.327  19.561  0.00  0.00    +0.000 A 
ATOM      6  C   UNL     1       3.966   4.587  18.852  0.00  0.00    +0.000 A 
ATOM      7  C   UNL     1       4.497   3.220  19.097  0.00  0.00    +0.000 C 
ATOM      8  N   UNL     1       4.406   5.426  17.820  0.00  0.00    +0.000 N 
ATOM      9  N   UNL     1       3.906   6.690  17.968  0.00  0.00    +0.000 NA
ATOM     10  C   UNL     1       3.017   6.598  18.970  0.00  0.00    +0.000 A 
ATOM     11  C   UNL     1       2.119   7.650  19.470  0.00  0.00    +0.000 A 
ATOM     12  O   UNL     1       2.061   8.785  19.002  0.00  0.00    +0.000 OA
ENDROOT
BRANCH   8  13
ATOM     13  C   UNL     1       5.257   5.120  16.706  0.00  0.00    +0.000 A 
ATOM     14  C   UNL     1       6.627   5.427  16.714  0.00  0.00    +0.000 A 
ATOM     15  C   UNL     1       7.446   5.109  15.625  0.00  0.00    +0.000 A 
ATOM     16  C   UNL     1       6.909   4.472  14.513  0.00  0.00    +0.000 A 
ATOM     17  C   UNL     1       5.552   4.149  14.493  0.00  0.00    +0.000 A 
ATOM     18  C   UNL     1       4.729   4.462  15.584  0.00  0.00    +0.000 A 
ENDBRANCH   8  13
BRANCH   1  19
ATOM     19  C   UNL     1       0.325   8.121  21.159  0.00  0.00    +0.000 C 
BRANCH  19  20
ATOM     20  C   UNL     1       0.960   9.022  22.219  0.00  0.00    +0.000 C 
BRANCH  20  21
ATOM     21  C   UNL     1      -0.079   9.747  23.077  0.00  0.00    +0.000 C 
BRANCH  21  23
ATOM     22  N   UNL     1       0.328  11.487  21.417  0.00  0.00    +0.000 N 
ATOM     23  C   UNL     1      -0.566  10.994  22.357  0.00  0.00    +0.000 C 
ATOM     24  O   UNL     1      -1.646  11.488  22.666  0.00  0.00    +0.000 OA
ATOM     25  H   UNL     1       1.157  10.935  21.234  0.00  0.00    +0.000 HD
BRANCH  22  30
ATOM     26  C   UNL     1      -0.225  16.443  18.537  0.00  0.00    +0.000 C 
ATOM     27  C   UNL     1      -0.060  15.159  19.300  0.00  0.00    +0.000 A 
ATOM     28  C   UNL     1      -0.419  13.954  18.691  0.00  0.00    +0.000 A 
ATOM     29  C   UNL     1      -0.291  12.736  19.369  0.00  0.00    +0.000 A 
ATOM     30  C   UNL     1       0.195  12.688  20.675  0.00  0.00    +0.000 A 
ATOM     31  C   UNL     1       0.561  13.888  21.294  0.00  0.00    +0.000 A 
ATOM     32  C   UNL     1       0.433  15.112  20.610  0.00  0.00    +0.000 A 
ATOM     33 CL   UNL     1       0.903  16.558  21.440  0.00  0.00    +0.000 Cl
ENDBRANCH  22  30
ENDBRANCH  21  23
ENDBRANCH  20  21
ENDBRANCH  19  20
ENDBRANCH   1  19
TORSDOF 6
ENDMDL
MODEL 8
REMARK VINA RESULT:      -7.5      4.566      6.228
REMARK  Name = 
REMARK  9 active torsions:
REMARK  status: ('A' for Active; 'I' for Inactive)
REMARK    1  A    between atoms: C_1  and  C_2
REMARK    2  A    between atoms: C_5  and  N_6
REMARK    3  A    between atoms: C_7  and  C_9
REMARK    4  A    between atoms: C_9  and  C_10
REMARK    5  A    between atoms: C_10  and  C_11
REMARK    6  A    between atoms: C_11  and  N_12
REMARK    7  A    between atoms: C_14  and  C_15
REMARK    8  A    between atoms: C_17  and  C_18
REMARK    9  A    between atoms: N_19  and  C_20
REMARK                            x       y       z     vdW  Elec       q    Type
REMARK                         _______ _______ _______ _____ _____    ______ ____
ROOT
ATOM      1  N   UNL     1       1.332   7.184  20.517  0.00  0.00    +0.000 N 
ATOM      2  N   UNL     1       1.417   5.932  21.125  0.00  0.00    +0.000 NA
ATOM      3  C   UNL     1       2.224   5.013  20.678  0.00  0.00    +0.000 A 
ATOM      4  C   UNL     1       2.261   3.696  21.398  0.00  0.00    +0.000 C 
ATOM      5  C   UNL     1       3.048   5.285  19.527  0.00  0.00    +0.000 A 
ATOM      6  C   UNL     1       3.970   4.538  18.814  0.00  0.00    +0.000 A 
ATOM      7  C   UNL     1       4.502   3.172  19.064  0.00  0.00    +0.000 C 
ATOM      8  N   UNL     1       4.401   5.369  17.771  0.00  0.00    +0.000 N 
ATOM      9  N   UNL     1       3.904   6.635  17.915  0.00  0.00    +0.000 NA
ATOM     10  C   UNL     1       3.026   6.551  18.927  0.00  0.00    +0.000 A 
ATOM     11  C   UNL     1       2.135   7.608  19.429  0.00  0.00    +0.000 A 
ATOM     12  O   UNL     1       2.074   8.741  18.953  0.00  0.00    +0.000 OA
ENDROOT
BRANCH   8  13
ATOM     13  C   UNL     1       5.240   5.053  16.650  0.00  0.00    +0.000 A 
ATOM     14  C   UNL     1       4.736   4.419  15.503  0.00  0.00    +0.000 A 
ATOM     15  C   UNL     1       5.566   4.131  14.414  0.00  0.00    +0.000 A 
ATOM     16  C   UNL     1       6.911   4.479  14.451  0.00  0.00    +0.000 A 
ATOM     17  C   UNL     1       7.425   5.120  15.579  0.00  0.00    +0.000 A 
ATOM     18  C   UNL     1       6.596   5.414  16.671  0.00  0.00    +0.000 A 
ENDBRANCH   8  13
BRANCH   1  19
ATOM     19  C   UNL     1       0.359   8.095  21.133  0.00  0.00    +0.000 C 
BRANCH  19  20
ATOM     20  C   UNL     1       1.034   9.128  22.037  0.00  0.00    +0.000 C 
BRANCH  20  21
ATOM     21  C   UNL     1       0.705  10.567  21.636  0.00  0.00    +0.000 C 
BRANCH  21  23
ATOM     22  N   UNL     1      -1.184  12.103  21.778  0.00  0.00    +0.000 N 
ATOM     23  C   UNL     1      -0.526  11.046  22.389  0.00  0.00    +0.000 C 
ATOM     24  O   UNL     1      -0.822  10.522  23.459  0.00  0.00    +0.000 OA
ATOM     25  H   UNL     1      -0.851  12.390  20.865  0.00  0.00    +0.000 HD
BRANCH  22  30
ATOM     26  C   UNL     1      -5.746  15.011  23.754  0.00  0.00    +0.000 C 
ATOM     27  C   UNL     1      -4.571  14.232  23.234  0.00  0.00    +0.000 A 
ATOM     28  C   UNL     1      -3.311  14.437  23.804  0.00  0.00    +0.000 A 
ATOM     29  C   UNL     1      -2.188  13.740  23.343  0.00  0.00    +0.000 A 
ATOM     30  C   UNL     1      -2.290  12.823  22.299  0.00  0.00    +0.000 A 
ATOM     31  C   UNL     1      -3.547  12.606  21.723  0.00  0.00    +0.000 A 
ATOM     32  C   UNL     1      -4.675  13.307  22.188  0.00  0.00    +0.000 A 
ATOM     33 CL   UNL     1      -6.198  12.989  21.425  0.00  0.00    +0.000 Cl
ENDBRANCH  22  30
ENDBRANCH  21  23
ENDBRANCH  20  21
ENDBRANCH  19  20
ENDBRANCH   1  19
TORSDOF 6
ENDMDL
MODEL 9
REMARK VINA RESULT:      -7.5      4.982      6.561
REMARK  Name = 
REMARK  9 active torsions:
REMARK  status: ('A' for Active; 'I' for Inactive)
REMARK    1  A    between atoms: C_1  and  C_2
REMARK    2  A    between atoms: C_5  and  N_6
REMARK    3  A    between atoms: C_7  and  C_9
REMARK    4  A    between atoms: C_9  and  C_10
REMARK    5  A    between atoms: C_10  and  C_11
REMARK    6  A    between atoms: C_11  and  N_12
REMARK    7  A    between atoms: C_14  and  C_15
REMARK    8  A    between atoms: C_17  and  C_18
REMARK    9  A    between atoms: N_19  and  C_20
REMARK                            x       y       z     vdW  Elec       q    Type
REMARK                         _______ _______ _______ _____ _____    ______ ____
ROOT
ATOM      1  N   UNL     1       1.516   8.430  19.490  0.00  0.00    +0.000 N 
ATOM      2  N   UNL     1       1.506   7.307  20.318  0.00  0.00    +0.000 NA
ATOM      3  C   UNL     1       2.244   6.266  20.060  0.00  0.00    +0.000 A 
ATOM      4  C   UNL     1       2.181   5.105  21.009  0.00  0.00    +0.000 C 
ATOM      5  C   UNL     1       3.089   6.262  18.893  0.00  0.00    +0.000 A 
ATOM      6  C   UNL     1       3.956   5.333  18.343  0.00  0.00    +0.000 A 
ATOM      7  C   UNL     1       4.384   4.001  18.847  0.00  0.00    +0.000 C 
ATOM      8  N   UNL     1       4.451   5.925  17.174  0.00  0.00    +0.000 N 
ATOM      9  N   UNL     1       4.049   7.229  17.076  0.00  0.00    +0.000 NA
ATOM     10  C   UNL     1       3.163   7.395  18.072  0.00  0.00    +0.000 A 
ATOM     11  C   UNL     1       2.351   8.588  18.357  0.00  0.00    +0.000 A 
ATOM     12  O   UNL     1       2.376   9.616  17.682  0.00  0.00    +0.000 OA
ENDROOT
BRANCH   8  13
ATOM     13  C   UNL     1       5.268   5.350  16.144  0.00  0.00    +0.000 A 
ATOM     14  C   UNL     1       4.725   4.541  15.133  0.00  0.00    +0.000 A 
ATOM     15  C   UNL     1       5.534   3.999  14.129  0.00  0.00    +0.000 A 
ATOM     16  C   UNL     1       6.898   4.264  14.115  0.00  0.00    +0.000 A 
ATOM     17  C   UNL     1       7.452   5.075  15.105  0.00  0.00    +0.000 A 
ATOM     18  C   UNL     1       6.644   5.623  16.111  0.00  0.00    +0.000 A 
ENDBRANCH   8  13
BRANCH   1  19
ATOM     19  C   UNL     1       0.611   9.506  19.914  0.00  0.00    +0.000 C 
BRANCH  19  20
ATOM     20  C   UNL     1       0.989  10.066  21.286  0.00  0.00    +0.000 C 
BRANCH  20  21
ATOM     21  C   UNL     1      -0.173  10.029  22.279  0.00  0.00    +0.000 C 
BRANCH  21  23
ATOM     22  N   UNL     1      -1.967  11.466  23.094  0.00  0.00    +0.000 N 
ATOM     23  C   UNL     1      -0.719  11.432  22.491  0.00  0.00    +0.000 C 
ATOM     24  O   UNL     1      -0.073  12.398  22.095  0.00  0.00    +0.000 OA
ATOM     25  H   UNL     1      -2.350  10.585  23.415  0.00  0.00    +0.000 HD
BRANCH  22  30
ATOM     26  C   UNL     1      -5.138  16.159  24.139  0.00  0.00    +0.000 C 
ATOM     27  C   UNL     1      -4.289  14.949  23.868  0.00  0.00    +0.000 A 
ATOM     28  C   UNL     1      -4.773  13.956  23.011  0.00  0.00    +0.000 A 
ATOM     29  C   UNL     1      -4.019  12.808  22.739  0.00  0.00    +0.000 A 
ATOM     30  C   UNL     1      -2.766  12.617  23.317  0.00  0.00    +0.000 A 
ATOM     31  C   UNL     1      -2.270  13.606  24.174  0.00  0.00    +0.000 A 
ATOM     32  C   UNL     1      -3.028  14.760  24.446  0.00  0.00    +0.000 A 
ATOM     33 CL   UNL     1      -2.351  15.941  25.518  0.00  0.00    +0.000 Cl
ENDBRANCH  22  30
ENDBRANCH  21  23
ENDBRANCH  20  21
ENDBRANCH  19  20
ENDBRANCH   1  19
TORSDOF 6
ENDMDL
