MODEL 1
REMARK VINA RESULT:      -6.8      0.000      0.000
REMARK  Name = 
REMARK  9 active torsions:
REMARK  status: ('A' for Active; 'I' for Inactive)
REMARK    1  A    between atoms: C_1  and  O_2
REMARK    2  A    between atoms: O_2  and  C_3
REMARK    3  A    between atoms: C_4  and  C_5
REMARK    4  A    between atoms: C_9  and  C_10
REMARK    5  A    between atoms: N_12  and  C_13
REMARK    6  A    between atoms: C_15  and  C_16
REMARK    7  A    between atoms: C_20  and  N_21
REMARK    8  A    between atoms: C_24  and  O_25
REMARK    9  A    between atoms: O_25  and  C_26
REMARK                            x       y       z     vdW  Elec       q    Type
REMARK                         _______ _______ _______ _____ _____    ______ ____
ROOT
ATOM      1  C   UNL     1      -1.407  14.191  21.872  0.00  0.00    +0.000 A 
ATOM      2  C   UNL     1      -1.997  15.141  22.721  0.00  0.00    +0.000 A 
ATOM      3  C   UNL     1      -3.022  14.783  23.603  0.00  0.00    +0.000 A 
ATOM      4  C   UNL     1      -3.462  13.464  23.642  0.00  0.00    +0.000 A 
ATOM      5  C   UNL     1      -2.862  12.507  22.822  0.00  0.00    +0.000 A 
ATOM      6  C   UNL     1      -1.816  12.831  21.936  0.00  0.00    +0.000 A 
ENDROOT
BRANCH   6   7
ATOM      7  N   UNL     1      -1.199  11.823  21.204  0.00  0.00    +0.000 N 
ATOM      8  C   UNL     1      -0.185  10.968  21.809  0.00  0.00    +0.000 C 
ATOM      9  C   UNL     1       1.128  11.157  21.065  0.00  0.00    +0.000 C 
ATOM     10  C   UNL     1       0.968  10.789  19.585  0.00  0.00    +0.000 C 
ATOM     11  C   UNL     1      -0.107  11.690  18.967  0.00  0.00    +0.000 C 
ATOM     12  C   UNL     1      -1.405  11.701  19.760  0.00  0.00    +0.000 C 
BRANCH  10  13
ATOM     13  O   UNL     1       0.582   9.413  19.411  0.00  0.00    +0.000 OA
BRANCH  13  14
ATOM     14  C   UNL     1       1.550   8.527  19.011  0.00  0.00    +0.000 A 
ATOM     15  C   UNL     1       2.259   8.609  17.807  0.00  0.00    +0.000 A 
ATOM     16  C   UNL     1       3.251   7.679  17.499  0.00  0.00    +0.000 A 
ATOM     17  C   UNL     1       3.527   6.649  18.385  0.00  0.00    +0.000 A 
ATOM     18  F   UNL     1       4.470   5.751  18.073  0.00  0.00    +0.000 F 
ATOM     19  C   UNL     1       2.839   6.539  19.586  0.00  0.00    +0.000 A 
ATOM     20  C   UNL     1       1.865   7.486  19.895  0.00  0.00    +0.000 A 
ATOM     21  F   UNL     1       1.212   7.371  21.062  0.00  0.00    +0.000 F 
ENDBRANCH  13  14
ENDBRANCH  10  13
ENDBRANCH   6   7
BRANCH   1  24
ATOM     22  C   UNL     1       0.907  14.688  21.056  0.00  0.00    +0.000 C 
ATOM     23  O   UNL     1       1.476  14.503  22.134  0.00  0.00    +0.000 OA
ATOM     24  N   UNL     1      -0.453  14.565  20.884  0.00  0.00    +0.000 N 
ATOM     25  H   UNL     1      -0.811  14.655  19.939  0.00  0.00    +0.000 HD
BRANCH  22  32
ATOM     26  C   UNL     1       1.606  16.077  18.925  0.00  0.00    +0.000 A 
ATOM     27  C   UNL     1       2.569  16.234  17.892  0.00  0.00    +0.000 A 
ATOM     28  C   UNL     1       2.644  17.369  16.905  0.00  0.00    +0.000 C 
ATOM     29  C   UNL     1       3.582  15.263  17.731  0.00  0.00    +0.000 A 
ATOM     30  C   UNL     1       3.706  14.193  18.598  0.00  0.00    +0.000 A 
ATOM     31  C   UNL     1       2.811  14.078  19.649  0.00  0.00    +0.000 A 
ATOM     32  C   UNL     1       1.761  14.998  19.845  0.00  0.00    +0.000 A 
BRANCH  26  34
ATOM     33  C   UNL     1      -0.555  16.913  18.236  0.00  0.00    +0.000 C 
ATOM     34  O   UNL     1       0.551  16.935  19.144  0.00  0.00    +0.000 OA
ENDBRANCH  26  34
ENDBRANCH  22  32
ENDBRANCH   1  24
BRANCH   3  35
ATOM     35  C   UNL     1      -3.627  15.768  24.447  0.00  0.00    +0.000 C 
ATOM     36  N   UNL     1      -4.134  16.541  25.149  0.00  0.00    +0.000 NA
ENDBRANCH   3  35
TORSDOF 7
ENDMDL
MODEL 2
REMARK VINA RESULT:      -6.7      2.853      5.520
REMARK  Name = 
REMARK  9 active torsions:
REMARK  status: ('A' for Active; 'I' for Inactive)
REMARK    1  A    between atoms: C_1  and  O_2
REMARK    2  A    between atoms: O_2  and  C_3
REMARK    3  A    between atoms: C_4  and  C_5
REMARK    4  A    between atoms: C_9  and  C_10
REMARK    5  A    between atoms: N_12  and  C_13
REMARK    6  A    between atoms: C_15  and  C_16
REMARK    7  A    between atoms: C_20  and  N_21
REMARK    8  A    between atoms: C_24  and  O_25
REMARK    9  A    between atoms: O_25  and  C_26
REMARK                            x       y       z     vdW  Elec       q    Type
REMARK                         _______ _______ _______ _____ _____    ______ ____
ROOT
ATOM      1  C   UNL     1       0.417  13.822  18.775  0.00  0.00    +0.000 A 
ATOM      2  C   UNL     1       0.319  15.215  18.627  0.00  0.00    +0.000 A 
ATOM      3  C   UNL     1       1.355  16.059  19.039  0.00  0.00    +0.000 A 
ATOM      4  C   UNL     1       2.503  15.511  19.602  0.00  0.00    +0.000 A 
ATOM      5  C   UNL     1       2.621  14.126  19.728  0.00  0.00    +0.000 A 
ATOM      6  C   UNL     1       1.604  13.247  19.306  0.00  0.00    +0.000 A 
ENDROOT
BRANCH   6   7
ATOM      7  N   UNL     1       1.809  11.874  19.378  0.00  0.00    +0.000 N 
ATOM      8  C   UNL     1       2.254  11.119  18.213  0.00  0.00    +0.000 C 
ATOM      9  C   UNL     1       1.191  10.093  17.854  0.00  0.00    +0.000 C 
ATOM     10  C   UNL     1       0.951   9.131  19.023  0.00  0.00    +0.000 C 
ATOM     11  C   UNL     1       0.494   9.941  20.241  0.00  0.00    +0.000 C 
ATOM     12  C   UNL     1       1.414  11.110  20.562  0.00  0.00    +0.000 C 
BRANCH  10  13
ATOM     13  O   UNL     1       2.141   8.398  19.370  0.00  0.00    +0.000 OA
BRANCH  13  14
ATOM     14  C   UNL     1       2.092   7.029  19.280  0.00  0.00    +0.000 A 
ATOM     15  C   UNL     1       2.386   6.295  18.126  0.00  0.00    +0.000 A 
ATOM     16  C   UNL     1       2.342   4.901  18.138  0.00  0.00    +0.000 A 
ATOM     17  C   UNL     1       1.984   4.234  19.300  0.00  0.00    +0.000 A 
ATOM     18  F   UNL     1       1.927   2.896  19.296  0.00  0.00    +0.000 F 
ATOM     19  C   UNL     1       1.684   4.935  20.459  0.00  0.00    +0.000 A 
ATOM     20  C   UNL     1       1.753   6.327  20.445  0.00  0.00    +0.000 A 
ATOM     21  F   UNL     1       1.466   6.992  21.574  0.00  0.00    +0.000 F 
ENDBRANCH  13  14
ENDBRANCH  10  13
ENDBRANCH   6   7
BRANCH   1  24
ATOM     22  C   UNL     1      -1.710  12.618  19.317  0.00  0.00    +0.000 C 
ATOM     23  O   UNL     1      -1.799  13.012  20.481  0.00  0.00    +0.000 OA
ATOM     24  N   UNL     1      -0.676  12.962  18.476  0.00  0.00    +0.000 N 
ATOM     25  H   UNL     1      -0.742  12.655  17.512  0.00  0.00    +0.000 HD
BRANCH  22  32
ATOM     26  C   UNL     1      -4.237  11.951  18.954  0.00  0.00    +0.000 A 
ATOM     27  C   UNL     1      -5.133  11.076  18.281  0.00  0.00    +0.000 A 
ATOM     28  C   UNL     1      -6.635  11.182  18.257  0.00  0.00    +0.000 C 
ATOM     29  C   UNL     1      -4.621   9.988  17.542  0.00  0.00    +0.000 A 
ATOM     30  C   UNL     1      -3.260   9.785  17.396  0.00  0.00    +0.000 A 
ATOM     31  C   UNL     1      -2.385  10.678  17.991  0.00  0.00    +0.000 A 
ATOM     32  C   UNL     1      -2.835  11.767  18.766  0.00  0.00    +0.000 A 
BRANCH  26  34
ATOM     33  C   UNL     1      -5.258  12.747  20.994  0.00  0.00    +0.000 C 
ATOM     34  O   UNL     1      -4.625  13.013  19.738  0.00  0.00    +0.000 OA
ENDBRANCH  26  34
ENDBRANCH  22  32
ENDBRANCH   1  24
BRANCH   3  35
ATOM     35  C   UNL     1       1.230  17.478  18.900  0.00  0.00    +0.000 C 
ATOM     36  N   UNL     1       1.152  18.628  18.759  0.00  0.00    +0.000 NA
ENDBRANCH   3  35
TORSDOF 7
ENDMDL
MODEL 3
REMARK VINA RESULT:      -6.6      3.001      5.608
REMARK  Name = 
REMARK  9 active torsions:
REMARK  status: ('A' for Active; 'I' for Inactive)
REMARK    1  A    between atoms: C_1  and  O_2
REMARK    2  A    between atoms: O_2  and  C_3
REMARK    3  A    between atoms: C_4  and  C_5
REMARK    4  A    between atoms: C_9  and  C_10
REMARK    5  A    between atoms: N_12  and  C_13
REMARK    6  A    between atoms: C_15  and  C_16
REMARK    7  A    between atoms: C_20  and  N_21
REMARK    8  A    between atoms: C_24  and  O_25
REMARK    9  A    between atoms: O_25  and  C_26
REMARK                            x       y       z     vdW  Elec       q    Type
REMARK                         _______ _______ _______ _____ _____    ______ ____
ROOT
ATOM      1  C   UNL     1       0.255  13.838  18.790  0.00  0.00    +0.000 A 
ATOM      2  C   UNL     1       0.167  15.214  18.529  0.00  0.00    +0.000 A 
ATOM      3  C   UNL     1       1.184  16.090  18.921  0.00  0.00    +0.000 A 
ATOM      4  C   UNL     1       2.303  15.589  19.578  0.00  0.00    +0.000 A 
ATOM      5  C   UNL     1       2.413  14.219  19.816  0.00  0.00    +0.000 A 
ATOM      6  C   UNL     1       1.415  13.308  19.418  0.00  0.00    +0.000 A 
ENDROOT
BRANCH   6   7
ATOM      7  N   UNL     1       1.614  11.945  19.605  0.00  0.00    +0.000 N 
ATOM      8  C   UNL     1       2.102  11.100  18.521  0.00  0.00    +0.000 C 
ATOM      9  C   UNL     1       1.050  10.048  18.204  0.00  0.00    +0.000 C 
ATOM     10  C   UNL     1       0.764   9.182  19.436  0.00  0.00    +0.000 C 
ATOM     11  C   UNL     1       0.262  10.085  20.568  0.00  0.00    +0.000 C 
ATOM     12  C   UNL     1       1.172  11.276  20.830  0.00  0.00    +0.000 C 
BRANCH  10  13
ATOM     13  O   UNL     1       1.938   8.479  19.885  0.00  0.00    +0.000 OA
BRANCH  13  14
ATOM     14  C   UNL     1       1.962   7.116  19.726  0.00  0.00    +0.000 A 
ATOM     15  C   UNL     1       1.492   6.195  20.669  0.00  0.00    +0.000 A 
ATOM     16  C   UNL     1       1.526   4.825  20.406  0.00  0.00    +0.000 A 
ATOM     17  C   UNL     1       2.051   4.368  19.206  0.00  0.00    +0.000 A 
ATOM     18  F   UNL     1       2.096   3.051  18.971  0.00  0.00    +0.000 F 
ATOM     19  C   UNL     1       2.527   5.257  18.253  0.00  0.00    +0.000 A 
ATOM     20  C   UNL     1       2.467   6.625  18.515  0.00  0.00    +0.000 A 
ATOM     21  F   UNL     1       2.926   7.473  17.582  0.00  0.00    +0.000 F 
ENDBRANCH  13  14
ENDBRANCH  10  13
ENDBRANCH   6   7
BRANCH   1  24
ATOM     22  C   UNL     1      -1.900  12.679  19.324  0.00  0.00    +0.000 C 
ATOM     23  O   UNL     1      -2.043  13.165  20.447  0.00  0.00    +0.000 OA
ATOM     24  N   UNL     1      -0.825  12.955  18.508  0.00  0.00    +0.000 N 
ATOM     25  H   UNL     1      -0.845  12.571  17.570  0.00  0.00    +0.000 HD
BRANCH  22  32
ATOM     26  C   UNL     1      -4.385  11.818  19.122  0.00  0.00    +0.000 A 
ATOM     27  C   UNL     1      -5.268  10.934  18.444  0.00  0.00    +0.000 A 
ATOM     28  C   UNL     1      -6.768  10.902  18.567  0.00  0.00    +0.000 C 
ATOM     29  C   UNL     1      -4.744   9.975  17.551  0.00  0.00    +0.000 A 
ATOM     30  C   UNL     1      -3.392   9.915  17.262  0.00  0.00    +0.000 A 
ATOM     31  C   UNL     1      -2.539  10.822  17.867  0.00  0.00    +0.000 A 
ATOM     32  C   UNL     1      -2.999  11.785  18.790  0.00  0.00    +0.000 A 
BRANCH  26  34
ATOM     33  C   UNL     1      -5.551  13.880  19.602  0.00  0.00    +0.000 C 
ATOM     34  O   UNL     1      -4.781  12.759  20.046  0.00  0.00    +0.000 OA
ENDBRANCH  26  34
ENDBRANCH  22  32
ENDBRANCH   1  24
BRANCH   3  35
ATOM     35  C   UNL     1       1.069  17.493  18.667  0.00  0.00    +0.000 C 
ATOM     36  N   UNL     1       0.999  18.629  18.433  0.00  0.00    +0.000 NA
ENDBRANCH   3  35
TORSDOF 7
ENDMDL
MODEL 4
REMARK VINA RESULT:      -6.6      0.771      1.120
REMARK  Name = 
REMARK  9 active torsions:
REMARK  status: ('A' for Active; 'I' for Inactive)
REMARK    1  A    between atoms: C_1  and  O_2
REMARK    2  A    between atoms: O_2  and  C_3
REMARK    3  A    between atoms: C_4  and  C_5
REMARK    4  A    between atoms: C_9  and  C_10
REMARK    5  A    between atoms: N_12  and  C_13
REMARK    6  A    between atoms: C_15  and  C_16
REMARK    7  A    between atoms: C_20  and  N_21
REMARK    8  A    between atoms: C_24  and  O_25
REMARK    9  A    between atoms: O_25  and  C_26
REMARK                            x       y       z     vdW  Elec       q    Type
REMARK                         _______ _______ _______ _____ _____    ______ ____
ROOT
ATOM      1  C   UNL     1      -1.464  14.085  21.918  0.00  0.00    +0.000 A 
ATOM      2  C   UNL     1      -2.064  15.048  22.745  0.00  0.00    +0.000 A 
ATOM      3  C   UNL     1      -3.095  14.703  23.624  0.00  0.00    +0.000 A 
ATOM      4  C   UNL     1      -3.532  13.384  23.682  0.00  0.00    +0.000 A 
ATOM      5  C   UNL     1      -2.923  12.414  22.885  0.00  0.00    +0.000 A 
ATOM      6  C   UNL     1      -1.869  12.725  22.003  0.00  0.00    +0.000 A 
ENDROOT
BRANCH   6   7
ATOM      7  N   UNL     1      -1.243  11.706  21.294  0.00  0.00    +0.000 N 
ATOM      8  C   UNL     1      -0.261  10.840  21.934  0.00  0.00    +0.000 C 
ATOM      9  C   UNL     1       1.077  11.008  21.231  0.00  0.00    +0.000 C 
ATOM     10  C   UNL     1       0.959  10.636  19.748  0.00  0.00    +0.000 C 
ATOM     11  C   UNL     1      -0.083  11.549  19.093  0.00  0.00    +0.000 C 
ATOM     12  C   UNL     1      -1.406  11.581  19.845  0.00  0.00    +0.000 C 
BRANCH  10  13
ATOM     13  O   UNL     1       0.560   9.265  19.566  0.00  0.00    +0.000 OA
BRANCH  13  14
ATOM     14  C   UNL     1       1.538   8.354  19.258  0.00  0.00    +0.000 A 
ATOM     15  C   UNL     1       1.883   7.255  20.053  0.00  0.00    +0.000 A 
ATOM     16  C   UNL     1       2.872   6.360  19.642  0.00  0.00    +0.000 A 
ATOM     17  C   UNL     1       3.535   6.571  18.442  0.00  0.00    +0.000 A 
ATOM     18  F   UNL     1       4.494   5.717  18.065  0.00  0.00    +0.000 F 
ATOM     19  C   UNL     1       3.217   7.654  17.634  0.00  0.00    +0.000 A 
ATOM     20  C   UNL     1       2.212   8.530  18.042  0.00  0.00    +0.000 A 
ATOM     21  F   UNL     1       1.911   9.569  17.247  0.00  0.00    +0.000 F 
ENDBRANCH  13  14
ENDBRANCH  10  13
ENDBRANCH   6   7
BRANCH   1  24
ATOM     22  C   UNL     1       0.850  14.620  21.125  0.00  0.00    +0.000 C 
ATOM     23  O   UNL     1       1.402  14.505  22.221  0.00  0.00    +0.000 OA
ATOM     24  N   UNL     1      -0.502  14.444  20.933  0.00  0.00    +0.000 N 
ATOM     25  H   UNL     1      -0.842  14.477  19.978  0.00  0.00    +0.000 HD
BRANCH  22  32
ATOM     26  C   UNL     1       1.599  15.982  18.993  0.00  0.00    +0.000 A 
ATOM     27  C   UNL     1       2.573  16.107  17.965  0.00  0.00    +0.000 A 
ATOM     28  C   UNL     1       2.686  17.237  16.975  0.00  0.00    +0.000 C 
ATOM     29  C   UNL     1       3.558  15.108  17.812  0.00  0.00    +0.000 A 
ATOM     30  C   UNL     1       3.646  14.037  18.683  0.00  0.00    +0.000 A 
ATOM     31  C   UNL     1       2.743  13.951  19.730  0.00  0.00    +0.000 A 
ATOM     32  C   UNL     1       1.719  14.902  19.917  0.00  0.00    +0.000 A 
BRANCH  26  34
ATOM     33  C   UNL     1      -0.577  16.812  18.349  0.00  0.00    +0.000 C 
ATOM     34  O   UNL     1       0.569  16.870  19.204  0.00  0.00    +0.000 OA
ENDBRANCH  26  34
ENDBRANCH  22  32
ENDBRANCH   1  24
BRANCH   3  35
ATOM     35  C   UNL     1      -3.710  15.701  24.444  0.00  0.00    +0.000 C 
ATOM     36  N   UNL     1      -4.178  16.516  25.126  0.00  0.00    +0.000 NA
ENDBRANCH   3  35
TORSDOF 7
ENDMDL
MODEL 5
REMARK VINA RESULT:      -6.5      3.088      4.835
REMARK  Name = 
REMARK  9 active torsions:
REMARK  status: ('A' for Active; 'I' for Inactive)
REMARK    1  A    between atoms: C_1  and  O_2
REMARK    2  A    between atoms: O_2  and  C_3
REMARK    3  A    between atoms: C_4  and  C_5
REMARK    4  A    between atoms: C_9  and  C_10
REMARK    5  A    between atoms: N_12  and  C_13
REMARK    6  A    between atoms: C_15  and  C_16
REMARK    7  A    between atoms: C_20  and  N_21
REMARK    8  A    between atoms: C_24  and  O_25
REMARK    9  A    between atoms: O_25  and  C_26
REMARK                            x       y       z     vdW  Elec       q    Type
REMARK                         _______ _______ _______ _____ _____    ______ ____
ROOT
ATOM      1  C   UNL     1      -2.750  14.626  22.356  0.00  0.00    +0.000 A 
ATOM      2  C   UNL     1      -3.414  15.657  23.039  0.00  0.00    +0.000 A 
ATOM      3  C   UNL     1      -2.961  16.107  24.283  0.00  0.00    +0.000 A 
ATOM      4  C   UNL     1      -1.831  15.528  24.851  0.00  0.00    +0.000 A 
ATOM      5  C   UNL     1      -1.147  14.522  24.166  0.00  0.00    +0.000 A 
ATOM      6  C   UNL     1      -1.567  14.058  22.904  0.00  0.00    +0.000 A 
ENDROOT
BRANCH   6   7
ATOM      7  N   UNL     1      -0.802  13.114  22.229  0.00  0.00    +0.000 N 
ATOM      8  C   UNL     1       0.043  13.496  21.105  0.00  0.00    +0.000 C 
ATOM      9  C   UNL     1      -0.433  12.766  19.858  0.00  0.00    +0.000 C 
ATOM     10  C   UNL     1      -0.358  11.248  20.060  0.00  0.00    +0.000 C 
ATOM     11  C   UNL     1      -1.243  10.865  21.250  0.00  0.00    +0.000 C 
ATOM     12  C   UNL     1      -0.953  11.683  22.500  0.00  0.00    +0.000 C 
BRANCH  10  13
ATOM     13  O   UNL     1       0.988  10.805  20.316  0.00  0.00    +0.000 OA
BRANCH  13  14
ATOM     14  C   UNL     1       1.422   9.680  19.660  0.00  0.00    +0.000 A 
ATOM     15  C   UNL     1       1.727   9.620  18.295  0.00  0.00    +0.000 A 
ATOM     16  C   UNL     1       2.194   8.438  17.721  0.00  0.00    +0.000 A 
ATOM     17  C   UNL     1       2.341   7.303  18.505  0.00  0.00    +0.000 A 
ATOM     18  F   UNL     1       2.773   6.169  17.941  0.00  0.00    +0.000 F 
ATOM     19  C   UNL     1       2.043   7.331  19.860  0.00  0.00    +0.000 A 
ATOM     20  C   UNL     1       1.599   8.523  20.431  0.00  0.00    +0.000 A 
ATOM     21  F   UNL     1       1.321   8.537  21.743  0.00  0.00    +0.000 F 
ENDBRANCH  13  14
ENDBRANCH  10  13
ENDBRANCH   6   7
BRANCH   1  24
ATOM     22  C   UNL     1      -4.177  13.045  21.039  0.00  0.00    +0.000 C 
ATOM     23  O   UNL     1      -4.644  12.442  22.007  0.00  0.00    +0.000 OA
ATOM     24  N   UNL     1      -3.270  14.074  21.151  0.00  0.00    +0.000 N 
ATOM     25  H   UNL     1      -3.013  14.560  20.299  0.00  0.00    +0.000 HD
BRANCH  22  32
ATOM     26  C   UNL     1      -5.880  13.119  19.026  0.00  0.00    +0.000 A 
ATOM     27  C   UNL     1      -6.132  12.711  17.688  0.00  0.00    +0.000 A 
ATOM     28  C   UNL     1      -7.271  13.166  16.815  0.00  0.00    +0.000 C 
ATOM     29  C   UNL     1      -5.258  11.795  17.063  0.00  0.00    +0.000 A 
ATOM     30  C   UNL     1      -4.119  11.331  17.696  0.00  0.00    +0.000 A 
ATOM     31  C   UNL     1      -3.834  11.784  18.973  0.00  0.00    +0.000 A 
ATOM     32  C   UNL     1      -4.682  12.676  19.660  0.00  0.00    +0.000 A 
BRANCH  26  34
ATOM     33  C   UNL     1      -7.792  13.420  20.474  0.00  0.00    +0.000 C 
ATOM     34  O   UNL     1      -6.688  13.969  19.747  0.00  0.00    +0.000 OA
ENDBRANCH  26  34
ENDBRANCH  22  32
ENDBRANCH   1  24
BRANCH   3  35
ATOM     35  C   UNL     1      -3.662  17.144  24.976  0.00  0.00    +0.000 C 
ATOM     36  N   UNL     1      -4.243  17.961  25.562  0.00  0.00    +0.000 NA
ENDBRANCH   3  35
TORSDOF 7
ENDMDL
MODEL 6
REMARK VINA RESULT:      -6.3      3.016      6.132
REMARK  Name = 
REMARK  9 active torsions:
REMARK  status: ('A' for Active; 'I' for Inactive)
REMARK    1  A    between atoms: C_1  and  O_2
REMARK    2  A    between atoms: O_2  and  C_3
REMARK    3  A    between atoms: C_4  and  C_5
REMARK    4  A    between atoms: C_9  and  C_10
REMARK    5  A    between atoms: N_12  and  C_13
REMARK    6  A    between atoms: C_15  and  C_16
REMARK    7  A    between atoms: C_20  and  N_21
REMARK    8  A    between atoms: C_24  and  O_25
REMARK    9  A    between atoms: O_25  and  C_26
REMARK                            x       y       z     vdW  Elec       q    Type
REMARK                         _______ _______ _______ _____ _____    ______ ____
ROOT
ATOM      1  C   UNL     1      -1.671  12.517  22.006  0.00  0.00    +0.000 A 
ATOM      2  C   UNL     1      -2.796  12.119  22.745  0.00  0.00    +0.000 A 
ATOM      3  C   UNL     1      -3.530  13.043  23.496  0.00  0.00    +0.000 A 
ATOM      4  C   UNL     1      -3.141  14.378  23.509  0.00  0.00    +0.000 A 
ATOM      5  C   UNL     1      -2.041  14.789  22.754  0.00  0.00    +0.000 A 
ATOM      6  C   UNL     1      -1.292  13.887  21.973  0.00  0.00    +0.000 A 
ENDROOT
BRANCH   6   7
ATOM      7  N   UNL     1      -0.257  14.364  21.176  0.00  0.00    +0.000 N 
ATOM      8  C   UNL     1      -0.525  14.943  19.865  0.00  0.00    +0.000 C 
ATOM      9  C   UNL     1       0.170  14.104  18.804  0.00  0.00    +0.000 C 
ATOM     10  C   UNL     1       1.683  14.071  19.047  0.00  0.00    +0.000 C 
ATOM     11  C   UNL     1       1.946  13.469  20.432  0.00  0.00    +0.000 C 
ATOM     12  C   UNL     1       1.143  14.138  21.537  0.00  0.00    +0.000 C 
BRANCH  10  13
ATOM     13  O   UNL     1       2.268  15.385  18.990  0.00  0.00    +0.000 OA
BRANCH  13  14
ATOM     14  C   UNL     1       3.635  15.471  18.921  0.00  0.00    +0.000 A 
ATOM     15  C   UNL     1       4.429  14.801  17.983  0.00  0.00    +0.000 A 
ATOM     16  C   UNL     1       5.813  14.974  17.968  0.00  0.00    +0.000 A 
ATOM     17  C   UNL     1       6.413  15.804  18.903  0.00  0.00    +0.000 A 
ATOM     18  F   UNL     1       7.744  15.950  18.892  0.00  0.00    +0.000 F 
ATOM     19  C   UNL     1       5.653  16.479  19.848  0.00  0.00    +0.000 A 
ATOM     20  C   UNL     1       4.268  16.317  19.841  0.00  0.00    +0.000 A 
ATOM     21  F   UNL     1       3.544  16.981  20.756  0.00  0.00    +0.000 F 
ENDBRANCH  13  14
ENDBRANCH  10  13
ENDBRANCH   6   7
BRANCH   1  24
ATOM     22  C   UNL     1      -0.096  10.572  21.922  0.00  0.00    +0.000 C 
ATOM     23  O   UNL     1      -0.035  10.391  23.140  0.00  0.00    +0.000 OA
ATOM     24  N   UNL     1      -0.844  11.570  21.339  0.00  0.00    +0.000 N 
ATOM     25  H   UNL     1      -0.895  11.579  20.326  0.00  0.00    +0.000 HD
BRANCH  22  32
ATOM     26  C   UNL     1       0.827   9.697  19.611  0.00  0.00    +0.000 A 
ATOM     27  C   UNL     1       1.617   8.710  18.962  0.00  0.00    +0.000 A 
ATOM     28  C   UNL     1       2.029   8.705  17.514  0.00  0.00    +0.000 C 
ATOM     29  C   UNL     1       2.095   7.605  19.700  0.00  0.00    +0.000 A 
ATOM     30  C   UNL     1       1.872   7.490  21.061  0.00  0.00    +0.000 A 
ATOM     31  C   UNL     1       1.164   8.488  21.708  0.00  0.00    +0.000 A 
ATOM     32  C   UNL     1       0.637   9.600  21.021  0.00  0.00    +0.000 A 
BRANCH  26  34
ATOM     33  C   UNL     1      -0.916  10.605  18.205  0.00  0.00    +0.000 C 
ATOM     34  O   UNL     1       0.272  10.789  18.981  0.00  0.00    +0.000 OA
ENDBRANCH  26  34
ENDBRANCH  22  32
ENDBRANCH   1  24
BRANCH   3  35
ATOM     35  C   UNL     1      -4.662  12.617  24.261  0.00  0.00    +0.000 C 
ATOM     36  N   UNL     1      -5.600  12.297  24.866  0.00  0.00    +0.000 NA
ENDBRANCH   3  35
TORSDOF 7
ENDMDL
MODEL 7
REMARK VINA RESULT:      -6.3      0.957      1.312
REMARK  Name = 
REMARK  9 active torsions:
REMARK  status: ('A' for Active; 'I' for Inactive)
REMARK    1  A    between atoms: C_1  and  O_2
REMARK    2  A    between atoms: O_2  and  C_3
REMARK    3  A    between atoms: C_4  and  C_5
REMARK    4  A    between atoms: C_9  and  C_10
REMARK    5  A    between atoms: N_12  and  C_13
REMARK    6  A    between atoms: C_15  and  C_16
REMARK    7  A    between atoms: C_20  and  N_21
REMARK    8  A    between atoms: C_24  and  O_25
REMARK    9  A    between atoms: O_25  and  C_26
REMARK                            x       y       z     vdW  Elec       q    Type
REMARK                         _______ _______ _______ _____ _____    ______ ____
ROOT
ATOM      1  C   UNL     1      -1.374  13.846  21.980  0.00  0.00    +0.000 A 
ATOM      2  C   UNL     1      -2.224  14.775  22.601  0.00  0.00    +0.000 A 
ATOM      3  C   UNL     1      -3.231  14.358  23.478  0.00  0.00    +0.000 A 
ATOM      4  C   UNL     1      -3.390  13.002  23.742  0.00  0.00    +0.000 A 
ATOM      5  C   UNL     1      -2.532  12.073  23.151  0.00  0.00    +0.000 A 
ATOM      6  C   UNL     1      -1.497  12.462  22.278  0.00  0.00    +0.000 A 
ENDROOT
BRANCH   6   7
ATOM      7  N   UNL     1      -0.619  11.504  21.783  0.00  0.00    +0.000 N 
ATOM      8  C   UNL     1      -0.319  11.424  20.359  0.00  0.00    +0.000 C 
ATOM      9  C   UNL     1      -0.766  10.069  19.835  0.00  0.00    +0.000 C 
ATOM     10  C   UNL     1      -0.040   8.938  20.573  0.00  0.00    +0.000 C 
ATOM     11  C   UNL     1      -0.359   9.041  22.069  0.00  0.00    +0.000 C 
ATOM     12  C   UNL     1      -0.110  10.430  22.638  0.00  0.00    +0.000 C 
BRANCH  10  13
ATOM     13  O   UNL     1       1.387   9.006  20.393  0.00  0.00    +0.000 OA
BRANCH  13  14
ATOM     14  C   UNL     1       1.960   8.117  19.519  0.00  0.00    +0.000 A 
ATOM     15  C   UNL     1       2.427   8.444  18.241  0.00  0.00    +0.000 A 
ATOM     16  C   UNL     1       3.027   7.479  17.433  0.00  0.00    +0.000 A 
ATOM     17  C   UNL     1       3.146   6.175  17.891  0.00  0.00    +0.000 A 
ATOM     18  F   UNL     1       3.708   5.252  17.102  0.00  0.00    +0.000 F 
ATOM     19  C   UNL     1       2.690   5.820  19.153  0.00  0.00    +0.000 A 
ATOM     20  C   UNL     1       2.112   6.796  19.962  0.00  0.00    +0.000 A 
ATOM     21  F   UNL     1       1.681   6.440  21.182  0.00  0.00    +0.000 F 
ENDBRANCH  13  14
ENDBRANCH  10  13
ENDBRANCH   6   7
BRANCH   1  24
ATOM     22  C   UNL     1       0.888  14.586  21.201  0.00  0.00    +0.000 C 
ATOM     23  O   UNL     1       1.416  14.609  22.314  0.00  0.00    +0.000 OA
ATOM     24  N   UNL     1      -0.430  14.245  20.992  0.00  0.00    +0.000 N 
ATOM     25  H   UNL     1      -0.744  14.174  20.031  0.00  0.00    +0.000 HD
BRANCH  22  32
ATOM     26  C   UNL     1       1.602  15.945  19.055  0.00  0.00    +0.000 A 
ATOM     27  C   UNL     1       2.577  16.091  18.032  0.00  0.00    +0.000 A 
ATOM     28  C   UNL     1       2.657  17.210  17.027  0.00  0.00    +0.000 C 
ATOM     29  C   UNL     1       3.600  15.126  17.900  0.00  0.00    +0.000 A 
ATOM     30  C   UNL     1       3.720  14.071  18.786  0.00  0.00    +0.000 A 
ATOM     31  C   UNL     1       2.813  13.967  19.828  0.00  0.00    +0.000 A 
ATOM     32  C   UNL     1       1.754  14.883  19.995  0.00  0.00    +0.000 A 
BRANCH  26  34
ATOM     33  C   UNL     1       0.712  17.936  20.096  0.00  0.00    +0.000 C 
ATOM     34  O   UNL     1       0.538  16.798  19.247  0.00  0.00    +0.000 OA
ENDBRANCH  26  34
ENDBRANCH  22  32
ENDBRANCH   1  24
BRANCH   3  35
ATOM     35  C   UNL     1      -4.102  15.316  24.087  0.00  0.00    +0.000 C 
ATOM     36  N   UNL     1      -4.792  16.119  24.563  0.00  0.00    +0.000 NA
ENDBRANCH   3  35
TORSDOF 7
ENDMDL
MODEL 8
REMARK VINA RESULT:      -6.2      1.546      2.148
REMARK  Name = 
REMARK  9 active torsions:
REMARK  status: ('A' for Active; 'I' for Inactive)
REMARK    1  A    between atoms: C_1  and  O_2
REMARK    2  A    between atoms: O_2  and  C_3
REMARK    3  A    between atoms: C_4  and  C_5
REMARK    4  A    between atoms: C_9  and  C_10
REMARK    5  A    between atoms: N_12  and  C_13
REMARK    6  A    between atoms: C_15  and  C_16
REMARK    7  A    between atoms: C_20  and  N_21
REMARK    8  A    between atoms: C_24  and  O_25
REMARK    9  A    between atoms: O_25  and  C_26
REMARK                            x       y       z     vdW  Elec       q    Type
REMARK                         _______ _______ _______ _____ _____    ______ ____
ROOT
ATOM      1  C   UNL     1      -0.697  13.650  22.702  0.00  0.00    +0.000 A 
ATOM      2  C   UNL     1      -1.495  14.642  23.293  0.00  0.00    +0.000 A 
ATOM      3  C   UNL     1      -2.769  14.343  23.787  0.00  0.00    +0.000 A 
ATOM      4  C   UNL     1      -3.251  13.042  23.695  0.00  0.00    +0.000 A 
ATOM      5  C   UNL     1      -2.453  12.043  23.135  0.00  0.00    +0.000 A 
ATOM      6  C   UNL     1      -1.159  12.307  22.645  0.00  0.00    +0.000 A 
ENDROOT
BRANCH   6   7
ATOM      7  N   UNL     1      -0.376  11.259  22.174  0.00  0.00    +0.000 N 
ATOM      8  C   UNL     1       0.082  11.227  20.790  0.00  0.00    +0.000 C 
ATOM      9  C   UNL     1      -0.490   9.994  20.109  0.00  0.00    +0.000 C 
ATOM     10  C   UNL     1      -0.032   8.719  20.827  0.00  0.00    +0.000 C 
ATOM     11  C   UNL     1      -0.513   8.773  22.281  0.00  0.00    +0.000 C 
ATOM     12  C   UNL     1      -0.137  10.067  22.988  0.00  0.00    +0.000 C 
BRANCH  10  13
ATOM     13  O   UNL     1       1.401   8.578  20.814  0.00  0.00    +0.000 OA
BRANCH  13  14
ATOM     14  C   UNL     1       1.955   7.817  19.816  0.00  0.00    +0.000 A 
ATOM     15  C   UNL     1       2.405   8.317  18.588  0.00  0.00    +0.000 A 
ATOM     16  C   UNL     1       2.987   7.470  17.645  0.00  0.00    +0.000 A 
ATOM     17  C   UNL     1       3.104   6.115  17.915  0.00  0.00    +0.000 A 
ATOM     18  F   UNL     1       3.648   5.308  16.996  0.00  0.00    +0.000 F 
ATOM     19  C   UNL     1       2.664   5.589  19.122  0.00  0.00    +0.000 A 
ATOM     20  C   UNL     1       2.105   6.446  20.069  0.00  0.00    +0.000 A 
ATOM     21  F   UNL     1       1.689   5.926  21.234  0.00  0.00    +0.000 F 
ENDBRANCH  13  14
ENDBRANCH  10  13
ENDBRANCH   6   7
BRANCH   1  24
ATOM     22  C   UNL     1       0.761  14.879  21.078  0.00  0.00    +0.000 C 
ATOM     23  O   UNL     1      -0.140  15.540  20.557  0.00  0.00    +0.000 OA
ATOM     24  N   UNL     1       0.547  13.964  22.085  0.00  0.00    +0.000 N 
ATOM     25  H   UNL     1       1.365  13.536  22.503  0.00  0.00    +0.000 HD
BRANCH  22  32
ATOM     26  C   UNL     1       2.797  14.739  19.407  0.00  0.00    +0.000 A 
ATOM     27  C   UNL     1       4.132  15.154  19.148  0.00  0.00    +0.000 A 
ATOM     28  C   UNL     1       4.904  14.936  17.874  0.00  0.00    +0.000 C 
ATOM     29  C   UNL     1       4.852  15.846  20.146  0.00  0.00    +0.000 A 
ATOM     30  C   UNL     1       4.269  16.195  21.351  0.00  0.00    +0.000 A 
ATOM     31  C   UNL     1       2.946  15.855  21.576  0.00  0.00    +0.000 A 
ATOM     32  C   UNL     1       2.184  15.138  20.631  0.00  0.00    +0.000 A 
BRANCH  26  34
ATOM     33  C   UNL     1       2.300  12.629  18.338  0.00  0.00    +0.000 C 
ATOM     34  O   UNL     1       2.020  14.019  18.527  0.00  0.00    +0.000 OA
ENDBRANCH  26  34
ENDBRANCH  22  32
ENDBRANCH   1  24
BRANCH   3  35
ATOM     35  C   UNL     1      -3.579  15.370  24.367  0.00  0.00    +0.000 C 
ATOM     36  N   UNL     1      -4.218  16.228  24.818  0.00  0.00    +0.000 NA
ENDBRANCH   3  35
TORSDOF 7
ENDMDL
MODEL 9
REMARK VINA RESULT:      -6.2      0.939      1.775
REMARK  Name = 
REMARK  9 active torsions:
REMARK  status: ('A' for Active; 'I' for Inactive)
REMARK    1  A    between atoms: C_1  and  O_2
REMARK    2  A    between atoms: O_2  and  C_3
REMARK    3  A    between atoms: C_4  and  C_5
REMARK    4  A    between atoms: C_9  and  C_10
REMARK    5  A    between atoms: N_12  and  C_13
REMARK    6  A    between atoms: C_15  and  C_16
REMARK    7  A    between atoms: C_20  and  N_21
REMARK    8  A    between atoms: C_24  and  O_25
REMARK    9  A    between atoms: O_25  and  C_26
REMARK                            x       y       z     vdW  Elec       q    Type
REMARK                         _______ _______ _______ _____ _____    ______ ____
ROOT
ATOM      1  C   UNL     1      -1.610  14.530  21.960  0.00  0.00    +0.000 A 
ATOM      2  C   UNL     1      -2.189  15.454  22.844  0.00  0.00    +0.000 A 
ATOM      3  C   UNL     1      -3.257  15.090  23.671  0.00  0.00    +0.000 A 
ATOM      4  C   UNL     1      -3.751  13.791  23.620  0.00  0.00    +0.000 A 
ATOM      5  C   UNL     1      -3.163  12.857  22.765  0.00  0.00    +0.000 A 
ATOM      6  C   UNL     1      -2.075  13.186  21.933  0.00  0.00    +0.000 A 
ENDROOT
BRANCH   6   7
ATOM      7  N   UNL     1      -1.474  12.197  21.163  0.00  0.00    +0.000 N 
ATOM      8  C   UNL     1      -0.504  11.278  21.745  0.00  0.00    +0.000 C 
ATOM      9  C   UNL     1       0.832  11.459  21.041  0.00  0.00    +0.000 C 
ATOM     10  C   UNL     1       0.694  11.172  19.541  0.00  0.00    +0.000 C 
ATOM     11  C   UNL     1      -0.336  12.139  18.947  0.00  0.00    +0.000 C 
ATOM     12  C   UNL     1      -1.651  12.155  19.711  0.00  0.00    +0.000 C 
BRANCH  10  13
ATOM     13  O   UNL     1       0.267   9.821  19.287  0.00  0.00    +0.000 OA
BRANCH  13  14
ATOM     14  C   UNL     1       1.234   8.893  18.994  0.00  0.00    +0.000 A 
ATOM     15  C   UNL     1       1.962   8.850  17.799  0.00  0.00    +0.000 A 
ATOM     16  C   UNL     1       2.952   7.887  17.602  0.00  0.00    +0.000 A 
ATOM     17  C   UNL     1       3.206   6.949  18.591  0.00  0.00    +0.000 A 
ATOM     18  F   UNL     1       4.145   6.018  18.385  0.00  0.00    +0.000 F 
ATOM     19  C   UNL     1       2.498   6.964  19.785  0.00  0.00    +0.000 A 
ATOM     20  C   UNL     1       1.527   7.944  19.983  0.00  0.00    +0.000 A 
ATOM     21  F   UNL     1       0.855   7.950  21.144  0.00  0.00    +0.000 F 
ENDBRANCH  13  14
ENDBRANCH  10  13
ENDBRANCH   6   7
BRANCH   1  24
ATOM     22  C   UNL     1       0.722  15.155  21.294  0.00  0.00    +0.000 C 
ATOM     23  O   UNL     1       1.213  15.078  22.422  0.00  0.00    +0.000 OA
ATOM     24  N   UNL     1      -0.608  14.918  21.027  0.00  0.00    +0.000 N 
ATOM     25  H   UNL     1      -0.893  14.925  20.054  0.00  0.00    +0.000 HD
BRANCH  22  32
ATOM     26  C   UNL     1       2.901  14.850  19.840  0.00  0.00    +0.000 A 
ATOM     27  C   UNL     1       3.580  15.231  18.650  0.00  0.00    +0.000 A 
ATOM     28  C   UNL     1       4.845  14.620  18.109  0.00  0.00    +0.000 C 
ATOM     29  C   UNL     1       3.059  16.275  17.855  0.00  0.00    +0.000 A 
ATOM     30  C   UNL     1       1.863  16.896  18.166  0.00  0.00    +0.000 A 
ATOM     31  C   UNL     1       1.164  16.477  19.285  0.00  0.00    +0.000 A 
ATOM     32  C   UNL     1       1.646  15.460  20.134  0.00  0.00    +0.000 A 
BRANCH  26  34
ATOM     33  C   UNL     1       4.345  14.222  21.674  0.00  0.00    +0.000 C 
ATOM     34  O   UNL     1       3.342  13.880  20.712  0.00  0.00    +0.000 OA
ENDBRANCH  26  34
ENDBRANCH  22  32
ENDBRANCH   1  24
BRANCH   3  35
ATOM     35  C   UNL     1      -3.850  16.050  24.551  0.00  0.00    +0.000 C 
ATOM     36  N   UNL     1      -4.360  16.808  25.268  0.00  0.00    +0.000 NA
ENDBRANCH   3  35
TORSDOF 7
ENDMDL
