MODEL 1
REMARK VINA RESULT:      -7.6      0.000      0.000
REMARK  Name = 
REMARK  7 active torsions:
REMARK  status: ('A' for Active; 'I' for Inactive)
REMARK    1  A    between atoms: C_1  and  O_2
REMARK    2  A    between atoms: O_2  and  C_3
REMARK    3  A    between atoms: C_6  and  C_7
REMARK    4  A    between atoms: C_9  and  C_10
REMARK    5  A    between atoms: N_12  and  C_13
REMARK    6  A    between atoms: C_15  and  C_16
REMARK    7  A    between atoms: C_19  and  O_20
REMARK                            x       y       z     vdW  Elec       q    Type
REMARK                         _______ _______ _______ _____ _____    ______ ____
ROOT
ATOM      1  C   UNL     1       2.658   6.753  19.202  0.00  0.00    +0.000 A 
ATOM      2  C   UNL     1       3.122   6.469  17.942  0.00  0.00    +0.000 A 
ATOM      3  C   UNL     1       3.787   5.224  18.070  0.00  0.00    +0.000 A 
ATOM      4  N   UNL     1       3.737   4.778  19.335  0.00  0.00    +0.000 NA
ATOM      5  O   UNL     1       3.038   5.744  20.039  0.00  0.00    +0.000 OA
ENDROOT
BRANCH   1   9
ATOM      6  C   UNL     1       0.438   9.971  20.938  0.00  0.00    +0.000 A 
ATOM      7  C   UNL     1       0.717   8.826  21.683  0.00  0.00    +0.000 A 
ATOM      8  C   UNL     1       1.434   7.768  21.114  0.00  0.00    +0.000 A 
ATOM      9  C   UNL     1       1.870   7.831  19.783  0.00  0.00    +0.000 A 
ATOM     10  C   UNL     1       1.546   8.972  19.034  0.00  0.00    +0.000 A 
ATOM     11  C   UNL     1       0.836  10.033  19.605  0.00  0.00    +0.000 A 
BRANCH   6  13
ATOM     12  C   UNL     1      -0.800  10.566  22.854  0.00  0.00    +0.000 C 
ATOM     13  O   UNL     1      -0.250  10.952  21.597  0.00  0.00    +0.000 OA
ENDBRANCH   6  13
ENDBRANCH   1   9
BRANCH   3  14
ATOM     14  C   UNL     1       4.447   4.496  16.987  0.00  0.00    +0.000 C 
ATOM     15  O   UNL     1       4.513   3.272  17.032  0.00  0.00    +0.000 OA
ATOM     16  N   UNL     1       4.979   5.302  15.998  0.00  0.00    +0.000 N 
ATOM     17  H   UNL     1       4.975   6.305  16.159  0.00  0.00    +0.000 HD
BRANCH  16  18
ATOM     18  C   UNL     1       5.635   4.870  14.825  0.00  0.00    +0.000 A 
ATOM     19  C   UNL     1       5.006   4.099  13.848  0.00  0.00    +0.000 A 
ATOM     20  C   UNL     1       5.699   3.665  12.712  0.00  0.00    +0.000 A 
ATOM     21  C   UNL     1       5.006   2.804  11.698  0.00  0.00    +0.000 C 
ATOM     22  C   UNL     1       7.041   4.026  12.551  0.00  0.00    +0.000 A 
ATOM     23  C   UNL     1       7.680   4.813  13.513  0.00  0.00    +0.000 A 
ATOM     24  C   UNL     1       6.973   5.236  14.640  0.00  0.00    +0.000 A 
BRANCH  24  25
ATOM     25  O   UNL     1       7.588   6.002  15.596  0.00  0.00    +0.000 OA
ATOM     26  H   UNL     1       7.255   6.913  15.520  0.00  0.00    +0.000 HD
ENDBRANCH  24  25
ENDBRANCH  16  18
ENDBRANCH   3  14
TORSDOF 5
ENDMDL
MODEL 2
REMARK VINA RESULT:      -7.6      3.857     10.655
REMARK  Name = 
REMARK  7 active torsions:
REMARK  status: ('A' for Active; 'I' for Inactive)
REMARK    1  A    between atoms: C_1  and  O_2
REMARK    2  A    between atoms: O_2  and  C_3
REMARK    3  A    between atoms: C_6  and  C_7
REMARK    4  A    between atoms: C_9  and  C_10
REMARK    5  A    between atoms: N_12  and  C_13
REMARK    6  A    between atoms: C_15  and  C_16
REMARK    7  A    between atoms: C_19  and  O_20
REMARK                            x       y       z     vdW  Elec       q    Type
REMARK                         _______ _______ _______ _____ _____    ______ ____
ROOT
ATOM      1  C   UNL     1       1.705   7.856  20.203  0.00  0.00    +0.000 A 
ATOM      2  C   UNL     1       1.216   8.176  21.444  0.00  0.00    +0.000 A 
ATOM      3  C   UNL     1       0.677   9.479  21.300  0.00  0.00    +0.000 A 
ATOM      4  N   UNL     1       0.834   9.930  20.045  0.00  0.00    +0.000 NA
ATOM      5  O   UNL     1       1.486   8.914  19.368  0.00  0.00    +0.000 OA
ENDROOT
BRANCH   1   9
ATOM      6  C   UNL     1       3.488   4.384  18.455  0.00  0.00    +0.000 A 
ATOM      7  C   UNL     1       2.882   4.309  19.708  0.00  0.00    +0.000 A 
ATOM      8  C   UNL     1       2.308   5.446  20.287  0.00  0.00    +0.000 A 
ATOM      9  C   UNL     1       2.344   6.681  19.626  0.00  0.00    +0.000 A 
ATOM     10  C   UNL     1       2.992   6.750  18.385  0.00  0.00    +0.000 A 
ATOM     11  C   UNL     1       3.561   5.612  17.803  0.00  0.00    +0.000 A 
BRANCH   6  13
ATOM     12  C   UNL     1       3.071   2.132  17.895  0.00  0.00    +0.000 C 
ATOM     13  O   UNL     1       3.999   3.210  17.973  0.00  0.00    +0.000 OA
ENDBRANCH   6  13
ENDBRANCH   1   9
BRANCH   3  14
ATOM     14  C   UNL     1       0.029  10.255  22.357  0.00  0.00    +0.000 C 
ATOM     15  O   UNL     1       0.186   9.929  23.529  0.00  0.00    +0.000 OA
ATOM     16  N   UNL     1      -0.752  11.300  21.903  0.00  0.00    +0.000 N 
ATOM     17  H   UNL     1      -0.906  11.368  20.902  0.00  0.00    +0.000 HD
BRANCH  16  18
ATOM     18  C   UNL     1      -1.458  12.228  22.699  0.00  0.00    +0.000 A 
ATOM     19  C   UNL     1      -2.712  11.956  23.246  0.00  0.00    +0.000 A 
ATOM     20  C   UNL     1      -3.393  12.914  24.007  0.00  0.00    +0.000 A 
ATOM     21  C   UNL     1      -4.757  12.605  24.548  0.00  0.00    +0.000 C 
ATOM     22  C   UNL     1      -2.794  14.159  24.230  0.00  0.00    +0.000 A 
ATOM     23  C   UNL     1      -1.531  14.440  23.704  0.00  0.00    +0.000 A 
ATOM     24  C   UNL     1      -0.867  13.473  22.947  0.00  0.00    +0.000 A 
BRANCH  24  25
ATOM     25  O   UNL     1       0.369  13.736  22.418  0.00  0.00    +0.000 OA
ATOM     26  H   UNL     1       0.961  14.006  23.141  0.00  0.00    +0.000 HD
ENDBRANCH  24  25
ENDBRANCH  16  18
ENDBRANCH   3  14
TORSDOF 5
ENDMDL
MODEL 3
REMARK VINA RESULT:      -7.5      5.678      7.487
REMARK  Name = 
REMARK  7 active torsions:
REMARK  status: ('A' for Active; 'I' for Inactive)
REMARK    1  A    between atoms: C_1  and  O_2
REMARK    2  A    between atoms: O_2  and  C_3
REMARK    3  A    between atoms: C_6  and  C_7
REMARK    4  A    between atoms: C_9  and  C_10
REMARK    5  A    between atoms: N_12  and  C_13
REMARK    6  A    between atoms: C_15  and  C_16
REMARK    7  A    between atoms: C_19  and  O_20
REMARK                            x       y       z     vdW  Elec       q    Type
REMARK                         _______ _______ _______ _____ _____    ______ ____
ROOT
ATOM      1  C   UNL     1       8.534   8.904  18.365  0.00  0.00    +0.000 A 
ATOM      2  C   UNL     1       8.233   7.712  18.975  0.00  0.00    +0.000 A 
ATOM      3  C   UNL     1       7.462   6.999  18.023  0.00  0.00    +0.000 A 
ATOM      4  N   UNL     1       7.296   7.716  16.901  0.00  0.00    +0.000 NA
ATOM      5  O   UNL     1       7.961   8.910  17.126  0.00  0.00    +0.000 OA
ENDROOT
BRANCH   1   9
ATOM      6  C   UNL     1      10.915  12.282  19.465  0.00  0.00    +0.000 A 
ATOM      7  C   UNL     1      10.228  11.558  20.439  0.00  0.00    +0.000 A 
ATOM      8  C   UNL     1       9.440  10.460  20.080  0.00  0.00    +0.000 A 
ATOM      9  C   UNL     1       9.314  10.076  18.738  0.00  0.00    +0.000 A 
ATOM     10  C   UNL     1       9.978  10.838  17.766  0.00  0.00    +0.000 A 
ATOM     11  C   UNL     1      10.771  11.933  18.125  0.00  0.00    +0.000 A 
BRANCH   6  13
ATOM     12  C   UNL     1      10.969  14.551  20.103  0.00  0.00    +0.000 C 
ATOM     13  O   UNL     1      11.672  13.324  19.927  0.00  0.00    +0.000 OA
ENDBRANCH   6  13
ENDBRANCH   1   9
BRANCH   3  14
ATOM     14  C   UNL     1       6.907   5.659  18.210  0.00  0.00    +0.000 C 
ATOM     15  O   UNL     1       7.664   4.699  18.313  0.00  0.00    +0.000 OA
ATOM     16  N   UNL     1       5.526   5.608  18.218  0.00  0.00    +0.000 N 
ATOM     17  H   UNL     1       5.025   6.458  17.981  0.00  0.00    +0.000 HD
BRANCH  16  18
ATOM     18  C   UNL     1       4.730   4.459  18.415  0.00  0.00    +0.000 A 
ATOM     19  C   UNL     1       4.166   4.132  19.648  0.00  0.00    +0.000 A 
ATOM     20  C   UNL     1       3.406   2.967  19.810  0.00  0.00    +0.000 A 
ATOM     21  C   UNL     1       2.846   2.623  21.158  0.00  0.00    +0.000 C 
ATOM     22  C   UNL     1       3.199   2.129  18.710  0.00  0.00    +0.000 A 
ATOM     23  C   UNL     1       3.742   2.452  17.463  0.00  0.00    +0.000 A 
ATOM     24  C   UNL     1       4.498   3.617  17.320  0.00  0.00    +0.000 A 
BRANCH  24  25
ATOM     25  O   UNL     1       5.044   3.943  16.107  0.00  0.00    +0.000 OA
ATOM     26  H   UNL     1       4.776   4.852  15.884  0.00  0.00    +0.000 HD
ENDBRANCH  24  25
ENDBRANCH  16  18
ENDBRANCH   3  14
TORSDOF 5
ENDMDL
MODEL 4
REMARK VINA RESULT:      -7.5      5.650      7.437
REMARK  Name = 
REMARK  7 active torsions:
REMARK  status: ('A' for Active; 'I' for Inactive)
REMARK    1  A    between atoms: C_1  and  O_2
REMARK    2  A    between atoms: O_2  and  C_3
REMARK    3  A    between atoms: C_6  and  C_7
REMARK    4  A    between atoms: C_9  and  C_10
REMARK    5  A    between atoms: N_12  and  C_13
REMARK    6  A    between atoms: C_15  and  C_16
REMARK    7  A    between atoms: C_19  and  O_20
REMARK                            x       y       z     vdW  Elec       q    Type
REMARK                         _______ _______ _______ _____ _____    ______ ____
ROOT
ATOM      1  C   UNL     1       8.382   9.301  18.137  0.00  0.00    +0.000 A 
ATOM      2  C   UNL     1       7.289   8.815  17.464  0.00  0.00    +0.000 A 
ATOM      3  C   UNL     1       7.211   7.448  17.834  0.00  0.00    +0.000 A 
ATOM      4  N   UNL     1       8.202   7.119  18.677  0.00  0.00    +0.000 NA
ATOM      5  O   UNL     1       8.935   8.280  18.854  0.00  0.00    +0.000 OA
ENDROOT
BRANCH   1   9
ATOM      6  C   UNL     1      10.288  13.121  18.384  0.00  0.00    +0.000 A 
ATOM      7  C   UNL     1      10.853  12.011  19.009  0.00  0.00    +0.000 A 
ATOM      8  C   UNL     1      10.226  10.763  18.939  0.00  0.00    +0.000 A 
ATOM      9  C   UNL     1       9.013  10.608  18.254  0.00  0.00    +0.000 A 
ATOM     10  C   UNL     1       8.436  11.742  17.665  0.00  0.00    +0.000 A 
ATOM     11  C   UNL     1       9.066  12.989  17.730  0.00  0.00    +0.000 A 
BRANCH   6  13
ATOM     12  C   UNL     1      12.333  14.235  18.015  0.00  0.00    +0.000 C 
ATOM     13  O   UNL     1      10.994  14.288  18.498  0.00  0.00    +0.000 OA
ENDBRANCH   6  13
ENDBRANCH   1   9
BRANCH   3  14
ATOM     14  C   UNL     1       6.197   6.499  17.375  0.00  0.00    +0.000 C 
ATOM     15  O   UNL     1       6.176   6.159  16.196  0.00  0.00    +0.000 OA
ATOM     16  N   UNL     1       5.310   6.092  18.353  0.00  0.00    +0.000 N 
ATOM     17  H   UNL     1       5.357   6.561  19.252  0.00  0.00    +0.000 HD
BRANCH  16  18
ATOM     18  C   UNL     1       4.261   5.160  18.200  0.00  0.00    +0.000 A 
ATOM     19  C   UNL     1       4.458   3.782  18.274  0.00  0.00    +0.000 A 
ATOM     20  C   UNL     1       3.396   2.888  18.088  0.00  0.00    +0.000 A 
ATOM     21  C   UNL     1       3.647   1.411  18.135  0.00  0.00    +0.000 C 
ATOM     22  C   UNL     1       2.115   3.393  17.838  0.00  0.00    +0.000 A 
ATOM     23  C   UNL     1       1.899   4.772  17.778  0.00  0.00    +0.000 A 
ATOM     24  C   UNL     1       2.970   5.648  17.965  0.00  0.00    +0.000 A 
BRANCH  24  25
ATOM     25  O   UNL     1       2.775   7.003  17.902  0.00  0.00    +0.000 OA
ATOM     26  H   UNL     1       2.462   7.227  17.009  0.00  0.00    +0.000 HD
ENDBRANCH  24  25
ENDBRANCH  16  18
ENDBRANCH   3  14
TORSDOF 5
ENDMDL
MODEL 5
REMARK VINA RESULT:      -7.5      5.610      7.530
REMARK  Name = 
REMARK  7 active torsions:
REMARK  status: ('A' for Active; 'I' for Inactive)
REMARK    1  A    between atoms: C_1  and  O_2
REMARK    2  A    between atoms: O_2  and  C_3
REMARK    3  A    between atoms: C_6  and  C_7
REMARK    4  A    between atoms: C_9  and  C_10
REMARK    5  A    between atoms: N_12  and  C_13
REMARK    6  A    between atoms: C_15  and  C_16
REMARK    7  A    between atoms: C_19  and  O_20
REMARK                            x       y       z     vdW  Elec       q    Type
REMARK                         _______ _______ _______ _____ _____    ______ ____
ROOT
ATOM      1  C   UNL     1       8.472   8.815  18.331  0.00  0.00    +0.000 A 
ATOM      2  C   UNL     1       8.150   7.630  18.945  0.00  0.00    +0.000 A 
ATOM      3  C   UNL     1       7.392   6.915  17.983  0.00  0.00    +0.000 A 
ATOM      4  N   UNL     1       7.254   7.625  16.853  0.00  0.00    +0.000 NA
ATOM      5  O   UNL     1       7.923   8.816  17.082  0.00  0.00    +0.000 OA
ENDROOT
BRANCH   1   9
ATOM      6  C   UNL     1      10.672  12.311  19.440  0.00  0.00    +0.000 A 
ATOM      7  C   UNL     1      10.600  11.919  18.104  0.00  0.00    +0.000 A 
ATOM      8  C   UNL     1       9.890  10.769  17.740  0.00  0.00    +0.000 A 
ATOM      9  C   UNL     1       9.253   9.984  18.711  0.00  0.00    +0.000 A 
ATOM     10  C   UNL     1       9.368  10.369  20.054  0.00  0.00    +0.000 A 
ATOM     11  C   UNL     1      10.073  11.521  20.418  0.00  0.00    +0.000 A 
BRANCH   6  13
ATOM     12  C   UNL     1      10.885  14.620  19.016  0.00  0.00    +0.000 C 
ATOM     13  O   UNL     1      11.374  13.460  19.682  0.00  0.00    +0.000 OA
ENDBRANCH   6  13
ENDBRANCH   1   9
BRANCH   3  14
ATOM     14  C   UNL     1       6.824   5.581  18.169  0.00  0.00    +0.000 C 
ATOM     15  O   UNL     1       7.563   4.602  18.165  0.00  0.00    +0.000 OA
ATOM     16  N   UNL     1       5.449   5.558  18.302  0.00  0.00    +0.000 N 
ATOM     17  H   UNL     1       4.949   6.428  18.145  0.00  0.00    +0.000 HD
BRANCH  16  18
ATOM     18  C   UNL     1       4.646   4.420  18.528  0.00  0.00    +0.000 A 
ATOM     19  C   UNL     1       4.000   4.178  19.741  0.00  0.00    +0.000 A 
ATOM     20  C   UNL     1       3.236   3.021  19.935  0.00  0.00    +0.000 A 
ATOM     21  C   UNL     1       2.587   2.771  21.264  0.00  0.00    +0.000 C 
ATOM     22  C   UNL     1       3.108   2.103  18.888  0.00  0.00    +0.000 A 
ATOM     23  C   UNL     1       3.734   2.339  17.661  0.00  0.00    +0.000 A 
ATOM     24  C   UNL     1       4.493   3.498  17.485  0.00  0.00    +0.000 A 
BRANCH  24  25
ATOM     25  O   UNL     1       5.119   3.741  16.291  0.00  0.00    +0.000 OA
ATOM     26  H   UNL     1       4.508   4.236  15.719  0.00  0.00    +0.000 HD
ENDBRANCH  24  25
ENDBRANCH  16  18
ENDBRANCH   3  14
TORSDOF 5
ENDMDL
MODEL 6
REMARK VINA RESULT:      -7.5      5.688      7.418
REMARK  Name = 
REMARK  7 active torsions:
REMARK  status: ('A' for Active; 'I' for Inactive)
REMARK    1  A    between atoms: C_1  and  O_2
REMARK    2  A    between atoms: O_2  and  C_3
REMARK    3  A    between atoms: C_6  and  C_7
REMARK    4  A    between atoms: C_9  and  C_10
REMARK    5  A    between atoms: N_12  and  C_13
REMARK    6  A    between atoms: C_15  and  C_16
REMARK    7  A    between atoms: C_19  and  O_20
REMARK                            x       y       z     vdW  Elec       q    Type
REMARK                         _______ _______ _______ _____ _____    ______ ____
ROOT
ATOM      1  C   UNL     1       8.400   9.300  18.169  0.00  0.00    +0.000 A 
ATOM      2  C   UNL     1       7.307   8.824  17.489  0.00  0.00    +0.000 A 
ATOM      3  C   UNL     1       7.220   7.456  17.849  0.00  0.00    +0.000 A 
ATOM      4  N   UNL     1       8.206   7.116  18.694  0.00  0.00    +0.000 NA
ATOM      5  O   UNL     1       8.945   8.272  18.881  0.00  0.00    +0.000 OA
ENDROOT
BRANCH   1   9
ATOM      6  C   UNL     1      10.211  13.146  18.636  0.00  0.00    +0.000 A 
ATOM      7  C   UNL     1       9.104  12.986  17.805  0.00  0.00    +0.000 A 
ATOM      8  C   UNL     1       8.517  11.727  17.642  0.00  0.00    +0.000 A 
ATOM      9  C   UNL     1       9.038  10.603  18.297  0.00  0.00    +0.000 A 
ATOM     10  C   UNL     1      10.176  10.772  19.098  0.00  0.00    +0.000 A 
ATOM     11  C   UNL     1      10.760  12.032  19.266  0.00  0.00    +0.000 A 
BRANCH   6  13
ATOM     12  C   UNL     1      11.762  14.739  17.852  0.00  0.00    +0.000 C 
ATOM     13  O   UNL     1      10.694  14.422  18.740  0.00  0.00    +0.000 OA
ENDBRANCH   6  13
ENDBRANCH   1   9
BRANCH   3  14
ATOM     14  C   UNL     1       6.203   6.516  17.380  0.00  0.00    +0.000 C 
ATOM     15  O   UNL     1       6.179   6.190  16.197  0.00  0.00    +0.000 OA
ATOM     16  N   UNL     1       5.317   6.099  18.355  0.00  0.00    +0.000 N 
ATOM     17  H   UNL     1       5.367   6.556  19.260  0.00  0.00    +0.000 HD
BRANCH  16  18
ATOM     18  C   UNL     1       4.265   5.171  18.192  0.00  0.00    +0.000 A 
ATOM     19  C   UNL     1       4.459   3.791  18.245  0.00  0.00    +0.000 A 
ATOM     20  C   UNL     1       3.394   2.903  18.049  0.00  0.00    +0.000 A 
ATOM     21  C   UNL     1       3.642   1.424  18.073  0.00  0.00    +0.000 C 
ATOM     22  C   UNL     1       2.114   3.414  17.812  0.00  0.00    +0.000 A 
ATOM     23  C   UNL     1       1.900   4.794  17.774  0.00  0.00    +0.000 A 
ATOM     24  C   UNL     1       2.974   5.665  17.970  0.00  0.00    +0.000 A 
BRANCH  24  25
ATOM     25  O   UNL     1       2.782   7.021  17.928  0.00  0.00    +0.000 OA
ATOM     26  H   UNL     1       3.614   7.457  18.181  0.00  0.00    +0.000 HD
ENDBRANCH  24  25
ENDBRANCH  16  18
ENDBRANCH   3  14
TORSDOF 5
ENDMDL
MODEL 7
REMARK VINA RESULT:      -7.5      2.100      2.990
REMARK  Name = 
REMARK  7 active torsions:
REMARK  status: ('A' for Active; 'I' for Inactive)
REMARK    1  A    between atoms: C_1  and  O_2
REMARK    2  A    between atoms: O_2  and  C_3
REMARK    3  A    between atoms: C_6  and  C_7
REMARK    4  A    between atoms: C_9  and  C_10
REMARK    5  A    between atoms: N_12  and  C_13
REMARK    6  A    between atoms: C_15  and  C_16
REMARK    7  A    between atoms: C_19  and  O_20
REMARK                            x       y       z     vdW  Elec       q    Type
REMARK                         _______ _______ _______ _____ _____    ______ ____
ROOT
ATOM      1  C   UNL     1       1.187   9.148  19.608  0.00  0.00    +0.000 A 
ATOM      2  C   UNL     1       1.776   7.910  19.653  0.00  0.00    +0.000 A 
ATOM      3  C   UNL     1       2.421   7.766  18.398  0.00  0.00    +0.000 A 
ATOM      4  N   UNL     1       2.229   8.850  17.630  0.00  0.00    +0.000 NA
ATOM      5  O   UNL     1       1.449   9.706  18.390  0.00  0.00    +0.000 OA
ENDROOT
BRANCH   1   9
ATOM      6  C   UNL     1      -0.999  11.555  22.386  0.00  0.00    +0.000 A 
ATOM      7  C   UNL     1      -0.426  10.352  22.796  0.00  0.00    +0.000 A 
ATOM      8  C   UNL     1       0.280   9.558  21.886  0.00  0.00    +0.000 A 
ATOM      9  C   UNL     1       0.411   9.947  20.546  0.00  0.00    +0.000 A 
ATOM     10  C   UNL     1      -0.205  11.139  20.140  0.00  0.00    +0.000 A 
ATOM     11  C   UNL     1      -0.905  11.937  21.050  0.00  0.00    +0.000 A 
BRANCH   6  13
ATOM     12  C   UNL     1      -3.066  12.317  23.225  0.00  0.00    +0.000 C 
ATOM     13  O   UNL     1      -1.649  12.263  23.360  0.00  0.00    +0.000 OA
ENDBRANCH   6  13
ENDBRANCH   1   9
BRANCH   3  14
ATOM     14  C   UNL     1       3.197   6.604  17.969  0.00  0.00    +0.000 C 
ATOM     15  O   UNL     1       2.759   5.475  18.168  0.00  0.00    +0.000 OA
ATOM     16  N   UNL     1       4.413   6.911  17.388  0.00  0.00    +0.000 N 
ATOM     17  H   UNL     1       4.712   7.881  17.415  0.00  0.00    +0.000 HD
BRANCH  16  18
ATOM     18  C   UNL     1       5.343   5.994  16.853  0.00  0.00    +0.000 A 
ATOM     19  C   UNL     1       5.265   5.513  15.546  0.00  0.00    +0.000 A 
ATOM     20  C   UNL     1       6.192   4.582  15.062  0.00  0.00    +0.000 A 
ATOM     21  C   UNL     1       6.057   4.054  13.664  0.00  0.00    +0.000 C 
ATOM     22  C   UNL     1       7.219   4.141  15.902  0.00  0.00    +0.000 A 
ATOM     23  C   UNL     1       7.322   4.626  17.208  0.00  0.00    +0.000 A 
ATOM     24  C   UNL     1       6.388   5.554  17.675  0.00  0.00    +0.000 A 
BRANCH  24  25
ATOM     25  O   UNL     1       6.470   6.034  18.955  0.00  0.00    +0.000 OA
ATOM     26  H   UNL     1       7.006   6.846  18.945  0.00  0.00    +0.000 HD
ENDBRANCH  24  25
ENDBRANCH  16  18
ENDBRANCH   3  14
TORSDOF 5
ENDMDL
MODEL 8
REMARK VINA RESULT:      -7.5      1.815      2.814
REMARK  Name = 
REMARK  7 active torsions:
REMARK  status: ('A' for Active; 'I' for Inactive)
REMARK    1  A    between atoms: C_1  and  O_2
REMARK    2  A    between atoms: O_2  and  C_3
REMARK    3  A    between atoms: C_6  and  C_7
REMARK    4  A    between atoms: C_9  and  C_10
REMARK    5  A    between atoms: N_12  and  C_13
REMARK    6  A    between atoms: C_15  and  C_16
REMARK    7  A    between atoms: C_19  and  O_20
REMARK                            x       y       z     vdW  Elec       q    Type
REMARK                         _______ _______ _______ _____ _____    ______ ____
ROOT
ATOM      1  C   UNL     1       1.244   7.738  20.818  0.00  0.00    +0.000 A 
ATOM      2  C   UNL     1       2.244   7.438  19.927  0.00  0.00    +0.000 A 
ATOM      3  C   UNL     1       2.314   6.022  19.921  0.00  0.00    +0.000 A 
ATOM      4  N   UNL     1       1.415   5.490  20.763  0.00  0.00    +0.000 NA
ATOM      5  O   UNL     1       0.756   6.570  21.328  0.00  0.00    +0.000 OA
ENDROOT
BRANCH   1   9
ATOM      6  C   UNL     1      -0.488  11.391  22.215  0.00  0.00    +0.000 A 
ATOM      7  C   UNL     1      -0.564  10.234  22.989  0.00  0.00    +0.000 A 
ATOM      8  C   UNL     1      -0.008   9.036  22.530  0.00  0.00    +0.000 A 
ATOM      9  C   UNL     1       0.621   8.971  21.279  0.00  0.00    +0.000 A 
ATOM     10  C   UNL     1       0.654  10.132  20.494  0.00  0.00    +0.000 A 
ATOM     11  C   UNL     1       0.103  11.332  20.955  0.00  0.00    +0.000 A 
BRANCH   6  13
ATOM     12  C   UNL     1      -2.436  12.411  23.066  0.00  0.00    +0.000 C 
ATOM     13  O   UNL     1      -1.046  12.511  22.767  0.00  0.00    +0.000 OA
ENDBRANCH   6  13
ENDBRANCH   1   9
BRANCH   3  14
ATOM     14  C   UNL     1       3.233   5.219  19.115  0.00  0.00    +0.000 C 
ATOM     15  O   UNL     1       3.023   4.018  18.974  0.00  0.00    +0.000 OA
ATOM     16  N   UNL     1       4.305   5.921  18.600  0.00  0.00    +0.000 N 
ATOM     17  H   UNL     1       4.430   6.880  18.912  0.00  0.00    +0.000 HD
BRANCH  16  18
ATOM     18  C   UNL     1       5.319   5.410  17.762  0.00  0.00    +0.000 A 
ATOM     19  C   UNL     1       5.132   5.185  16.398  0.00  0.00    +0.000 A 
ATOM     20  C   UNL     1       6.154   4.649  15.606  0.00  0.00    +0.000 A 
ATOM     21  C   UNL     1       5.908   4.382  14.151  0.00  0.00    +0.000 C 
ATOM     22  C   UNL     1       7.387   4.349  16.194  0.00  0.00    +0.000 A 
ATOM     23  C   UNL     1       7.597   4.586  17.555  0.00  0.00    +0.000 A 
ATOM     24  C   UNL     1       6.566   5.120  18.330  0.00  0.00    +0.000 A 
BRANCH  24  25
ATOM     25  O   UNL     1       6.753   5.351  19.668  0.00  0.00    +0.000 OA
ATOM     26  H   UNL     1       7.654   5.074  19.904  0.00  0.00    +0.000 HD
ENDBRANCH  24  25
ENDBRANCH  16  18
ENDBRANCH   3  14
TORSDOF 5
ENDMDL
MODEL 9
REMARK VINA RESULT:      -7.4      0.607      1.191
REMARK  Name = 
REMARK  7 active torsions:
REMARK  status: ('A' for Active; 'I' for Inactive)
REMARK    1  A    between atoms: C_1  and  O_2
REMARK    2  A    between atoms: O_2  and  C_3
REMARK    3  A    between atoms: C_6  and  C_7
REMARK    4  A    between atoms: C_9  and  C_10
REMARK    5  A    between atoms: N_12  and  C_13
REMARK    6  A    between atoms: C_15  and  C_16
REMARK    7  A    between atoms: C_19  and  O_20
REMARK                            x       y       z     vdW  Elec       q    Type
REMARK                         _______ _______ _______ _____ _____    ______ ____
ROOT
ATOM      1  C   UNL     1       2.709   6.716  19.040  0.00  0.00    +0.000 A 
ATOM      2  C   UNL     1       3.449   6.521  17.901  0.00  0.00    +0.000 A 
ATOM      3  C   UNL     1       3.865   5.167  17.963  0.00  0.00    +0.000 A 
ATOM      4  N   UNL     1       3.411   4.573  19.078  0.00  0.00    +0.000 NA
ATOM      5  O   UNL     1       2.697   5.551  19.751  0.00  0.00    +0.000 OA
ENDROOT
BRANCH   1   9
ATOM      6  C   UNL     1       0.412   9.950  20.639  0.00  0.00    +0.000 A 
ATOM      7  C   UNL     1       0.894  10.008  19.332  0.00  0.00    +0.000 A 
ATOM      8  C   UNL     1       1.655   8.956  18.811  0.00  0.00    +0.000 A 
ATOM      9  C   UNL     1       1.959   7.835  19.595  0.00  0.00    +0.000 A 
ATOM     10  C   UNL     1       1.502   7.810  20.920  0.00  0.00    +0.000 A 
ATOM     11  C   UNL     1       0.736   8.858  21.440  0.00  0.00    +0.000 A 
BRANCH   6  13
ATOM     12  C   UNL     1       0.162  12.295  20.639  0.00  0.00    +0.000 C 
ATOM     13  O   UNL     1      -0.337  11.022  21.042  0.00  0.00    +0.000 OA
ENDBRANCH   6  13
ENDBRANCH   1   9
BRANCH   3  14
ATOM     14  C   UNL     1       4.680   4.481  16.962  0.00  0.00    +0.000 C 
ATOM     15  O   UNL     1       5.128   3.365  17.207  0.00  0.00    +0.000 OA
ATOM     16  N   UNL     1       4.896   5.206  15.806  0.00  0.00    +0.000 N 
ATOM     17  H   UNL     1       4.584   6.172  15.794  0.00  0.00    +0.000 HD
BRANCH  16  18
ATOM     18  C   UNL     1       5.610   4.776  14.666  0.00  0.00    +0.000 A 
ATOM     19  C   UNL     1       5.040   3.984  13.671  0.00  0.00    +0.000 A 
ATOM     20  C   UNL     1       5.791   3.554  12.569  0.00  0.00    +0.000 A 
ATOM     21  C   UNL     1       5.159   2.670  11.536  0.00  0.00    +0.000 C 
ATOM     22  C   UNL     1       7.131   3.941  12.464  0.00  0.00    +0.000 A 
ATOM     23  C   UNL     1       7.712   4.750  13.444  0.00  0.00    +0.000 A 
ATOM     24  C   UNL     1       6.948   5.168  14.536  0.00  0.00    +0.000 A 
BRANCH  24  25
ATOM     25  O   UNL     1       7.505   5.955  15.510  0.00  0.00    +0.000 OA
ATOM     26  H   UNL     1       7.210   6.871  15.370  0.00  0.00    +0.000 HD
ENDBRANCH  24  25
ENDBRANCH  16  18
ENDBRANCH   3  14
TORSDOF 5
ENDMDL
