MODEL 1
REMARK VINA RESULT:      -8.0      0.000      0.000
REMARK  Name = 
REMARK  6 active torsions:
REMARK  status: ('A' for Active; 'I' for Inactive)
REMARK    1  A    between atoms: C_2  and  C_23
REMARK    2  A    between atoms: N_3  and  C_4
REMARK    3  A    between atoms: C_4  and  C_5
REMARK    4  A    between atoms: C_5  and  C_6
REMARK    5  A    between atoms: C_5  and  N_16
REMARK    6  A    between atoms: C_9  and  C_10
REMARK                            x       y       z     vdW  Elec       q    Type
REMARK                         _______ _______ _______ _____ _____    ______ ____
ROOT
ATOM      1  C   UNL     1       4.122   5.698  18.596  0.00  0.00    +0.000 C 
ENDROOT
BRANCH   1   2
ATOM      2  N   UNL     1       3.542   4.551  17.843  0.00  0.00    +0.000 NA
ATOM      3  C   UNL     1       4.087   3.235  18.238  0.00  0.00    +0.000 C 
ATOM      4  C   UNL     1       3.532   2.705  19.562  0.00  0.00    +0.000 C 
ATOM      5  C   UNL     1       2.017   2.621  19.506  0.00  0.00    +0.000 C 
ATOM      6  F   UNL     1       1.674   1.656  18.605  0.00  0.00    +0.000 F 
ATOM      7  C   UNL     1       1.404   3.938  19.063  0.00  0.00    +0.000 C 
ATOM      8  C   UNL     1       2.070   4.461  17.791  0.00  0.00    +0.000 C 
ENDBRANCH   1   2
BRANCH   1   9
ATOM      9  C   UNL     1       3.218   6.917  18.617  0.00  0.00    +0.000 A 
ATOM     10  C   UNL     1       3.065   7.766  17.538  0.00  0.00    +0.000 A 
ATOM     11  N   UNL     1       2.202   8.802  17.512  0.00  0.00    +0.000 NA
ATOM     12  C   UNL     1       1.451   9.013  18.621  0.00  0.00    +0.000 A 
ATOM     13  N   UNL     1       1.592   8.283  19.757  0.00  0.00    +0.000 NA
ATOM     14  C   UNL     1       2.467   7.258  19.724  0.00  0.00    +0.000 A 
BRANCH  12  15
ATOM     15  C   UNL     1       0.325  10.056  18.559  0.00  0.00    +0.000 C 
ATOM     16  F   UNL     1       0.767  11.350  18.506  0.00  0.00    +0.000 F 
ATOM     17  F   UNL     1      -0.470   9.907  17.455  0.00  0.00    +0.000 F 
ATOM     18  F   UNL     1      -0.523  10.007  19.630  0.00  0.00    +0.000 F 
ENDBRANCH  12  15
ENDBRANCH   1   9
BRANCH   1  19
ATOM     19  C   UNL     1       5.507   6.131  18.007  0.00  0.00    +0.000 C 
BRANCH  19  22
ATOM     20  O   UNL     1       7.723   4.797  16.893  0.00  0.00    +0.000 OA
ATOM     21  C   UNL     1       6.814   5.158  16.151  0.00  0.00    +0.000 C 
ATOM     22  N   UNL     1       5.683   5.787  16.604  0.00  0.00    +0.000 N 
ATOM     23  H   UNL     1       4.999   6.112  15.928  0.00  0.00    +0.000 HD
BRANCH  21  24
ATOM     24  C   UNL     1       6.875   4.859  14.691  0.00  0.00    +0.000 A 
ATOM     25  C   UNL     1       7.864   5.558  13.970  0.00  0.00    +0.000 A 
ATOM     26  C   UNL     1       8.051   5.326  12.610  0.00  0.00    +0.000 A 
ATOM     27  C   UNL     1       7.249   4.397  11.952  0.00  0.00    +0.000 A 
ATOM     28  C   UNL     1       6.249   3.713  12.649  0.00  0.00    +0.000 A 
ATOM     29 CL   UNL     1       5.299   2.581  11.744  0.00  0.00    +0.000 Cl
ATOM     30  C   UNL     1       6.044   3.944  14.022  0.00  0.00    +0.000 A 
ATOM     31 CL   UNL     1       4.744   3.123  14.836  0.00  0.00    +0.000 Cl
ENDBRANCH  21  24
ENDBRANCH  19  22
ENDBRANCH   1  19
TORSDOF 6
ENDMDL
MODEL 2
REMARK VINA RESULT:      -7.9      4.542      7.874
REMARK  Name = 
REMARK  6 active torsions:
REMARK  status: ('A' for Active; 'I' for Inactive)
REMARK    1  A    between atoms: C_2  and  C_23
REMARK    2  A    between atoms: N_3  and  C_4
REMARK    3  A    between atoms: C_4  and  C_5
REMARK    4  A    between atoms: C_5  and  C_6
REMARK    5  A    between atoms: C_5  and  N_16
REMARK    6  A    between atoms: C_9  and  C_10
REMARK                            x       y       z     vdW  Elec       q    Type
REMARK                         _______ _______ _______ _____ _____    ______ ____
ROOT
ATOM      1  C   UNL     1       4.154   7.091  17.902  0.00  0.00    +0.000 C 
ENDROOT
BRANCH   1   2
ATOM      2  N   UNL     1       5.049   6.603  16.816  0.00  0.00    +0.000 NA
ATOM      3  C   UNL     1       6.463   7.000  16.979  0.00  0.00    +0.000 C 
ATOM      4  C   UNL     1       7.220   6.186  18.031  0.00  0.00    +0.000 C 
ATOM      5  C   UNL     1       7.152   4.705  17.705  0.00  0.00    +0.000 C 
ATOM      6  F   UNL     1       7.860   4.485  16.560  0.00  0.00    +0.000 F 
ATOM      7  C   UNL     1       5.720   4.249  17.486  0.00  0.00    +0.000 C 
ATOM      8  C   UNL     1       4.992   5.162  16.500  0.00  0.00    +0.000 C 
ENDBRANCH   1   2
BRANCH   1   9
ATOM      9  C   UNL     1       3.281   5.998  18.493  0.00  0.00    +0.000 A 
ATOM     10  C   UNL     1       2.224   5.423  17.817  0.00  0.00    +0.000 A 
ATOM     11  N   UNL     1       1.495   4.394  18.295  0.00  0.00    +0.000 NA
ATOM     12  C   UNL     1       1.829   3.910  19.517  0.00  0.00    +0.000 A 
ATOM     13  N   UNL     1       2.798   4.465  20.290  0.00  0.00    +0.000 NA
ATOM     14  C   UNL     1       3.496   5.489  19.759  0.00  0.00    +0.000 A 
BRANCH  12  15
ATOM     15  C   UNL     1       1.153   2.621  20.009  0.00  0.00    +0.000 C 
ATOM     16  F   UNL     1       1.908   1.494  19.831  0.00  0.00    +0.000 F 
ATOM     17  F   UNL     1       0.873   2.654  21.349  0.00  0.00    +0.000 F 
ATOM     18  F   UNL     1      -0.038   2.360  19.392  0.00  0.00    +0.000 F 
ENDBRANCH  12  15
ENDBRANCH   1   9
BRANCH   1  19
ATOM     19  C   UNL     1       3.216   8.241  17.399  0.00  0.00    +0.000 C 
BRANCH  19  22
ATOM     20  O   UNL     1       0.532   9.094  17.380  0.00  0.00    +0.000 OA
ATOM     21  C   UNL     1       1.231   9.355  18.355  0.00  0.00    +0.000 C 
ATOM     22  N   UNL     1       2.538   8.958  18.469  0.00  0.00    +0.000 N 
ATOM     23  H   UNL     1       3.075   9.261  19.276  0.00  0.00    +0.000 HD
BRANCH  21  24
ATOM     24  C   UNL     1       0.649  10.082  19.520  0.00  0.00    +0.000 A 
ATOM     25  C   UNL     1       0.220  11.400  19.261  0.00  0.00    +0.000 A 
ATOM     26  C   UNL     1      -0.386  12.161  20.257  0.00  0.00    +0.000 A 
ATOM     27  C   UNL     1      -0.567  11.617  21.526  0.00  0.00    +0.000 A 
ATOM     28  C   UNL     1      -0.127  10.320  21.804  0.00  0.00    +0.000 A 
ATOM     29 CL   UNL     1      -0.392   9.732  23.413  0.00  0.00    +0.000 Cl
ATOM     30  C   UNL     1       0.494   9.543  20.810  0.00  0.00    +0.000 A 
ATOM     31 CL   UNL     1       1.089   7.960  21.216  0.00  0.00    +0.000 Cl
ENDBRANCH  21  24
ENDBRANCH  19  22
ENDBRANCH   1  19
TORSDOF 6
ENDMDL
MODEL 3
REMARK VINA RESULT:      -7.9      4.861      8.555
REMARK  Name = 
REMARK  6 active torsions:
REMARK  status: ('A' for Active; 'I' for Inactive)
REMARK    1  A    between atoms: C_2  and  C_23
REMARK    2  A    between atoms: N_3  and  C_4
REMARK    3  A    between atoms: C_4  and  C_5
REMARK    4  A    between atoms: C_5  and  C_6
REMARK    5  A    between atoms: C_5  and  N_16
REMARK    6  A    between atoms: C_9  and  C_10
REMARK                            x       y       z     vdW  Elec       q    Type
REMARK                         _______ _______ _______ _____ _____    ______ ____
ROOT
ATOM      1  C   UNL     1       2.589   6.301  18.451  0.00  0.00    +0.000 C 
ENDROOT
BRANCH   1   2
ATOM      2  N   UNL     1       2.955   5.903  19.839  0.00  0.00    +0.000 NA
ATOM      3  C   UNL     1       1.794   5.659  20.720  0.00  0.00    +0.000 C 
ATOM      4  C   UNL     1       1.094   4.321  20.471  0.00  0.00    +0.000 C 
ATOM      5  C   UNL     1       2.079   3.174  20.615  0.00  0.00    +0.000 C 
ATOM      6  F   UNL     1       2.460   3.098  21.922  0.00  0.00    +0.000 F 
ATOM      7  C   UNL     1       3.315   3.392  19.761  0.00  0.00    +0.000 C 
ATOM      8  C   UNL     1       3.906   4.784  19.984  0.00  0.00    +0.000 C 
ENDBRANCH   1   2
BRANCH   1   9
ATOM      9  C   UNL     1       3.630   5.898  17.420  0.00  0.00    +0.000 A 
ATOM     10  C   UNL     1       4.577   6.768  16.920  0.00  0.00    +0.000 A 
ATOM     11  N   UNL     1       5.559   6.404  16.069  0.00  0.00    +0.000 NA
ATOM     12  C   UNL     1       5.601   5.103  15.690  0.00  0.00    +0.000 A 
ATOM     13  N   UNL     1       4.664   4.194  16.065  0.00  0.00    +0.000 NA
ATOM     14  C   UNL     1       3.708   4.614  16.918  0.00  0.00    +0.000 A 
BRANCH  12  15
ATOM     15  C   UNL     1       6.812   4.610  14.883  0.00  0.00    +0.000 C 
ATOM     16  F   UNL     1       7.926   4.372  15.640  0.00  0.00    +0.000 F 
ATOM     17  F   UNL     1       6.565   3.431  14.233  0.00  0.00    +0.000 F 
ATOM     18  F   UNL     1       7.214   5.485  13.913  0.00  0.00    +0.000 F 
ENDBRANCH  12  15
ENDBRANCH   1   9
BRANCH   1  19
ATOM     19  C   UNL     1       2.368   7.848  18.337  0.00  0.00    +0.000 C 
BRANCH  19  22
ATOM     20  O   UNL     1       0.339   9.801  18.302  0.00  0.00    +0.000 OA
ATOM     21  C   UNL     1       0.763   9.406  19.384  0.00  0.00    +0.000 C 
ATOM     22  N   UNL     1       1.727   8.438  19.503  0.00  0.00    +0.000 N 
ATOM     23  H   UNL     1       2.075   8.203  20.427  0.00  0.00    +0.000 HD
BRANCH  21  24
ATOM     24  C   UNL     1       0.183   9.932  20.653  0.00  0.00    +0.000 A 
ATOM     25  C   UNL     1      -0.135   8.960  21.624  0.00  0.00    +0.000 A 
ATOM     26  C   UNL     1      -0.636   9.334  22.868  0.00  0.00    +0.000 A 
ATOM     27  C   UNL     1      -0.830  10.682  23.157  0.00  0.00    +0.000 A 
ATOM     28  C   UNL     1      -0.540  11.655  22.196  0.00  0.00    +0.000 A 
ATOM     29 CL   UNL     1      -0.819  13.306  22.646  0.00  0.00    +0.000 Cl
ATOM     30  C   UNL     1      -0.041  11.292  20.932  0.00  0.00    +0.000 A 
ATOM     31 CL   UNL     1       0.240  12.528  19.742  0.00  0.00    +0.000 Cl
ENDBRANCH  21  24
ENDBRANCH  19  22
ENDBRANCH   1  19
TORSDOF 6
ENDMDL
MODEL 4
REMARK VINA RESULT:      -7.8      0.424      1.202
REMARK  Name = 
REMARK  6 active torsions:
REMARK  status: ('A' for Active; 'I' for Inactive)
REMARK    1  A    between atoms: C_2  and  C_23
REMARK    2  A    between atoms: N_3  and  C_4
REMARK    3  A    between atoms: C_4  and  C_5
REMARK    4  A    between atoms: C_5  and  C_6
REMARK    5  A    between atoms: C_5  and  N_16
REMARK    6  A    between atoms: C_9  and  C_10
REMARK                            x       y       z     vdW  Elec       q    Type
REMARK                         _______ _______ _______ _____ _____    ______ ____
ROOT
ATOM      1  C   UNL     1       4.093   5.627  18.659  0.00  0.00    +0.000 C 
ENDROOT
BRANCH   1   2
ATOM      2  N   UNL     1       3.534   4.462  17.917  0.00  0.00    +0.000 NA
ATOM      3  C   UNL     1       4.081   3.158  18.345  0.00  0.00    +0.000 C 
ATOM      4  C   UNL     1       3.508   2.648  19.669  0.00  0.00    +0.000 C 
ATOM      5  C   UNL     1       1.995   2.552  19.588  0.00  0.00    +0.000 C 
ATOM      6  F   UNL     1       1.674   1.568  18.700  0.00  0.00    +0.000 F 
ATOM      7  C   UNL     1       1.380   3.856  19.112  0.00  0.00    +0.000 C 
ATOM      8  C   UNL     1       2.064   4.361  17.842  0.00  0.00    +0.000 C 
ENDBRANCH   1   2
BRANCH   1   9
ATOM      9  C   UNL     1       3.175   6.836  18.651  0.00  0.00    +0.000 A 
ATOM     10  C   UNL     1       2.386   7.196  19.725  0.00  0.00    +0.000 A 
ATOM     11  N   UNL     1       1.631   8.313  19.763  0.00  0.00    +0.000 NA
ATOM     12  C   UNL     1       1.657   9.119  18.673  0.00  0.00    +0.000 A 
ATOM     13  N   UNL     1       2.337   8.805  17.540  0.00  0.00    +0.000 NA
ATOM     14  C   UNL     1       3.076   7.677  17.560  0.00  0.00    +0.000 A 
BRANCH  12  15
ATOM     15  C   UNL     1       0.969  10.490  18.754  0.00  0.00    +0.000 C 
ATOM     16  F   UNL     1      -0.269  10.527  18.172  0.00  0.00    +0.000 F 
ATOM     17  F   UNL     1       0.767  10.901  20.044  0.00  0.00    +0.000 F 
ATOM     18  F   UNL     1       1.680  11.493  18.157  0.00  0.00    +0.000 F 
ENDBRANCH  12  15
ENDBRANCH   1   9
BRANCH   1  19
ATOM     19  C   UNL     1       5.480   6.066  18.077  0.00  0.00    +0.000 C 
BRANCH  19  22
ATOM     20  O   UNL     1       7.730   4.809  16.945  0.00  0.00    +0.000 OA
ATOM     21  C   UNL     1       6.807   5.147  16.209  0.00  0.00    +0.000 C 
ATOM     22  N   UNL     1       5.659   5.738  16.671  0.00  0.00    +0.000 N 
ATOM     23  H   UNL     1       4.962   6.046  16.001  0.00  0.00    +0.000 HD
BRANCH  21  24
ATOM     24  C   UNL     1       6.870   4.860  14.747  0.00  0.00    +0.000 A 
ATOM     25  C   UNL     1       7.844   5.583  14.028  0.00  0.00    +0.000 A 
ATOM     26  C   UNL     1       8.032   5.364  12.666  0.00  0.00    +0.000 A 
ATOM     27  C   UNL     1       7.247   4.425  12.004  0.00  0.00    +0.000 A 
ATOM     28  C   UNL     1       6.262   3.717  12.698  0.00  0.00    +0.000 A 
ATOM     29 CL   UNL     1       5.332   2.572  11.788  0.00  0.00    +0.000 Cl
ATOM     30  C   UNL     1       6.056   3.933  14.073  0.00  0.00    +0.000 A 
ATOM     31 CL   UNL     1       4.774   3.081  14.885  0.00  0.00    +0.000 Cl
ENDBRANCH  21  24
ENDBRANCH  19  22
ENDBRANCH   1  19
TORSDOF 6
ENDMDL
MODEL 5
REMARK VINA RESULT:      -7.8      4.624      7.914
REMARK  Name = 
REMARK  6 active torsions:
REMARK  status: ('A' for Active; 'I' for Inactive)
REMARK    1  A    between atoms: C_2  and  C_23
REMARK    2  A    between atoms: N_3  and  C_4
REMARK    3  A    between atoms: C_4  and  C_5
REMARK    4  A    between atoms: C_5  and  C_6
REMARK    5  A    between atoms: C_5  and  N_16
REMARK    6  A    between atoms: C_9  and  C_10
REMARK                            x       y       z     vdW  Elec       q    Type
REMARK                         _______ _______ _______ _____ _____    ______ ____
ROOT
ATOM      1  C   UNL     1       2.817   5.993  18.688  0.00  0.00    +0.000 C 
ENDROOT
BRANCH   1   2
ATOM      2  N   UNL     1       3.071   5.165  19.900  0.00  0.00    +0.000 NA
ATOM      3  C   UNL     1       1.975   5.197  20.890  0.00  0.00    +0.000 C 
ATOM      4  C   UNL     1       0.764   4.344  20.505  0.00  0.00    +0.000 C 
ATOM      5  C   UNL     1       1.184   2.903  20.271  0.00  0.00    +0.000 C 
ATOM      6  F   UNL     1       1.582   2.374  21.464  0.00  0.00    +0.000 F 
ATOM      7  C   UNL     1       2.339   2.813  19.290  0.00  0.00    +0.000 C 
ATOM      8  C   UNL     1       3.472   3.762  19.678  0.00  0.00    +0.000 C 
ENDBRANCH   1   2
BRANCH   1   9
ATOM      9  C   UNL     1       3.762   5.680  17.541  0.00  0.00    +0.000 A 
ATOM     10  C   UNL     1       4.641   6.602  17.009  0.00  0.00    +0.000 A 
ATOM     11  N   UNL     1       5.544   6.315  16.050  0.00  0.00    +0.000 NA
ATOM     12  C   UNL     1       5.576   5.041  15.588  0.00  0.00    +0.000 A 
ATOM     13  N   UNL     1       4.697   4.088  15.991  0.00  0.00    +0.000 NA
ATOM     14  C   UNL     1       3.818   4.431  16.954  0.00  0.00    +0.000 A 
BRANCH  12  15
ATOM     15  C   UNL     1       6.714   4.629  14.642  0.00  0.00    +0.000 C 
ATOM     16  F   UNL     1       6.506   3.435  14.007  0.00  0.00    +0.000 F 
ATOM     17  F   UNL     1       6.915   5.536  13.636  0.00  0.00    +0.000 F 
ATOM     18  F   UNL     1       7.923   4.502  15.266  0.00  0.00    +0.000 F 
ENDBRANCH  12  15
ENDBRANCH   1   9
BRANCH   1  19
ATOM     19  C   UNL     1       2.929   7.523  19.005  0.00  0.00    +0.000 C 
BRANCH  19  22
ATOM     20  O   UNL     1       2.278   9.792  17.468  0.00  0.00    +0.000 OA
ATOM     21  C   UNL     1       1.438   9.336  18.239  0.00  0.00    +0.000 C 
ATOM     22  N   UNL     1       1.651   8.219  19.005  0.00  0.00    +0.000 N 
ATOM     23  H   UNL     1       0.936   7.933  19.665  0.00  0.00    +0.000 HD
BRANCH  21  24
ATOM     24  C   UNL     1       0.086   9.959  18.327  0.00  0.00    +0.000 A 
ATOM     25  C   UNL     1      -0.838   9.546  17.346  0.00  0.00    +0.000 A 
ATOM     26  C   UNL     1      -2.147  10.020  17.356  0.00  0.00    +0.000 A 
ATOM     27  C   UNL     1      -2.548  10.917  18.341  0.00  0.00    +0.000 A 
ATOM     28  C   UNL     1      -1.637  11.354  19.307  0.00  0.00    +0.000 A 
ATOM     29 CL   UNL     1      -2.228  12.474  20.490  0.00  0.00    +0.000 Cl
ATOM     30  C   UNL     1      -0.310  10.889  19.304  0.00  0.00    +0.000 A 
ATOM     31 CL   UNL     1       0.811  11.510  20.482  0.00  0.00    +0.000 Cl
ENDBRANCH  21  24
ENDBRANCH  19  22
ENDBRANCH   1  19
TORSDOF 6
ENDMDL
MODEL 6
REMARK VINA RESULT:      -7.8      4.836      8.240
REMARK  Name = 
REMARK  6 active torsions:
REMARK  status: ('A' for Active; 'I' for Inactive)
REMARK    1  A    between atoms: C_2  and  C_23
REMARK    2  A    between atoms: N_3  and  C_4
REMARK    3  A    between atoms: C_4  and  C_5
REMARK    4  A    between atoms: C_5  and  C_6
REMARK    5  A    between atoms: C_5  and  N_16
REMARK    6  A    between atoms: C_9  and  C_10
REMARK                            x       y       z     vdW  Elec       q    Type
REMARK                         _______ _______ _______ _____ _____    ______ ____
ROOT
ATOM      1  C   UNL     1       4.085   7.050  18.054  0.00  0.00    +0.000 C 
ENDROOT
BRANCH   1   2
ATOM      2  N   UNL     1       4.975   6.854  16.875  0.00  0.00    +0.000 NA
ATOM      3  C   UNL     1       6.394   7.177  17.134  0.00  0.00    +0.000 C 
ATOM      4  C   UNL     1       7.140   6.106  17.932  0.00  0.00    +0.000 C 
ATOM      5  C   UNL     1       7.054   4.764  17.228  0.00  0.00    +0.000 C 
ATOM      6  F   UNL     1       7.760   4.845  16.063  0.00  0.00    +0.000 F 
ATOM      7  C   UNL     1       5.617   4.400  16.900  0.00  0.00    +0.000 C 
ATOM      8  C   UNL     1       4.900   5.549  16.191  0.00  0.00    +0.000 C 
ENDBRANCH   1   2
BRANCH   1   9
ATOM      9  C   UNL     1       3.407   5.770  18.509  0.00  0.00    +0.000 A 
ATOM     10  C   UNL     1       3.825   5.038  19.602  0.00  0.00    +0.000 A 
ATOM     11  N   UNL     1       3.182   3.947  20.068  0.00  0.00    +0.000 NA
ATOM     12  C   UNL     1       2.063   3.558  19.411  0.00  0.00    +0.000 A 
ATOM     13  N   UNL     1       1.623   4.166  18.279  0.00  0.00    +0.000 NA
ATOM     14  C   UNL     1       2.303   5.252  17.861  0.00  0.00    +0.000 A 
BRANCH  12  15
ATOM     15  C   UNL     1       1.199   2.445  20.023  0.00  0.00    +0.000 C 
ATOM     16  F   UNL     1      -0.109   2.471  19.622  0.00  0.00    +0.000 F 
ATOM     17  F   UNL     1       1.646   1.193  19.695  0.00  0.00    +0.000 F 
ATOM     18  F   UNL     1       1.159   2.474  21.388  0.00  0.00    +0.000 F 
ENDBRANCH  12  15
ENDBRANCH   1   9
BRANCH   1  19
ATOM     19  C   UNL     1       2.971   8.112  17.762  0.00  0.00    +0.000 C 
BRANCH  19  22
ATOM     20  O   UNL     1       0.597   9.626  17.816  0.00  0.00    +0.000 OA
ATOM     21  C   UNL     1       1.149   9.350  18.877  0.00  0.00    +0.000 C 
ATOM     22  N   UNL     1       2.291   8.594  18.954  0.00  0.00    +0.000 N 
ATOM     23  H   UNL     1       2.727   8.456  19.860  0.00  0.00    +0.000 HD
BRANCH  21  24
ATOM     24  C   UNL     1       0.546   9.784  20.170  0.00  0.00    +0.000 A 
ATOM     25  C   UNL     1       0.239   8.748  21.075  0.00  0.00    +0.000 A 
ATOM     26  C   UNL     1      -0.281   9.033  22.335  0.00  0.00    +0.000 A 
ATOM     27  C   UNL     1      -0.506  10.356  22.704  0.00  0.00    +0.000 A 
ATOM     28  C   UNL     1      -0.229  11.393  21.809  0.00  0.00    +0.000 A 
ATOM     29 CL   UNL     1      -0.547  13.006  22.357  0.00  0.00    +0.000 Cl
ATOM     30  C   UNL     1       0.289  11.119  20.531  0.00  0.00    +0.000 A 
ATOM     31 CL   UNL     1       0.556  12.433  19.422  0.00  0.00    +0.000 Cl
ENDBRANCH  21  24
ENDBRANCH  19  22
ENDBRANCH   1  19
TORSDOF 6
ENDMDL
MODEL 7
REMARK VINA RESULT:      -7.7      4.889      8.216
REMARK  Name = 
REMARK  6 active torsions:
REMARK  status: ('A' for Active; 'I' for Inactive)
REMARK    1  A    between atoms: C_2  and  C_23
REMARK    2  A    between atoms: N_3  and  C_4
REMARK    3  A    between atoms: C_4  and  C_5
REMARK    4  A    between atoms: C_5  and  C_6
REMARK    5  A    between atoms: C_5  and  N_16
REMARK    6  A    between atoms: C_9  and  C_10
REMARK                            x       y       z     vdW  Elec       q    Type
REMARK                         _______ _______ _______ _____ _____    ______ ____
ROOT
ATOM      1  C   UNL     1       4.025   7.061  17.980  0.00  0.00    +0.000 C 
ENDROOT
BRANCH   1   2
ATOM      2  N   UNL     1       4.803   6.701  16.761  0.00  0.00    +0.000 NA
ATOM      3  C   UNL     1       6.210   7.151  16.792  0.00  0.00    +0.000 C 
ATOM      4  C   UNL     1       7.117   6.295  17.679  0.00  0.00    +0.000 C 
ATOM      5  C   UNL     1       7.067   4.842  17.242  0.00  0.00    +0.000 C 
ATOM      6  F   UNL     1       7.642   4.745  16.009  0.00  0.00    +0.000 F 
ATOM      7  C   UNL     1       5.637   4.337  17.152  0.00  0.00    +0.000 C 
ATOM      8  C   UNL     1       4.763   5.289  16.336  0.00  0.00    +0.000 C 
ENDBRANCH   1   2
BRANCH   1   9
ATOM      9  C   UNL     1       3.216   5.902  18.535  0.00  0.00    +0.000 A 
ATOM     10  C   UNL     1       2.128   5.356  17.884  0.00  0.00    +0.000 A 
ATOM     11  N   UNL     1       1.453   4.274  18.323  0.00  0.00    +0.000 NA
ATOM     12  C   UNL     1       1.878   3.702  19.476  0.00  0.00    +0.000 A 
ATOM     13  N   UNL     1       2.885   4.218  20.228  0.00  0.00    +0.000 NA
ATOM     14  C   UNL     1       3.525   5.299  19.738  0.00  0.00    +0.000 A 
BRANCH  12  15
ATOM     15  C   UNL     1       1.262   2.361  19.904  0.00  0.00    +0.000 C 
ATOM     16  F   UNL     1       1.980   1.267  19.504  0.00  0.00    +0.000 F 
ATOM     17  F   UNL     1       1.159   2.241  21.264  0.00  0.00    +0.000 F 
ATOM     18  F   UNL     1      -0.001   2.163  19.422  0.00  0.00    +0.000 F 
ENDBRANCH  12  15
ENDBRANCH   1   9
BRANCH   1  19
ATOM     19  C   UNL     1       3.043   8.250  17.704  0.00  0.00    +0.000 C 
BRANCH  19  22
ATOM     20  O   UNL     1       0.561   9.579  17.762  0.00  0.00    +0.000 OA
ATOM     21  C   UNL     1       1.163   9.400  18.817  0.00  0.00    +0.000 C 
ATOM     22  N   UNL     1       2.361   8.738  18.893  0.00  0.00    +0.000 N 
ATOM     23  H   UNL     1       2.834   8.679  19.790  0.00  0.00    +0.000 HD
BRANCH  21  24
ATOM     24  C   UNL     1       0.565   9.852  20.106  0.00  0.00    +0.000 A 
ATOM     25  C   UNL     1       0.256   8.827  21.024  0.00  0.00    +0.000 A 
ATOM     26  C   UNL     1      -0.259   9.129  22.282  0.00  0.00    +0.000 A 
ATOM     27  C   UNL     1      -0.478  10.457  22.637  0.00  0.00    +0.000 A 
ATOM     28  C   UNL     1      -0.198  11.483  21.730  0.00  0.00    +0.000 A 
ATOM     29 CL   UNL     1      -0.506  13.103  22.260  0.00  0.00    +0.000 Cl
ATOM     30  C   UNL     1       0.316  11.192  20.453  0.00  0.00    +0.000 A 
ATOM     31 CL   UNL     1       0.586  12.492  19.329  0.00  0.00    +0.000 Cl
ENDBRANCH  21  24
ENDBRANCH  19  22
ENDBRANCH   1  19
TORSDOF 6
ENDMDL
MODEL 8
REMARK VINA RESULT:      -7.7      4.521      7.941
REMARK  Name = 
REMARK  6 active torsions:
REMARK  status: ('A' for Active; 'I' for Inactive)
REMARK    1  A    between atoms: C_2  and  C_23
REMARK    2  A    between atoms: N_3  and  C_4
REMARK    3  A    between atoms: C_4  and  C_5
REMARK    4  A    between atoms: C_5  and  C_6
REMARK    5  A    between atoms: C_5  and  N_16
REMARK    6  A    between atoms: C_9  and  C_10
REMARK                            x       y       z     vdW  Elec       q    Type
REMARK                         _______ _______ _______ _____ _____    ______ ____
ROOT
ATOM      1  C   UNL     1       4.137   7.114  17.902  0.00  0.00    +0.000 C 
ENDROOT
BRANCH   1   2
ATOM      2  N   UNL     1       5.102   6.806  16.810  0.00  0.00    +0.000 NA
ATOM      3  C   UNL     1       6.511   7.087  17.157  0.00  0.00    +0.000 C 
ATOM      4  C   UNL     1       7.146   6.039  18.075  0.00  0.00    +0.000 C 
ATOM      5  C   UNL     1       7.051   4.659  17.449  0.00  0.00    +0.000 C 
ATOM      6  F   UNL     1       7.844   4.636  16.340  0.00  0.00    +0.000 F 
ATOM      7  C   UNL     1       5.627   4.334  17.034  0.00  0.00    +0.000 C 
ATOM      8  C   UNL     1       5.019   5.463  16.203  0.00  0.00    +0.000 C 
ENDBRANCH   1   2
BRANCH   1   9
ATOM      9  C   UNL     1       3.439   5.880  18.448  0.00  0.00    +0.000 A 
ATOM     10  C   UNL     1       3.829   5.238  19.606  0.00  0.00    +0.000 A 
ATOM     11  N   UNL     1       3.168   4.194  20.147  0.00  0.00    +0.000 NA
ATOM     12  C   UNL     1       2.059   3.759  19.500  0.00  0.00    +0.000 A 
ATOM     13  N   UNL     1       1.647   4.273  18.313  0.00  0.00    +0.000 NA
ATOM     14  C   UNL     1       2.345   5.317  17.821  0.00  0.00    +0.000 A 
BRANCH  12  15
ATOM     15  C   UNL     1       1.174   2.705  20.184  0.00  0.00    +0.000 C 
ATOM     16  F   UNL     1       0.950   2.944  21.513  0.00  0.00    +0.000 F 
ATOM     17  F   UNL     1      -0.073   2.623  19.623  0.00  0.00    +0.000 F 
ATOM     18  F   UNL     1       1.686   1.440  20.125  0.00  0.00    +0.000 F 
ENDBRANCH  12  15
ENDBRANCH   1   9
BRANCH   1  19
ATOM     19  C   UNL     1       3.037   8.124  17.429  0.00  0.00    +0.000 C 
BRANCH  19  22
ATOM     20  O   UNL     1       0.461   9.262  17.469  0.00  0.00    +0.000 OA
ATOM     21  C   UNL     1       1.213   9.461  18.419  0.00  0.00    +0.000 C 
ATOM     22  N   UNL     1       2.472   8.926  18.504  0.00  0.00    +0.000 N 
ATOM     23  H   UNL     1       3.062   9.181  19.289  0.00  0.00    +0.000 HD
BRANCH  21  24
ATOM     24  C   UNL     1       0.748  10.265  19.586  0.00  0.00    +0.000 A 
ATOM     25  C   UNL     1       0.656  11.654  19.369  0.00  0.00    +0.000 A 
ATOM     26  C   UNL     1       0.186  12.502  20.368  0.00  0.00    +0.000 A 
ATOM     27  C   UNL     1      -0.194  11.974  21.598  0.00  0.00    +0.000 A 
ATOM     28  C   UNL     1      -0.087  10.601  21.837  0.00  0.00    +0.000 A 
ATOM     29 CL   UNL     1      -0.580  10.038  23.400  0.00  0.00    +0.000 Cl
ATOM     30  C   UNL     1       0.394   9.734  20.839  0.00  0.00    +0.000 A 
ATOM     31 CL   UNL     1       0.576   8.041  21.200  0.00  0.00    +0.000 Cl
ENDBRANCH  21  24
ENDBRANCH  19  22
ENDBRANCH   1  19
TORSDOF 6
ENDMDL
MODEL 9
REMARK VINA RESULT:      -7.6      4.628      7.956
REMARK  Name = 
REMARK  6 active torsions:
REMARK  status: ('A' for Active; 'I' for Inactive)
REMARK    1  A    between atoms: C_2  and  C_23
REMARK    2  A    between atoms: N_3  and  C_4
REMARK    3  A    between atoms: C_4  and  C_5
REMARK    4  A    between atoms: C_5  and  C_6
REMARK    5  A    between atoms: C_5  and  N_16
REMARK    6  A    between atoms: C_9  and  C_10
REMARK                            x       y       z     vdW  Elec       q    Type
REMARK                         _______ _______ _______ _____ _____    ______ ____
ROOT
ATOM      1  C   UNL     1       2.801   5.952  18.623  0.00  0.00    +0.000 C 
ENDROOT
BRANCH   1   2
ATOM      2  N   UNL     1       3.046   5.278  19.929  0.00  0.00    +0.000 NA
ATOM      3  C   UNL     1       1.890   5.311  20.848  0.00  0.00    +0.000 C 
ATOM      4  C   UNL     1       0.783   4.317  20.491  0.00  0.00    +0.000 C 
ATOM      5  C   UNL     1       1.337   2.904  20.437  0.00  0.00    +0.000 C 
ATOM      6  F   UNL     1       1.701   2.538  21.699  0.00  0.00    +0.000 F 
ATOM      7  C   UNL     1       2.556   2.820  19.536  0.00  0.00    +0.000 C 
ATOM      8  C   UNL     1       3.578   3.902  19.882  0.00  0.00    +0.000 C 
ENDBRANCH   1   2
BRANCH   1   9
ATOM      9  C   UNL     1       3.743   5.488  17.526  0.00  0.00    +0.000 A 
ATOM     10  C   UNL     1       3.732   4.208  17.009  0.00  0.00    +0.000 A 
ATOM     11  N   UNL     1       4.503   3.806  15.978  0.00  0.00    +0.000 NA
ATOM     12  C   UNL     1       5.335   4.724  15.429  0.00  0.00    +0.000 A 
ATOM     13  N   UNL     1       5.475   5.981  15.924  0.00  0.00    +0.000 NA
ATOM     14  C   UNL     1       4.677   6.329  16.954  0.00  0.00    +0.000 A 
BRANCH  12  15
ATOM     15  C   UNL     1       6.082   4.363  14.136  0.00  0.00    +0.000 C 
ATOM     16  F   UNL     1       6.775   3.185  14.204  0.00  0.00    +0.000 F 
ATOM     17  F   UNL     1       5.239   4.218  13.067  0.00  0.00    +0.000 F 
ATOM     18  F   UNL     1       6.999   5.301  13.755  0.00  0.00    +0.000 F 
ENDBRANCH  12  15
ENDBRANCH   1   9
BRANCH   1  19
ATOM     19  C   UNL     1       2.931   7.508  18.747  0.00  0.00    +0.000 C 
BRANCH  19  22
ATOM     20  O   UNL     1       2.320   9.971  17.525  0.00  0.00    +0.000 OA
ATOM     21  C   UNL     1       1.460   9.415  18.203  0.00  0.00    +0.000 C 
ATOM     22  N   UNL     1       1.654   8.202  18.812  0.00  0.00    +0.000 N 
ATOM     23  H   UNL     1       0.921   7.829  19.407  0.00  0.00    +0.000 HD
BRANCH  21  24
ATOM     24  C   UNL     1       0.106  10.025  18.342  0.00  0.00    +0.000 A 
ATOM     25  C   UNL     1      -0.848   9.608  17.392  0.00  0.00    +0.000 A 
ATOM     26  C   UNL     1      -2.160  10.069  17.451  0.00  0.00    +0.000 A 
ATOM     27  C   UNL     1      -2.535  10.957  18.455  0.00  0.00    +0.000 A 
ATOM     28  C   UNL     1      -1.594  11.398  19.390  0.00  0.00    +0.000 A 
ATOM     29 CL   UNL     1      -2.153  12.507  20.599  0.00  0.00    +0.000 Cl
ATOM     30  C   UNL     1      -0.263  10.946  19.338  0.00  0.00    +0.000 A 
ATOM     31 CL   UNL     1       0.892  11.572  20.479  0.00  0.00    +0.000 Cl
ENDBRANCH  21  24
ENDBRANCH  19  22
ENDBRANCH   1  19
TORSDOF 6
ENDMDL
