MODEL 1
REMARK VINA RESULT:      -7.7      0.000      0.000
REMARK  Name = 
REMARK  5 active torsions:
REMARK  status: ('A' for Active; 'I' for Inactive)
REMARK    1  A    between atoms: C_1  and  N_2
REMARK    2  A    between atoms: C_3  and  C_4
REMARK    3  A    between atoms: N_6  and  C_7
REMARK    4  A    between atoms: N_10  and  C_11
REMARK    5  A    between atoms: C_11  and  C_12
REMARK                            x       y       z     vdW  Elec       q    Type
REMARK                         _______ _______ _______ _____ _____    ______ ____
ROOT
ATOM      1  C   UNL     1       1.786   8.380  19.307  0.00  0.00    +0.000 C 
ATOM      2  O   UNL     1       2.125   8.789  18.200  0.00  0.00    +0.000 OA
ATOM      3  N   UNL     1       2.144   7.107  19.736  0.00  0.00    +0.000 N 
ATOM      4  H   UNL     1       1.992   6.831  20.696  0.00  0.00    +0.000 HD
ENDROOT
BRANCH   1   7
ATOM      5  C   UNL     1      -0.255  10.489  18.379  0.00  0.00    +0.000 C 
ATOM      6  N   UNL     1       0.004  10.194  19.792  0.00  0.00    +0.000 N 
ATOM      7  C   UNL     1       0.953   9.249  20.265  0.00  0.00    +0.000 A 
ATOM      8  C   UNL     1       1.109   8.989  21.572  0.00  0.00    +0.000 A 
ATOM      9  C   UNL     1       0.333   9.729  22.577  0.00  0.00    +0.000 A 
ATOM     10  O   UNL     1       0.492   9.489  23.767  0.00  0.00    +0.000 OA
ATOM     11  C   UNL     1      -0.614  10.750  22.101  0.00  0.00    +0.000 A 
ATOM     12  C   UNL     1      -1.324  11.509  23.056  0.00  0.00    +0.000 A 
ATOM     13  C   UNL     1      -2.235  12.477  22.643  0.00  0.00    +0.000 A 
ATOM     14  C   UNL     1      -2.456  12.662  21.284  0.00  0.00    +0.000 A 
ATOM     15  C   UNL     1      -1.750  11.899  20.338  0.00  0.00    +0.000 A 
ATOM     16  C   UNL     1      -0.790  10.942  20.722  0.00  0.00    +0.000 A 
ENDBRANCH   1   7
BRANCH   3  17
ATOM     17  C   UNL     1       2.995   6.259  18.910  0.00  0.00    +0.000 C 
ATOM     18  C   UNL     1       3.904   5.350  19.719  0.00  0.00    +0.000 C 
ATOM     19  C   UNL     1       4.374   4.400  18.632  0.00  0.00    +0.000 C 
ATOM     20  N   UNL     1       3.147   4.040  17.893  0.00  0.00    +0.000 NA
ATOM     21  C   UNL     1       2.281   5.259  17.975  0.00  0.00    +0.000 C 
BRANCH  20  22
ATOM     22  C   UNL     1       2.456   2.860  18.475  0.00  0.00    +0.000 C 
BRANCH  22  23
ATOM     23  C   UNL     1       0.977   3.015  18.886  0.00  0.00    +0.000 C 
ATOM     24  F   UNL     1       0.257   1.908  18.576  0.00  0.00    +0.000 F 
ATOM     25  F   UNL     1       0.911   3.122  20.242  0.00  0.00    +0.000 F 
ENDBRANCH  22  23
ENDBRANCH  20  22
ENDBRANCH   3  17
TORSDOF 4
ENDMDL
MODEL 2
REMARK VINA RESULT:      -7.6      3.201      3.818
REMARK  Name = 
REMARK  5 active torsions:
REMARK  status: ('A' for Active; 'I' for Inactive)
REMARK    1  A    between atoms: C_1  and  N_2
REMARK    2  A    between atoms: C_3  and  C_4
REMARK    3  A    between atoms: N_6  and  C_7
REMARK    4  A    between atoms: N_10  and  C_11
REMARK    5  A    between atoms: C_11  and  C_12
REMARK                            x       y       z     vdW  Elec       q    Type
REMARK                         _______ _______ _______ _____ _____    ______ ____
ROOT
ATOM      1  C   UNL     1       2.306   6.740  19.886  0.00  0.00    +0.000 C 
ATOM      2  O   UNL     1       1.805   5.693  20.288  0.00  0.00    +0.000 OA
ATOM      3  N   UNL     1       3.438   6.724  19.079  0.00  0.00    +0.000 N 
ATOM      4  H   UNL     1       3.757   7.571  18.632  0.00  0.00    +0.000 HD
ENDROOT
BRANCH   1   7
ATOM      5  C   UNL     1       1.571   8.903  17.824  0.00  0.00    +0.000 C 
ATOM      6  N   UNL     1       1.362   9.068  19.266  0.00  0.00    +0.000 N 
ATOM      7  C   UNL     1       1.710   8.109  20.254  0.00  0.00    +0.000 A 
ATOM      8  C   UNL     1       1.448   8.300  21.555  0.00  0.00    +0.000 A 
ATOM      9  C   UNL     1       0.839   9.555  22.017  0.00  0.00    +0.000 A 
ATOM     10  O   UNL     1       0.615   9.721  23.210  0.00  0.00    +0.000 OA
ATOM     11  C   UNL     1       0.525  10.580  21.009  0.00  0.00    +0.000 A 
ATOM     12  C   UNL     1      -0.007  11.813  21.443  0.00  0.00    +0.000 A 
ATOM     13  C   UNL     1      -0.325  12.802  20.517  0.00  0.00    +0.000 A 
ATOM     14  C   UNL     1      -0.140  12.547  19.164  0.00  0.00    +0.000 A 
ATOM     15  C   UNL     1       0.385  11.315  18.738  0.00  0.00    +0.000 A 
ATOM     16  C   UNL     1       0.757  10.309  19.651  0.00  0.00    +0.000 A 
ENDBRANCH   1   7
BRANCH   3  17
ATOM     17  C   UNL     1       4.010   5.459  18.630  0.00  0.00    +0.000 C 
ATOM     18  C   UNL     1       4.338   5.441  17.148  0.00  0.00    +0.000 C 
ATOM     19  C   UNL     1       5.196   4.190  17.076  0.00  0.00    +0.000 C 
ATOM     20  N   UNL     1       6.128   4.309  18.216  0.00  0.00    +0.000 NA
ATOM     21  C   UNL     1       5.352   5.039  19.267  0.00  0.00    +0.000 C 
BRANCH  20  22
ATOM     22  C   UNL     1       7.368   5.049  17.864  0.00  0.00    +0.000 C 
BRANCH  22  23
ATOM     23  C   UNL     1       7.436   6.553  18.201  0.00  0.00    +0.000 C 
ATOM     24  F   UNL     1       8.518   6.842  18.966  0.00  0.00    +0.000 F 
ATOM     25  F   UNL     1       7.613   7.251  17.045  0.00  0.00    +0.000 F 
ENDBRANCH  22  23
ENDBRANCH  20  22
ENDBRANCH   3  17
TORSDOF 4
ENDMDL
MODEL 3
REMARK VINA RESULT:      -7.4      2.841      3.494
REMARK  Name = 
REMARK  5 active torsions:
REMARK  status: ('A' for Active; 'I' for Inactive)
REMARK    1  A    between atoms: C_1  and  N_2
REMARK    2  A    between atoms: C_3  and  C_4
REMARK    3  A    between atoms: N_6  and  C_7
REMARK    4  A    between atoms: N_10  and  C_11
REMARK    5  A    between atoms: C_11  and  C_12
REMARK                            x       y       z     vdW  Elec       q    Type
REMARK                         _______ _______ _______ _____ _____    ______ ____
ROOT
ATOM      1  C   UNL     1       1.920   6.788  20.384  0.00  0.00    +0.000 C 
ATOM      2  O   UNL     1       1.303   5.819  20.819  0.00  0.00    +0.000 OA
ATOM      3  N   UNL     1       3.102   6.618  19.672  0.00  0.00    +0.000 N 
ATOM      4  H   UNL     1       3.525   7.399  19.192  0.00  0.00    +0.000 HD
ENDROOT
BRANCH   1   7
ATOM      5  C   UNL     1       1.638   8.871  18.136  0.00  0.00    +0.000 C 
ATOM      6  N   UNL     1       1.281   9.146  19.531  0.00  0.00    +0.000 N 
ATOM      7  C   UNL     1       1.418   8.225  20.603  0.00  0.00    +0.000 A 
ATOM      8  C   UNL     1       1.026   8.522  21.851  0.00  0.00    +0.000 A 
ATOM      9  C   UNL     1       0.490   9.852  22.168  0.00  0.00    +0.000 A 
ATOM     10  O   UNL     1       0.145  10.112  23.315  0.00  0.00    +0.000 OA
ATOM     11  C   UNL     1       0.394  10.834  21.076  0.00  0.00    +0.000 A 
ATOM     12  C   UNL     1      -0.065  12.134  21.377  0.00  0.00    +0.000 A 
ATOM     13  C   UNL     1      -0.178  13.086  20.368  0.00  0.00    +0.000 A 
ATOM     14  C   UNL     1       0.138  12.730  19.063  0.00  0.00    +0.000 A 
ATOM     15  C   UNL     1       0.590  11.432  18.769  0.00  0.00    +0.000 A 
ATOM     16  C   UNL     1       0.755  10.458  19.773  0.00  0.00    +0.000 A 
ENDBRANCH   1   7
BRANCH   3  17
ATOM     17  C   UNL     1       3.595   5.280  19.363  0.00  0.00    +0.000 C 
ATOM     18  C   UNL     1       3.011   4.706  18.084  0.00  0.00    +0.000 C 
ATOM     19  C   UNL     1       3.940   3.524  17.870  0.00  0.00    +0.000 C 
ATOM     20  N   UNL     1       5.295   4.069  18.090  0.00  0.00    +0.000 NA
ATOM     21  C   UNL     1       5.113   5.138  19.122  0.00  0.00    +0.000 C 
BRANCH  20  22
ATOM     22  C   UNL     1       5.894   4.627  16.850  0.00  0.00    +0.000 C 
BRANCH  22  23
ATOM     23  C   UNL     1       7.401   4.961  16.857  0.00  0.00    +0.000 C 
ATOM     24  F   UNL     1       7.624   6.239  17.250  0.00  0.00    +0.000 F 
ATOM     25  F   UNL     1       8.015   4.183  17.790  0.00  0.00    +0.000 F 
ENDBRANCH  22  23
ENDBRANCH  20  22
ENDBRANCH   3  17
TORSDOF 4
ENDMDL
MODEL 4
REMARK VINA RESULT:      -7.3      2.723      3.264
REMARK  Name = 
REMARK  5 active torsions:
REMARK  status: ('A' for Active; 'I' for Inactive)
REMARK    1  A    between atoms: C_1  and  N_2
REMARK    2  A    between atoms: C_3  and  C_4
REMARK    3  A    between atoms: N_6  and  C_7
REMARK    4  A    between atoms: N_10  and  C_11
REMARK    5  A    between atoms: C_11  and  C_12
REMARK                            x       y       z     vdW  Elec       q    Type
REMARK                         _______ _______ _______ _____ _____    ______ ____
ROOT
ATOM      1  C   UNL     1       1.914   6.811  20.366  0.00  0.00    +0.000 C 
ATOM      2  O   UNL     1       1.308   5.829  20.786  0.00  0.00    +0.000 OA
ATOM      3  N   UNL     1       3.092   6.665  19.643  0.00  0.00    +0.000 N 
ATOM      4  H   UNL     1       3.505   7.459  19.176  0.00  0.00    +0.000 HD
ENDROOT
BRANCH   1   7
ATOM      5  C   UNL     1       1.602   8.937  18.162  0.00  0.00    +0.000 C 
ATOM      6  N   UNL     1       1.250   9.181  19.565  0.00  0.00    +0.000 N 
ATOM      7  C   UNL     1       1.402   8.240  20.617  0.00  0.00    +0.000 A 
ATOM      8  C   UNL     1       1.014   8.507  21.874  0.00  0.00    +0.000 A 
ATOM      9  C   UNL     1       0.469   9.827  22.220  0.00  0.00    +0.000 A 
ATOM     10  O   UNL     1       0.129  10.061  23.374  0.00  0.00    +0.000 OA
ATOM     11  C   UNL     1       0.358  10.830  21.149  0.00  0.00    +0.000 A 
ATOM     12  C   UNL     1      -0.109  12.120  21.479  0.00  0.00    +0.000 A 
ATOM     13  C   UNL     1      -0.235  13.091  20.490  0.00  0.00    +0.000 A 
ATOM     14  C   UNL     1       0.075  12.764  19.176  0.00  0.00    +0.000 A 
ATOM     15  C   UNL     1       0.536  11.476  18.854  0.00  0.00    +0.000 A 
ATOM     16  C   UNL     1       0.715  10.483  19.837  0.00  0.00    +0.000 A 
ENDBRANCH   1   7
BRANCH   3  17
ATOM     17  C   UNL     1       3.594   5.338  19.304  0.00  0.00    +0.000 C 
ATOM     18  C   UNL     1       3.075   4.822  17.974  0.00  0.00    +0.000 C 
ATOM     19  C   UNL     1       4.009   3.644  17.758  0.00  0.00    +0.000 C 
ATOM     20  N   UNL     1       5.353   4.169  18.072  0.00  0.00    +0.000 NA
ATOM     21  C   UNL     1       5.122   5.195  19.137  0.00  0.00    +0.000 C 
BRANCH  20  22
ATOM     22  C   UNL     1       6.019   4.774  16.889  0.00  0.00    +0.000 C 
BRANCH  22  23
ATOM     23  C   UNL     1       5.512   4.376  15.487  0.00  0.00    +0.000 C 
ATOM     24  F   UNL     1       5.797   5.330  14.567  0.00  0.00    +0.000 F 
ATOM     25  F   UNL     1       6.186   3.266  15.080  0.00  0.00    +0.000 F 
ENDBRANCH  22  23
ENDBRANCH  20  22
ENDBRANCH   3  17
TORSDOF 4
ENDMDL
MODEL 5
REMARK VINA RESULT:      -7.3      3.269      4.361
REMARK  Name = 
REMARK  5 active torsions:
REMARK  status: ('A' for Active; 'I' for Inactive)
REMARK    1  A    between atoms: C_1  and  N_2
REMARK    2  A    between atoms: C_3  and  C_4
REMARK    3  A    between atoms: N_6  and  C_7
REMARK    4  A    between atoms: N_10  and  C_11
REMARK    5  A    between atoms: C_11  and  C_12
REMARK                            x       y       z     vdW  Elec       q    Type
REMARK                         _______ _______ _______ _____ _____    ______ ____
ROOT
ATOM      1  C   UNL     1       2.568   6.865  18.288  0.00  0.00    +0.000 C 
ATOM      2  O   UNL     1       2.016   5.777  18.148  0.00  0.00    +0.000 OA
ATOM      3  N   UNL     1       3.850   7.081  17.797  0.00  0.00    +0.000 N 
ATOM      4  H   UNL     1       4.240   8.012  17.782  0.00  0.00    +0.000 HD
ENDROOT
BRANCH   1   7
ATOM      5  C   UNL     1       1.453   6.696  21.151  0.00  0.00    +0.000 C 
ATOM      6  N   UNL     1       1.395   7.917  20.341  0.00  0.00    +0.000 N 
ATOM      7  C   UNL     1       1.872   8.032  19.008  0.00  0.00    +0.000 A 
ATOM      8  C   UNL     1       1.834   9.193  18.336  0.00  0.00    +0.000 A 
ATOM      9  C   UNL     1       1.231  10.387  18.944  0.00  0.00    +0.000 A 
ATOM     10  O   UNL     1       1.194  11.437  18.314  0.00  0.00    +0.000 OA
ATOM     11  C   UNL     1       0.683  10.266  20.304  0.00  0.00    +0.000 A 
ATOM     12  C   UNL     1       0.049  11.388  20.878  0.00  0.00    +0.000 A 
ATOM     13  C   UNL     1      -0.473  11.313  22.166  0.00  0.00    +0.000 A 
ATOM     14  C   UNL     1      -0.335  10.132  22.884  0.00  0.00    +0.000 A 
ATOM     15  C   UNL     1       0.302   9.019  22.309  0.00  0.00    +0.000 A 
ATOM     16  C   UNL     1       0.804   9.049  20.993  0.00  0.00    +0.000 A 
ENDBRANCH   1   7
BRANCH   3  17
ATOM     17  C   UNL     1       4.538   6.042  17.038  0.00  0.00    +0.000 C 
ATOM     18  C   UNL     1       5.684   6.574  16.196  0.00  0.00    +0.000 C 
ATOM     19  C   UNL     1       6.377   5.273  15.831  0.00  0.00    +0.000 C 
ATOM     20  N   UNL     1       6.450   4.518  17.098  0.00  0.00    +0.000 NA
ATOM     21  C   UNL     1       5.223   4.924  17.854  0.00  0.00    +0.000 C 
BRANCH  20  22
ATOM     22  C   UNL     1       7.677   4.828  17.877  0.00  0.00    +0.000 C 
BRANCH  22  23
ATOM     23  C   UNL     1       7.580   5.889  18.993  0.00  0.00    +0.000 C 
ATOM     24  F   UNL     1       8.085   5.427  20.163  0.00  0.00    +0.000 F 
ATOM     25  F   UNL     1       8.364   6.950  18.655  0.00  0.00    +0.000 F 
ENDBRANCH  22  23
ENDBRANCH  20  22
ENDBRANCH   3  17
TORSDOF 4
ENDMDL
MODEL 6
REMARK VINA RESULT:      -7.2      1.452      2.211
REMARK  Name = 
REMARK  5 active torsions:
REMARK  status: ('A' for Active; 'I' for Inactive)
REMARK    1  A    between atoms: C_1  and  N_2
REMARK    2  A    between atoms: C_3  and  C_4
REMARK    3  A    between atoms: N_6  and  C_7
REMARK    4  A    between atoms: N_10  and  C_11
REMARK    5  A    between atoms: C_11  and  C_12
REMARK                            x       y       z     vdW  Elec       q    Type
REMARK                         _______ _______ _______ _____ _____    ______ ____
ROOT
ATOM      1  C   UNL     1       1.909   8.430  18.509  0.00  0.00    +0.000 C 
ATOM      2  O   UNL     1       2.509   8.713  17.476  0.00  0.00    +0.000 OA
ATOM      3  N   UNL     1       2.088   7.194  19.120  0.00  0.00    +0.000 N 
ATOM      4  H   UNL     1       1.710   7.021  20.040  0.00  0.00    +0.000 HD
ENDROOT
BRANCH   1   7
ATOM      5  C   UNL     1       1.324   8.501  21.530  0.00  0.00    +0.000 C 
ATOM      6  N   UNL     1       0.716   9.433  20.575  0.00  0.00    +0.000 N 
ATOM      7  C   UNL     1       0.937   9.420  19.172  0.00  0.00    +0.000 A 
ATOM      8  C   UNL     1       0.388  10.333  18.356  0.00  0.00    +0.000 A 
ATOM      9  C   UNL     1      -0.524  11.356  18.888  0.00  0.00    +0.000 A 
ATOM     10  O   UNL     1      -1.026  12.177  18.129  0.00  0.00    +0.000 OA
ATOM     11  C   UNL     1      -0.803  11.346  20.332  0.00  0.00    +0.000 A 
ATOM     12  C   UNL     1      -1.721  12.285  20.848  0.00  0.00    +0.000 A 
ATOM     13  C   UNL     1      -2.004  12.311  22.211  0.00  0.00    +0.000 A 
ATOM     14  C   UNL     1      -1.349  11.423  23.054  0.00  0.00    +0.000 A 
ATOM     15  C   UNL     1      -0.432  10.493  22.535  0.00  0.00    +0.000 A 
ATOM     16  C   UNL     1      -0.155  10.412  21.156  0.00  0.00    +0.000 A 
ENDBRANCH   1   7
BRANCH   3  17
ATOM     17  C   UNL     1       3.050   6.236  18.586  0.00  0.00    +0.000 C 
ATOM     18  C   UNL     1       3.853   5.529  19.664  0.00  0.00    +0.000 C 
ATOM     19  C   UNL     1       4.473   4.409  18.848  0.00  0.00    +0.000 C 
ATOM     20  N   UNL     1       3.359   3.873  18.040  0.00  0.00    +0.000 NA
ATOM     21  C   UNL     1       2.477   5.053  17.776  0.00  0.00    +0.000 C 
BRANCH  20  22
ATOM     22  C   UNL     1       2.610   2.799  18.743  0.00  0.00    +0.000 C 
BRANCH  22  23
ATOM     23  C   UNL     1       1.094   2.992  18.957  0.00  0.00    +0.000 C 
ATOM     24  F   UNL     1       0.397   1.888  18.593  0.00  0.00    +0.000 F 
ATOM     25  F   UNL     1       0.859   3.147  20.289  0.00  0.00    +0.000 F 
ENDBRANCH  22  23
ENDBRANCH  20  22
ENDBRANCH   3  17
TORSDOF 4
ENDMDL
MODEL 7
REMARK VINA RESULT:      -7.1      1.219      1.341
REMARK  Name = 
REMARK  5 active torsions:
REMARK  status: ('A' for Active; 'I' for Inactive)
REMARK    1  A    between atoms: C_1  and  N_2
REMARK    2  A    between atoms: C_3  and  C_4
REMARK    3  A    between atoms: N_6  and  C_7
REMARK    4  A    between atoms: N_10  and  C_11
REMARK    5  A    between atoms: C_11  and  C_12
REMARK                            x       y       z     vdW  Elec       q    Type
REMARK                         _______ _______ _______ _____ _____    ______ ____
ROOT
ATOM      1  C   UNL     1       2.064   7.161  19.942  0.00  0.00    +0.000 C 
ATOM      2  O   UNL     1       1.858   6.089  20.505  0.00  0.00    +0.000 OA
ATOM      3  N   UNL     1       2.920   7.239  18.850  0.00  0.00    +0.000 N 
ATOM      4  H   UNL     1       2.972   8.086  18.302  0.00  0.00    +0.000 HD
ENDROOT
BRANCH   1   7
ATOM      5  C   UNL     1       1.063   9.368  18.046  0.00  0.00    +0.000 C 
ATOM      6  N   UNL     1       0.921   9.441  19.503  0.00  0.00    +0.000 N 
ATOM      7  C   UNL     1       1.391   8.460  20.417  0.00  0.00    +0.000 A 
ATOM      8  C   UNL     1       1.186   8.562  21.739  0.00  0.00    +0.000 A 
ATOM      9  C   UNL     1       0.513   9.741  22.301  0.00  0.00    +0.000 A 
ATOM     10  O   UNL     1       0.342   9.825  23.511  0.00  0.00    +0.000 OA
ATOM     11  C   UNL     1       0.071  10.791  21.369  0.00  0.00    +0.000 A 
ATOM     12  C   UNL     1      -0.525  11.955  21.899  0.00  0.00    +0.000 A 
ATOM     13  C   UNL     1      -0.964  12.965  21.047  0.00  0.00    +0.000 A 
ATOM     14  C   UNL     1      -0.834  12.797  19.675  0.00  0.00    +0.000 A 
ATOM     15  C   UNL     1      -0.244  11.632  19.153  0.00  0.00    +0.000 A 
ATOM     16  C   UNL     1       0.248  10.611  19.989  0.00  0.00    +0.000 A 
ENDBRANCH   1   7
BRANCH   3  17
ATOM     17  C   UNL     1       3.533   6.034  18.301  0.00  0.00    +0.000 C 
ATOM     18  C   UNL     1       4.433   5.315  19.291  0.00  0.00    +0.000 C 
ATOM     19  C   UNL     1       4.622   3.991  18.572  0.00  0.00    +0.000 C 
ATOM     20  N   UNL     1       3.266   3.609  18.128  0.00  0.00    +0.000 NA
ATOM     21  C   UNL     1       2.575   4.909  17.854  0.00  0.00    +0.000 C 
BRANCH  20  22
ATOM     22  C   UNL     1       2.530   2.825  19.154  0.00  0.00    +0.000 C 
BRANCH  22  23
ATOM     23  C   UNL     1       1.017   3.083  19.318  0.00  0.00    +0.000 C 
ATOM     24  F   UNL     1       0.281   2.162  18.649  0.00  0.00    +0.000 F 
ATOM     25  F   UNL     1       0.689   2.926  20.630  0.00  0.00    +0.000 F 
ENDBRANCH  22  23
ENDBRANCH  20  22
ENDBRANCH   3  17
TORSDOF 4
ENDMDL
MODEL 8
REMARK VINA RESULT:      -7.1      3.708      5.071
REMARK  Name = 
REMARK  5 active torsions:
REMARK  status: ('A' for Active; 'I' for Inactive)
REMARK    1  A    between atoms: C_1  and  N_2
REMARK    2  A    between atoms: C_3  and  C_4
REMARK    3  A    between atoms: N_6  and  C_7
REMARK    4  A    between atoms: N_10  and  C_11
REMARK    5  A    between atoms: C_11  and  C_12
REMARK                            x       y       z     vdW  Elec       q    Type
REMARK                         _______ _______ _______ _____ _____    ______ ____
ROOT
ATOM      1  C   UNL     1       3.484   5.972  18.355  0.00  0.00    +0.000 C 
ATOM      2  O   UNL     1       3.142   4.832  18.659  0.00  0.00    +0.000 OA
ATOM      3  N   UNL     1       4.663   6.197  17.653  0.00  0.00    +0.000 N 
ATOM      4  H   UNL     1       4.865   7.113  17.278  0.00  0.00    +0.000 HD
ENDROOT
BRANCH   1   7
ATOM      5  C   UNL     1       1.848   6.190  20.952  0.00  0.00    +0.000 C 
ATOM      6  N   UNL     1       1.911   7.262  19.954  0.00  0.00    +0.000 N 
ATOM      7  C   UNL     1       2.631   7.195  18.732  0.00  0.00    +0.000 A 
ATOM      8  C   UNL     1       2.690   8.231  17.881  0.00  0.00    +0.000 A 
ATOM      9  C   UNL     1       1.948   9.468  18.161  0.00  0.00    +0.000 A 
ATOM     10  O   UNL     1       2.003  10.403  17.371  0.00  0.00    +0.000 OA
ATOM     11  C   UNL     1       1.154   9.530  19.398  0.00  0.00    +0.000 A 
ATOM     12  C   UNL     1       0.391  10.690  19.652  0.00  0.00    +0.000 A 
ATOM     13  C   UNL     1      -0.365  10.788  20.817  0.00  0.00    +0.000 A 
ATOM     14  C   UNL     1      -0.334   9.745  21.734  0.00  0.00    +0.000 A 
ATOM     15  C   UNL     1       0.432   8.595  21.477  0.00  0.00    +0.000 A 
ATOM     16  C   UNL     1       1.175   8.446  20.289  0.00  0.00    +0.000 A 
ENDBRANCH   1   7
BRANCH   3  17
ATOM     17  C   UNL     1       5.481   5.078  17.199  0.00  0.00    +0.000 C 
ATOM     18  C   UNL     1       4.746   4.141  16.257  0.00  0.00    +0.000 C 
ATOM     19  C   UNL     1       5.911   3.331  15.718  0.00  0.00    +0.000 C 
ATOM     20  N   UNL     1       6.943   4.334  15.386  0.00  0.00    +0.000 NA
ATOM     21  C   UNL     1       6.748   5.428  16.390  0.00  0.00    +0.000 C 
BRANCH  20  22
ATOM     22  C   UNL     1       6.806   4.857  14.002  0.00  0.00    +0.000 C 
BRANCH  22  23
ATOM     23  C   UNL     1       6.546   3.846  12.866  0.00  0.00    +0.000 C 
ATOM     24  F   UNL     1       5.227   3.772  12.560  0.00  0.00    +0.000 F 
ATOM     25  F   UNL     1       7.156   4.296  11.735  0.00  0.00    +0.000 F 
ENDBRANCH  22  23
ENDBRANCH  20  22
ENDBRANCH   3  17
TORSDOF 4
ENDMDL
MODEL 9
REMARK VINA RESULT:      -7.1      2.246      2.711
REMARK  Name = 
REMARK  5 active torsions:
REMARK  status: ('A' for Active; 'I' for Inactive)
REMARK    1  A    between atoms: C_1  and  N_2
REMARK    2  A    between atoms: C_3  and  C_4
REMARK    3  A    between atoms: N_6  and  C_7
REMARK    4  A    between atoms: N_10  and  C_11
REMARK    5  A    between atoms: C_11  and  C_12
REMARK                            x       y       z     vdW  Elec       q    Type
REMARK                         _______ _______ _______ _____ _____    ______ ____
ROOT
ATOM      1  C   UNL     1       1.999   7.600  19.772  0.00  0.00    +0.000 C 
ATOM      2  O   UNL     1       2.601   7.810  18.723  0.00  0.00    +0.000 OA
ATOM      3  N   UNL     1       1.998   6.336  20.351  0.00  0.00    +0.000 N 
ATOM      4  H   UNL     1       1.629   6.201  21.281  0.00  0.00    +0.000 HD
ENDROOT
BRANCH   1   7
ATOM      5  C   UNL     1       0.425   9.808  18.318  0.00  0.00    +0.000 C 
ATOM      6  N   UNL     1       0.488   9.701  19.779  0.00  0.00    +0.000 N 
ATOM      7  C   UNL     1       1.222   8.715  20.491  0.00  0.00    +0.000 A 
ATOM      8  C   UNL     1       1.200   8.641  21.831  0.00  0.00    +0.000 A 
ATOM      9  C   UNL     1       0.454   9.630  22.621  0.00  0.00    +0.000 A 
ATOM     10  O   UNL     1       0.451   9.555  23.843  0.00  0.00    +0.000 OA
ATOM     11  C   UNL     1      -0.266  10.689  21.896  0.00  0.00    +0.000 A 
ATOM     12  C   UNL     1      -0.939  11.679  22.642  0.00  0.00    +0.000 A 
ATOM     13  C   UNL     1      -1.638  12.691  21.990  0.00  0.00    +0.000 A 
ATOM     14  C   UNL     1      -1.688  12.693  20.602  0.00  0.00    +0.000 A 
ATOM     15  C   UNL     1      -1.019  11.701  19.865  0.00  0.00    +0.000 A 
ATOM     16  C   UNL     1      -0.268  10.688  20.492  0.00  0.00    +0.000 A 
ENDBRANCH   1   7
BRANCH   3  17
ATOM     17  C   UNL     1       2.775   5.251  19.762  0.00  0.00    +0.000 C 
ATOM     18  C   UNL     1       2.252   4.803  18.409  0.00  0.00    +0.000 C 
ATOM     19  C   UNL     1       3.421   3.958  17.933  0.00  0.00    +0.000 C 
ATOM     20  N   UNL     1       4.616   4.775  18.224  0.00  0.00    +0.000 NA
ATOM     21  C   UNL     1       4.260   5.545  19.457  0.00  0.00    +0.000 C 
BRANCH  20  22
ATOM     22  C   UNL     1       4.966   5.693  17.110  0.00  0.00    +0.000 C 
BRANCH  22  23
ATOM     23  C   UNL     1       5.867   5.153  15.979  0.00  0.00    +0.000 C 
ATOM     24  F   UNL     1       6.586   4.079  16.387  0.00  0.00    +0.000 F 
ATOM     25  F   UNL     1       5.074   4.697  14.970  0.00  0.00    +0.000 F 
ENDBRANCH  22  23
ENDBRANCH  20  22
ENDBRANCH   3  17
TORSDOF 4
ENDMDL
