MODEL 1
REMARK VINA RESULT:      -8.1      0.000      0.000
REMARK  Name = 
REMARK  6 active torsions:
REMARK  status: ('A' for Active; 'I' for Inactive)
REMARK    1  A    between atoms: S_2  and  N_4
REMARK    2  A    between atoms: S_2  and  C_20
REMARK    3  A    between atoms: N_4  and  C_5
REMARK    4  A    between atoms: C_10  and  N_11
REMARK    5  A    between atoms: N_11  and  C_12
REMARK    6  A    between atoms: C_14  and  O_15
REMARK                            x       y       z     vdW  Elec       q    Type
REMARK                         _______ _______ _______ _____ _____    ______ ____
ROOT
ATOM      1  C   UNL     1       2.561   4.703  18.719  0.00  0.00    +0.000 A 
ATOM      2  N   UNL     1       2.172   3.444  18.419  0.00  0.00    +0.000 NA
ATOM      3  C   UNL     1       1.273   2.907  19.273  0.00  0.00    +0.000 A 
ATOM      4  C   UNL     1       0.769   3.598  20.358  0.00  0.00    +0.000 A 
ATOM      5  N   UNL     1       1.139   4.865  20.644  0.00  0.00    +0.000 NA
ATOM      6  C   UNL     1       2.052   5.441  19.817  0.00  0.00    +0.000 A 
ENDROOT
BRANCH   1   7
ATOM      7  N   UNL     1       3.581   5.205  17.862  0.00  0.00    +0.000 N 
ATOM      8  H   UNL     1       3.295   5.247  16.885  0.00  0.00    +0.000 HD
BRANCH   7  10
ATOM      9  O   UNL     1       5.166   3.684  19.209  0.00  0.00    +0.000 OA
ATOM     10  S   UNL     1       5.060   4.411  17.964  0.00  0.00    +0.000 S 
ATOM     11  O   UNL     1       5.167   3.716  16.696  0.00  0.00    +0.000 OA
BRANCH  10  12
ATOM     12  C   UNL     1       6.282   5.709  17.963  0.00  0.00    +0.000 A 
ATOM     13  C   UNL     1       6.128   6.813  17.120  0.00  0.00    +0.000 A 
ATOM     14  C   UNL     1       7.037   7.871  17.188  0.00  0.00    +0.000 A 
ATOM     15  C   UNL     1       8.095   7.834  18.099  0.00  0.00    +0.000 A 
ATOM     16  C   UNL     1       8.254   6.726  18.934  0.00  0.00    +0.000 A 
ATOM     17  C   UNL     1       7.352   5.662  18.865  0.00  0.00    +0.000 A 
ENDBRANCH  10  12
ENDBRANCH   7  10
ENDBRANCH   1   7
BRANCH   6  18
ATOM     18  N   UNL     1       2.559   6.729  20.123  0.00  0.00    +0.000 N 
ATOM     19  H   UNL     1       3.390   6.934  19.567  0.00  0.00    +0.000 HD
BRANCH  18  20
ATOM     20  C   UNL     1       1.816   7.916  20.387  0.00  0.00    +0.000 A 
ATOM     21  C   UNL     1       1.488   8.309  21.697  0.00  0.00    +0.000 A 
ATOM     22  C   UNL     1       0.809   9.503  21.942  0.00  0.00    +0.000 A 
ATOM     23  C   UNL     1       0.506  10.377  20.912  0.00  0.00    +0.000 A 
ATOM     24  C   UNL     1       0.858  10.036  19.606  0.00  0.00    +0.000 A 
ATOM     25  C   UNL     1       1.502   8.819  19.349  0.00  0.00    +0.000 A 
ATOM     26 CL   UNL     1       1.902   8.440  17.708  0.00  0.00    +0.000 Cl
BRANCH  22  27
ATOM     27  O   UNL     1       0.419   9.840  23.203  0.00  0.00    +0.000 OA
ATOM     28  H   UNL     1       1.206   9.834  23.778  0.00  0.00    +0.000 HD
ENDBRANCH  22  27
ENDBRANCH  18  20
ENDBRANCH   6  18
TORSDOF 6
ENDMDL
MODEL 2
REMARK VINA RESULT:      -8.0      0.469      1.075
REMARK  Name = 
REMARK  6 active torsions:
REMARK  status: ('A' for Active; 'I' for Inactive)
REMARK    1  A    between atoms: S_2  and  N_4
REMARK    2  A    between atoms: S_2  and  C_20
REMARK    3  A    between atoms: N_4  and  C_5
REMARK    4  A    between atoms: C_10  and  N_11
REMARK    5  A    between atoms: N_11  and  C_12
REMARK    6  A    between atoms: C_14  and  O_15
REMARK                            x       y       z     vdW  Elec       q    Type
REMARK                         _______ _______ _______ _____ _____    ______ ____
ROOT
ATOM      1  C   UNL     1       2.614   4.402  18.794  0.00  0.00    +0.000 A 
ATOM      2  N   UNL     1       2.276   3.113  18.567  0.00  0.00    +0.000 NA
ATOM      3  C   UNL     1       1.451   2.570  19.489  0.00  0.00    +0.000 A 
ATOM      4  C   UNL     1       0.968   3.282  20.569  0.00  0.00    +0.000 A 
ATOM      5  N   UNL     1       1.286   4.577  20.783  0.00  0.00    +0.000 NA
ATOM      6  C   UNL     1       2.124   5.161  19.886  0.00  0.00    +0.000 A 
ENDROOT
BRANCH   1   7
ATOM      7  N   UNL     1       3.562   4.916  17.864  0.00  0.00    +0.000 N 
ATOM      8  H   UNL     1       3.247   4.848  16.897  0.00  0.00    +0.000 HD
BRANCH   7  10
ATOM      9  O   UNL     1       5.257   3.516  19.208  0.00  0.00    +0.000 OA
ATOM     10  S   UNL     1       5.108   4.265  17.980  0.00  0.00    +0.000 S 
ATOM     11  O   UNL     1       5.311   3.622  16.697  0.00  0.00    +0.000 OA
BRANCH  10  12
ATOM     12  C   UNL     1       6.199   5.674  18.046  0.00  0.00    +0.000 A 
ATOM     13  C   UNL     1       7.293   5.671  18.916  0.00  0.00    +0.000 A 
ATOM     14  C   UNL     1       8.198   6.734  18.898  0.00  0.00    +0.000 A 
ATOM     15  C   UNL     1       8.018   7.798  18.011  0.00  0.00    +0.000 A 
ATOM     16  C   UNL     1       6.920   7.806  17.149  0.00  0.00    +0.000 A 
ATOM     17  C   UNL     1       6.007   6.748  17.167  0.00  0.00    +0.000 A 
ENDBRANCH  10  12
ENDBRANCH   7  10
ENDBRANCH   1   7
BRANCH   6  18
ATOM     18  N   UNL     1       2.580   6.485  20.111  0.00  0.00    +0.000 N 
ATOM     19  H   UNL     1       3.478   6.643  19.654  0.00  0.00    +0.000 HD
BRANCH  18  20
ATOM     20  C   UNL     1       1.802   7.679  20.138  0.00  0.00    +0.000 A 
ATOM     21  C   UNL     1       1.089   8.073  21.284  0.00  0.00    +0.000 A 
ATOM     22  C   UNL     1       0.379   9.274  21.311  0.00  0.00    +0.000 A 
ATOM     23  C   UNL     1       0.417  10.152  20.242  0.00  0.00    +0.000 A 
ATOM     24  C   UNL     1       1.151   9.809  19.108  0.00  0.00    +0.000 A 
ATOM     25  C   UNL     1       1.833   8.586  19.057  0.00  0.00    +0.000 A 
ATOM     26 CL   UNL     1       2.716   8.205  17.619  0.00  0.00    +0.000 Cl
BRANCH  22  27
ATOM     27  O   UNL     1      -0.379   9.614  22.392  0.00  0.00    +0.000 OA
ATOM     28  H   UNL     1      -0.037  10.452  22.753  0.00  0.00    +0.000 HD
ENDBRANCH  22  27
ENDBRANCH  18  20
ENDBRANCH   6  18
TORSDOF 6
ENDMDL
MODEL 3
REMARK VINA RESULT:      -7.9      2.568      6.073
REMARK  Name = 
REMARK  6 active torsions:
REMARK  status: ('A' for Active; 'I' for Inactive)
REMARK    1  A    between atoms: S_2  and  N_4
REMARK    2  A    between atoms: S_2  and  C_20
REMARK    3  A    between atoms: N_4  and  C_5
REMARK    4  A    between atoms: C_10  and  N_11
REMARK    5  A    between atoms: N_11  and  C_12
REMARK    6  A    between atoms: C_14  and  O_15
REMARK                            x       y       z     vdW  Elec       q    Type
REMARK                         _______ _______ _______ _____ _____    ______ ____
ROOT
ATOM      1  C   UNL     1       3.031   4.586  19.815  0.00  0.00    +0.000 A 
ATOM      2  N   UNL     1       1.709   4.478  20.077  0.00  0.00    +0.000 NA
ATOM      3  C   UNL     1       1.226   3.216  20.056  0.00  0.00    +0.000 A 
ATOM      4  C   UNL     1       2.024   2.116  19.811  0.00  0.00    +0.000 A 
ATOM      5  N   UNL     1       3.350   2.222  19.574  0.00  0.00    +0.000 NA
ATOM      6  C   UNL     1       3.877   3.475  19.574  0.00  0.00    +0.000 A 
ENDROOT
BRANCH   1   7
ATOM      7  N   UNL     1       3.491   5.931  19.745  0.00  0.00    +0.000 N 
ATOM      8  H   UNL     1       3.242   6.481  20.566  0.00  0.00    +0.000 HD
BRANCH   7  10
ATOM      9  O   UNL     1       4.184   7.345  17.706  0.00  0.00    +0.000 OA
ATOM     10  S   UNL     1       3.031   6.776  18.365  0.00  0.00    +0.000 S 
ATOM     11  O   UNL     1       2.165   5.848  17.663  0.00  0.00    +0.000 OA
BRANCH  10  12
ATOM     12  C   UNL     1       2.007   8.110  18.960  0.00  0.00    +0.000 A 
ATOM     13  C   UNL     1       1.540   9.082  18.070  0.00  0.00    +0.000 A 
ATOM     14  C   UNL     1       0.663  10.071  18.520  0.00  0.00    +0.000 A 
ATOM     15  C   UNL     1       0.246  10.090  19.853  0.00  0.00    +0.000 A 
ATOM     16  C   UNL     1       0.720   9.125  20.743  0.00  0.00    +0.000 A 
ATOM     17  C   UNL     1       1.603   8.137  20.301  0.00  0.00    +0.000 A 
ENDBRANCH  10  12
ENDBRANCH   7  10
ENDBRANCH   1   7
BRANCH   6  18
ATOM     18  N   UNL     1       5.239   3.661  19.228  0.00  0.00    +0.000 N 
ATOM     19  H   UNL     1       5.804   2.870  19.537  0.00  0.00    +0.000 HD
BRANCH  18  20
ATOM     20  C   UNL     1       5.762   4.225  18.029  0.00  0.00    +0.000 A 
ATOM     21  C   UNL     1       5.195   3.951  16.772  0.00  0.00    +0.000 A 
ATOM     22  C   UNL     1       5.684   4.556  15.614  0.00  0.00    +0.000 A 
ATOM     23  C   UNL     1       6.691   5.504  15.673  0.00  0.00    +0.000 A 
ATOM     24  C   UNL     1       7.243   5.831  16.910  0.00  0.00    +0.000 A 
ATOM     25  C   UNL     1       6.785   5.196  18.073  0.00  0.00    +0.000 A 
ATOM     26 CL   UNL     1       7.518   5.629  19.579  0.00  0.00    +0.000 Cl
BRANCH  22  27
ATOM     27  O   UNL     1       5.188   4.225  14.388  0.00  0.00    +0.000 OA
ATOM     28  H   UNL     1       5.925   3.907  13.836  0.00  0.00    +0.000 HD
ENDBRANCH  22  27
ENDBRANCH  18  20
ENDBRANCH   6  18
TORSDOF 6
ENDMDL
MODEL 4
REMARK VINA RESULT:      -7.9      3.695      5.975
REMARK  Name = 
REMARK  6 active torsions:
REMARK  status: ('A' for Active; 'I' for Inactive)
REMARK    1  A    between atoms: S_2  and  N_4
REMARK    2  A    between atoms: S_2  and  C_20
REMARK    3  A    between atoms: N_4  and  C_5
REMARK    4  A    between atoms: C_10  and  N_11
REMARK    5  A    between atoms: N_11  and  C_12
REMARK    6  A    between atoms: C_14  and  O_15
REMARK                            x       y       z     vdW  Elec       q    Type
REMARK                         _______ _______ _______ _____ _____    ______ ____
ROOT
ATOM      1  C   UNL     1       6.585   4.480  17.381  0.00  0.00    +0.000 A 
ATOM      2  N   UNL     1       7.905   4.448  17.671  0.00  0.00    +0.000 NA
ATOM      3  C   UNL     1       8.244   5.028  18.844  0.00  0.00    +0.000 A 
ATOM      4  C   UNL     1       7.313   5.588  19.696  0.00  0.00    +0.000 A 
ATOM      5  N   UNL     1       5.991   5.598  19.417  0.00  0.00    +0.000 NA
ATOM      6  C   UNL     1       5.606   5.036  18.241  0.00  0.00    +0.000 A 
ENDROOT
BRANCH   1   7
ATOM      7  N   UNL     1       6.271   3.953  16.096  0.00  0.00    +0.000 N 
ATOM      8  H   UNL     1       6.794   3.107  15.873  0.00  0.00    +0.000 HD
BRANCH   7  10
ATOM      9  O   UNL     1       5.414   6.072  14.907  0.00  0.00    +0.000 OA
ATOM     10  S   UNL     1       6.419   5.037  14.819  0.00  0.00    +0.000 S 
ATOM     11  O   UNL     1       7.828   5.380  14.818  0.00  0.00    +0.000 OA
BRANCH  10  12
ATOM     12  C   UNL     1       6.107   4.071  13.354  0.00  0.00    +0.000 A 
ATOM     13  C   UNL     1       7.176   3.539  12.627  0.00  0.00    +0.000 A 
ATOM     14  C   UNL     1       6.927   2.706  11.534  0.00  0.00    +0.000 A 
ATOM     15  C   UNL     1       5.615   2.397  11.169  0.00  0.00    +0.000 A 
ATOM     16  C   UNL     1       4.547   2.936  11.889  0.00  0.00    +0.000 A 
ATOM     17  C   UNL     1       4.790   3.775  12.979  0.00  0.00    +0.000 A 
ENDBRANCH  10  12
ENDBRANCH   7  10
ENDBRANCH   1   7
BRANCH   6  18
ATOM     18  N   UNL     1       4.247   5.107  17.842  0.00  0.00    +0.000 N 
ATOM     19  H   UNL     1       4.162   5.039  16.827  0.00  0.00    +0.000 HD
BRANCH  18  20
ATOM     20  C   UNL     1       3.119   4.525  18.490  0.00  0.00    +0.000 A 
ATOM     21  C   UNL     1       2.824   3.155  18.375  0.00  0.00    +0.000 A 
ATOM     22  C   UNL     1       1.749   2.590  19.061  0.00  0.00    +0.000 A 
ATOM     23  C   UNL     1       0.985   3.343  19.937  0.00  0.00    +0.000 A 
ATOM     24  C   UNL     1       1.281   4.694  20.107  0.00  0.00    +0.000 A 
ATOM     25  C   UNL     1       2.333   5.277  19.388  0.00  0.00    +0.000 A 
ATOM     26 CL   UNL     1       2.646   6.963  19.626  0.00  0.00    +0.000 Cl
BRANCH  22  27
ATOM     27  O   UNL     1       1.415   1.281  18.883  0.00  0.00    +0.000 OA
ATOM     28  H   UNL     1       0.919   1.203  18.048  0.00  0.00    +0.000 HD
ENDBRANCH  22  27
ENDBRANCH  18  20
ENDBRANCH   6  18
TORSDOF 6
ENDMDL
MODEL 5
REMARK VINA RESULT:      -7.8      2.218      5.549
REMARK  Name = 
REMARK  6 active torsions:
REMARK  status: ('A' for Active; 'I' for Inactive)
REMARK    1  A    between atoms: S_2  and  N_4
REMARK    2  A    between atoms: S_2  and  C_20
REMARK    3  A    between atoms: N_4  and  C_5
REMARK    4  A    between atoms: C_10  and  N_11
REMARK    5  A    between atoms: N_11  and  C_12
REMARK    6  A    between atoms: C_14  and  O_15
REMARK                            x       y       z     vdW  Elec       q    Type
REMARK                         _______ _______ _______ _____ _____    ______ ____
ROOT
ATOM      1  C   UNL     1       2.476   3.955  18.443  0.00  0.00    +0.000 A 
ATOM      2  N   UNL     1       1.648   3.101  19.085  0.00  0.00    +0.000 NA
ATOM      3  C   UNL     1       2.021   1.803  19.041  0.00  0.00    +0.000 A 
ATOM      4  C   UNL     1       3.174   1.380  18.410  0.00  0.00    +0.000 A 
ATOM      5  N   UNL     1       4.015   2.237  17.790  0.00  0.00    +0.000 NA
ATOM      6  C   UNL     1       3.672   3.552  17.799  0.00  0.00    +0.000 A 
ENDROOT
BRANCH   1   7
ATOM      7  N   UNL     1       2.006   5.298  18.421  0.00  0.00    +0.000 N 
ATOM      8  H   UNL     1       2.354   5.829  17.624  0.00  0.00    +0.000 HD
BRANCH   7  10
ATOM      9  O   UNL     1       1.367   5.779  20.870  0.00  0.00    +0.000 OA
ATOM     10  S   UNL     1       2.282   6.181  19.825  0.00  0.00    +0.000 S 
ATOM     11  O   UNL     1       3.715   6.077  20.023  0.00  0.00    +0.000 OA
BRANCH  10  12
ATOM     12  C   UNL     1       1.928   7.872  19.386  0.00  0.00    +0.000 A 
ATOM     13  C   UNL     1       2.289   8.357  18.126  0.00  0.00    +0.000 A 
ATOM     14  C   UNL     1       1.928   9.652  17.750  0.00  0.00    +0.000 A 
ATOM     15  C   UNL     1       1.202  10.463  18.626  0.00  0.00    +0.000 A 
ATOM     16  C   UNL     1       0.849   9.982  19.888  0.00  0.00    +0.000 A 
ATOM     17  C   UNL     1       1.214   8.689  20.272  0.00  0.00    +0.000 A 
ENDBRANCH  10  12
ENDBRANCH   7  10
ENDBRANCH   1   7
BRANCH   6  18
ATOM     18  N   UNL     1       4.457   4.486  17.077  0.00  0.00    +0.000 N 
ATOM     19  H   UNL     1       3.881   5.015  16.422  0.00  0.00    +0.000 HD
BRANCH  18  20
ATOM     20  C   UNL     1       5.534   5.280  17.567  0.00  0.00    +0.000 A 
ATOM     21  C   UNL     1       6.260   4.916  18.715  0.00  0.00    +0.000 A 
ATOM     22  C   UNL     1       7.348   5.675  19.149  0.00  0.00    +0.000 A 
ATOM     23  C   UNL     1       7.796   6.764  18.422  0.00  0.00    +0.000 A 
ATOM     24  C   UNL     1       7.123   7.124  17.255  0.00  0.00    +0.000 A 
ATOM     25  C   UNL     1       6.005   6.391  16.836  0.00  0.00    +0.000 A 
ATOM     26 CL   UNL     1       5.199   6.891  15.388  0.00  0.00    +0.000 Cl
BRANCH  22  27
ATOM     27  O   UNL     1       7.997   5.368  20.307  0.00  0.00    +0.000 OA
ATOM     28  H   UNL     1       8.930   5.631  20.213  0.00  0.00    +0.000 HD
ENDBRANCH  22  27
ENDBRANCH  18  20
ENDBRANCH   6  18
TORSDOF 6
ENDMDL
MODEL 6
REMARK VINA RESULT:      -7.7      3.868      5.952
REMARK  Name = 
REMARK  6 active torsions:
REMARK  status: ('A' for Active; 'I' for Inactive)
REMARK    1  A    between atoms: S_2  and  N_4
REMARK    2  A    between atoms: S_2  and  C_20
REMARK    3  A    between atoms: N_4  and  C_5
REMARK    4  A    between atoms: C_10  and  N_11
REMARK    5  A    between atoms: N_11  and  C_12
REMARK    6  A    between atoms: C_14  and  O_15
REMARK                            x       y       z     vdW  Elec       q    Type
REMARK                         _______ _______ _______ _____ _____    ______ ____
ROOT
ATOM      1  C   UNL     1       6.884   4.377  16.523  0.00  0.00    +0.000 A 
ATOM      2  N   UNL     1       7.573   5.164  15.666  0.00  0.00    +0.000 NA
ATOM      3  C   UNL     1       7.124   5.148  14.392  0.00  0.00    +0.000 A 
ATOM      4  C   UNL     1       6.030   4.406  13.996  0.00  0.00    +0.000 A 
ATOM      5  N   UNL     1       5.326   3.638  14.857  0.00  0.00    +0.000 NA
ATOM      6  C   UNL     1       5.750   3.614  16.148  0.00  0.00    +0.000 A 
ENDROOT
BRANCH   1   7
ATOM      7  N   UNL     1       7.441   4.335  17.832  0.00  0.00    +0.000 N 
ATOM      8  H   UNL     1       7.131   3.527  18.371  0.00  0.00    +0.000 HD
BRANCH   7  10
ATOM      9  O   UNL     1       7.476   5.458  20.151  0.00  0.00    +0.000 OA
ATOM     10  S   UNL     1       7.214   5.723  18.754  0.00  0.00    +0.000 S 
ATOM     11  O   UNL     1       7.969   6.737  18.044  0.00  0.00    +0.000 OA
BRANCH  10  12
ATOM     12  C   UNL     1       5.486   6.123  18.572  0.00  0.00    +0.000 A 
ATOM     13  C   UNL     1       4.570   5.722  19.548  0.00  0.00    +0.000 A 
ATOM     14  C   UNL     1       3.234   6.116  19.451  0.00  0.00    +0.000 A 
ATOM     15  C   UNL     1       2.810   6.914  18.385  0.00  0.00    +0.000 A 
ATOM     16  C   UNL     1       3.724   7.306  17.405  0.00  0.00    +0.000 A 
ATOM     17  C   UNL     1       5.060   6.909  17.493  0.00  0.00    +0.000 A 
ENDBRANCH  10  12
ENDBRANCH   7  10
ENDBRANCH   1   7
BRANCH   6  18
ATOM     18  N   UNL     1       5.120   2.748  17.076  0.00  0.00    +0.000 N 
ATOM     19  H   UNL     1       5.798   2.366  17.736  0.00  0.00    +0.000 HD
BRANCH  18  20
ATOM     20  C   UNL     1       3.846   2.914  17.693  0.00  0.00    +0.000 A 
ATOM     21  C   UNL     1       2.784   3.561  17.038  0.00  0.00    +0.000 A 
ATOM     22  C   UNL     1       1.526   3.665  17.633  0.00  0.00    +0.000 A 
ATOM     23  C   UNL     1       1.262   3.067  18.853  0.00  0.00    +0.000 A 
ATOM     24  C   UNL     1       2.283   2.380  19.508  0.00  0.00    +0.000 A 
ATOM     25  C   UNL     1       3.559   2.307  18.935  0.00  0.00    +0.000 A 
ATOM     26 CL   UNL     1       4.793   1.455  19.799  0.00  0.00    +0.000 Cl
BRANCH  22  27
ATOM     27  O   UNL     1       0.523   4.365  17.032  0.00  0.00    +0.000 OA
ATOM     28  H   UNL     1       0.346   3.960  16.164  0.00  0.00    +0.000 HD
ENDBRANCH  22  27
ENDBRANCH  18  20
ENDBRANCH   6  18
TORSDOF 6
ENDMDL
MODEL 7
REMARK VINA RESULT:      -7.7      2.498      5.750
REMARK  Name = 
REMARK  6 active torsions:
REMARK  status: ('A' for Active; 'I' for Inactive)
REMARK    1  A    between atoms: S_2  and  N_4
REMARK    2  A    between atoms: S_2  and  C_20
REMARK    3  A    between atoms: N_4  and  C_5
REMARK    4  A    between atoms: C_10  and  N_11
REMARK    5  A    between atoms: N_11  and  C_12
REMARK    6  A    between atoms: C_14  and  O_15
REMARK                            x       y       z     vdW  Elec       q    Type
REMARK                         _______ _______ _______ _____ _____    ______ ____
ROOT
ATOM      1  C   UNL     1       2.285   6.585  20.173  0.00  0.00    +0.000 A 
ATOM      2  N   UNL     1       1.473   7.444  20.829  0.00  0.00    +0.000 NA
ATOM      3  C   UNL     1       1.123   8.544  20.127  0.00  0.00    +0.000 A 
ATOM      4  C   UNL     1       1.541   8.765  18.830  0.00  0.00    +0.000 A 
ATOM      5  N   UNL     1       2.332   7.895  18.166  0.00  0.00    +0.000 NA
ATOM      6  C   UNL     1       2.719   6.778  18.839  0.00  0.00    +0.000 A 
ENDROOT
BRANCH   1   7
ATOM      7  N   UNL     1       2.718   5.488  20.971  0.00  0.00    +0.000 N 
ATOM      8  H   UNL     1       3.678   5.208  20.776  0.00  0.00    +0.000 HD
BRANCH   7  10
ATOM      9  O   UNL     1       1.758   3.425  22.181  0.00  0.00    +0.000 OA
ATOM     10  S   UNL     1       1.732   4.126  20.917  0.00  0.00    +0.000 S 
ATOM     11  O   UNL     1       0.482   4.625  20.379  0.00  0.00    +0.000 OA
BRANCH  10  12
ATOM     12  C   UNL     1       2.463   3.076  19.675  0.00  0.00    +0.000 A 
ATOM     13  C   UNL     1       1.864   2.962  18.417  0.00  0.00    +0.000 A 
ATOM     14  C   UNL     1       2.487   2.213  17.416  0.00  0.00    +0.000 A 
ATOM     15  C   UNL     1       3.709   1.583  17.665  0.00  0.00    +0.000 A 
ATOM     16  C   UNL     1       4.302   1.690  18.925  0.00  0.00    +0.000 A 
ATOM     17  C   UNL     1       3.679   2.431  19.932  0.00  0.00    +0.000 A 
ENDBRANCH  10  12
ENDBRANCH   7  10
ENDBRANCH   1   7
BRANCH   6  18
ATOM     18  N   UNL     1       3.634   5.879  18.235  0.00  0.00    +0.000 N 
ATOM     19  H   UNL     1       3.290   5.566  17.327  0.00  0.00    +0.000 HD
BRANCH  18  20
ATOM     20  C   UNL     1       5.057   5.948  18.247  0.00  0.00    +0.000 A 
ATOM     21  C   UNL     1       5.808   5.559  19.370  0.00  0.00    +0.000 A 
ATOM     22  C   UNL     1       7.203   5.579  19.346  0.00  0.00    +0.000 A 
ATOM     23  C   UNL     1       7.893   5.908  18.191  0.00  0.00    +0.000 A 
ATOM     24  C   UNL     1       7.175   6.255  17.048  0.00  0.00    +0.000 A 
ATOM     25  C   UNL     1       5.775   6.277  17.078  0.00  0.00    +0.000 A 
ATOM     26 CL   UNL     1       4.936   6.731  15.634  0.00  0.00    +0.000 Cl
BRANCH  22  27
ATOM     27  O   UNL     1       7.927   5.282  20.461  0.00  0.00    +0.000 OA
ATOM     28  H   UNL     1       7.769   4.347  20.688  0.00  0.00    +0.000 HD
ENDBRANCH  22  27
ENDBRANCH  18  20
ENDBRANCH   6  18
TORSDOF 6
ENDMDL
MODEL 8
REMARK VINA RESULT:      -7.7      1.761      2.181
REMARK  Name = 
REMARK  6 active torsions:
REMARK  status: ('A' for Active; 'I' for Inactive)
REMARK    1  A    between atoms: S_2  and  N_4
REMARK    2  A    between atoms: S_2  and  C_20
REMARK    3  A    between atoms: N_4  and  C_5
REMARK    4  A    between atoms: C_10  and  N_11
REMARK    5  A    between atoms: N_11  and  C_12
REMARK    6  A    between atoms: C_14  and  O_15
REMARK                            x       y       z     vdW  Elec       q    Type
REMARK                         _______ _______ _______ _____ _____    ______ ____
ROOT
ATOM      1  C   UNL     1       2.676   4.180  19.043  0.00  0.00    +0.000 A 
ATOM      2  N   UNL     1       2.381   2.862  18.987  0.00  0.00    +0.000 NA
ATOM      3  C   UNL     1       1.761   2.370  20.083  0.00  0.00    +0.000 A 
ATOM      4  C   UNL     1       1.430   3.157  21.168  0.00  0.00    +0.000 A 
ATOM      5  N   UNL     1       1.703   4.479  21.213  0.00  0.00    +0.000 NA
ATOM      6  C   UNL     1       2.337   5.014  20.136  0.00  0.00    +0.000 A 
ENDROOT
BRANCH   1   7
ATOM      7  N   UNL     1       3.417   4.646  17.920  0.00  0.00    +0.000 N 
ATOM      8  H   UNL     1       3.238   4.108  17.073  0.00  0.00    +0.000 HD
BRANCH   7  10
ATOM      9  O   UNL     1       5.432   6.054  18.692  0.00  0.00    +0.000 OA
ATOM     10  S   UNL     1       5.078   4.760  18.152  0.00  0.00    +0.000 S 
ATOM     11  O   UNL     1       5.411   3.546  18.873  0.00  0.00    +0.000 OA
BRANCH  10  12
ATOM     12  C   UNL     1       5.784   4.618  16.521  0.00  0.00    +0.000 A 
ATOM     13  C   UNL     1       5.011   4.124  15.466  0.00  0.00    +0.000 A 
ATOM     14  C   UNL     1       5.535   4.102  14.172  0.00  0.00    +0.000 A 
ATOM     15  C   UNL     1       6.826   4.576  13.926  0.00  0.00    +0.000 A 
ATOM     16  C   UNL     1       7.601   5.060  14.981  0.00  0.00    +0.000 A 
ATOM     17  C   UNL     1       7.084   5.079  16.279  0.00  0.00    +0.000 A 
ENDBRANCH  10  12
ENDBRANCH   7  10
ENDBRANCH   1   7
BRANCH   6  18
ATOM     18  N   UNL     1       2.744   6.372  20.167  0.00  0.00    +0.000 N 
ATOM     19  H   UNL     1       3.600   6.507  19.627  0.00  0.00    +0.000 HD
BRANCH  18  20
ATOM     20  C   UNL     1       1.916   7.529  20.108  0.00  0.00    +0.000 A 
ATOM     21  C   UNL     1       1.152   7.951  21.210  0.00  0.00    +0.000 A 
ATOM     22  C   UNL     1       0.390   9.118  21.154  0.00  0.00    +0.000 A 
ATOM     23  C   UNL     1       0.422   9.940  20.040  0.00  0.00    +0.000 A 
ATOM     24  C   UNL     1       1.205   9.572  18.948  0.00  0.00    +0.000 A 
ATOM     25  C   UNL     1       1.940   8.379  18.981  0.00  0.00    +0.000 A 
ATOM     26 CL   UNL     1       2.883   7.964  17.591  0.00  0.00    +0.000 Cl
BRANCH  22  27
ATOM     27  O   UNL     1      -0.414   9.480  22.193  0.00  0.00    +0.000 OA
ATOM     28  H   UNL     1      -0.929   8.699  22.467  0.00  0.00    +0.000 HD
ENDBRANCH  22  27
ENDBRANCH  18  20
ENDBRANCH   6  18
TORSDOF 6
ENDMDL
MODEL 9
REMARK VINA RESULT:      -7.7      3.790      5.920
REMARK  Name = 
REMARK  6 active torsions:
REMARK  status: ('A' for Active; 'I' for Inactive)
REMARK    1  A    between atoms: S_2  and  N_4
REMARK    2  A    between atoms: S_2  and  C_20
REMARK    3  A    between atoms: N_4  and  C_5
REMARK    4  A    between atoms: C_10  and  N_11
REMARK    5  A    between atoms: N_11  and  C_12
REMARK    6  A    between atoms: C_14  and  O_15
REMARK                            x       y       z     vdW  Elec       q    Type
REMARK                         _______ _______ _______ _____ _____    ______ ____
ROOT
ATOM      1  C   UNL     1       6.698   4.518  17.342  0.00  0.00    +0.000 A 
ATOM      2  N   UNL     1       7.771   5.339  17.334  0.00  0.00    +0.000 NA
ATOM      3  C   UNL     1       8.023   5.959  18.508  0.00  0.00    +0.000 A 
ATOM      4  C   UNL     1       7.259   5.752  19.639  0.00  0.00    +0.000 A 
ATOM      5  N   UNL     1       6.201   4.913  19.654  0.00  0.00    +0.000 NA
ATOM      6  C   UNL     1       5.904   4.277  18.490  0.00  0.00    +0.000 A 
ENDROOT
BRANCH   1   7
ATOM      7  N   UNL     1       6.398   3.959  16.068  0.00  0.00    +0.000 N 
ATOM      8  H   UNL     1       6.980   3.154  15.839  0.00  0.00    +0.000 HD
BRANCH   7  10
ATOM      9  O   UNL     1       5.422   6.061  14.941  0.00  0.00    +0.000 OA
ATOM     10  S   UNL     1       6.435   5.041  14.781  0.00  0.00    +0.000 S 
ATOM     11  O   UNL     1       7.834   5.405  14.675  0.00  0.00    +0.000 OA
BRANCH  10  12
ATOM     12  C   UNL     1       6.030   4.066  13.345  0.00  0.00    +0.000 A 
ATOM     13  C   UNL     1       7.030   3.345  12.685  0.00  0.00    +0.000 A 
ATOM     14  C   UNL     1       6.695   2.509  11.618  0.00  0.00    +0.000 A 
ATOM     15  C   UNL     1       5.364   2.385  11.211  0.00  0.00    +0.000 A 
ATOM     16  C   UNL     1       4.367   3.112  11.863  0.00  0.00    +0.000 A 
ATOM     17  C   UNL     1       4.697   3.955  12.927  0.00  0.00    +0.000 A 
ENDBRANCH  10  12
ENDBRANCH   7  10
ENDBRANCH   1   7
BRANCH   6  18
ATOM     18  N   UNL     1       4.744   3.465  18.412  0.00  0.00    +0.000 N 
ATOM     19  H   UNL     1       4.994   2.487  18.261  0.00  0.00    +0.000 HD
BRANCH  18  20
ATOM     20  C   UNL     1       3.553   3.573  19.187  0.00  0.00    +0.000 A 
ATOM     21  C   UNL     1       3.311   2.740  20.294  0.00  0.00    +0.000 A 
ATOM     22  C   UNL     1       2.166   2.897  21.077  0.00  0.00    +0.000 A 
ATOM     23  C   UNL     1       1.272   3.926  20.837  0.00  0.00    +0.000 A 
ATOM     24  C   UNL     1       1.508   4.796  19.773  0.00  0.00    +0.000 A 
ATOM     25  C   UNL     1       2.633   4.618  18.958  0.00  0.00    +0.000 A 
ATOM     26 CL   UNL     1       2.868   5.718  17.643  0.00  0.00    +0.000 Cl
BRANCH  22  27
ATOM     27  O   UNL     1       1.893   2.036  22.097  0.00  0.00    +0.000 OA
ATOM     28  H   UNL     1       1.370   1.295  21.740  0.00  0.00    +0.000 HD
ENDBRANCH  22  27
ENDBRANCH  18  20
ENDBRANCH   6  18
TORSDOF 6
ENDMDL
