MODEL 1
REMARK VINA RESULT:      -7.4      0.000      0.000
REMARK  Name = 
REMARK  8 active torsions:
REMARK  status: ('A' for Active; 'I' for Inactive)
REMARK    1  A    between atoms: C_1  and  C_2
REMARK    2  A    between atoms: C_5  and  S_6
REMARK    3  A    between atoms: S_6  and  N_9
REMARK    4  A    between atoms: C_16  and  N_17
REMARK    5  A    between atoms: C_18  and  C_20
REMARK    6  A    between atoms: C_20  and  S_21
REMARK    7  A    between atoms: S_21  and  C_22
REMARK    8  A    between atoms: N_26  and  C_27
REMARK                            x       y       z     vdW  Elec       q    Type
REMARK                         _______ _______ _______ _____ _____    ______ ____
ROOT
ATOM      1  C   UNL     1       0.793  10.764  18.743  0.00  0.00    +0.000 C 
ATOM      2  C   UNL     1       1.394   9.390  18.893  0.00  0.00    +0.000 A 
ATOM      3  C   UNL     1       1.838   8.747  17.718  0.00  0.00    +0.000 A 
ATOM      4  C   UNL     1       2.386   7.470  17.758  0.00  0.00    +0.000 A 
ATOM      5  C   UNL     1       2.490   6.808  18.979  0.00  0.00    +0.000 A 
ATOM      6  C   UNL     1       2.027   7.416  20.150  0.00  0.00    +0.000 A 
ATOM      7  C   UNL     1       1.510   8.721  20.135  0.00  0.00    +0.000 A 
ENDROOT
BRANCH   7   8
ATOM      8  N   UNL     1       1.097   9.372  21.333  0.00  0.00    +0.000 N 
ATOM      9  C   UNL     1      -0.056   9.084  22.056  0.00  0.00    +0.000 C 
ATOM     10  O   UNL     1      -0.872   8.209  21.765  0.00  0.00    +0.000 OA
ATOM     11  H   UNL     1       1.782   9.956  21.799  0.00  0.00    +0.000 HD
BRANCH   9  12
ATOM     12  C   UNL     1      -0.271   9.952  23.290  0.00  0.00    +0.000 C 
BRANCH  12  13
ATOM     13  S   UNL     1      -1.594  11.165  22.982  0.00  0.00    +0.000 S 
BRANCH  13  14
ATOM     14  C   UNL     1      -0.643  12.534  22.517  0.00  0.00    +0.000 A 
ATOM     15  N   UNL     1       0.389  12.488  21.703  0.00  0.00    +0.000 NA
ATOM     16  C   UNL     1       0.797  13.789  21.576  0.00  0.00    +0.000 A 
ATOM     17  C   UNL     1       0.027  14.626  22.349  0.00  0.00    +0.000 A 
ATOM     18  N   UNL     1      -0.893  13.808  22.955  0.00  0.00    +0.000 N 
ATOM     19  C   UNL     1      -1.905  14.247  23.883  0.00  0.00    +0.000 C 
ENDBRANCH  13  14
ENDBRANCH  12  13
ENDBRANCH   9  12
ENDBRANCH   7   8
BRANCH   5  20
ATOM     20  S   UNL     1       3.091   5.126  19.014  0.00  0.00    +0.000 S 
ATOM     21  O   UNL     1       3.210   4.726  20.399  0.00  0.00    +0.000 OA
ATOM     22  O   UNL     1       2.265   4.367  18.095  0.00  0.00    +0.000 OA
BRANCH  20  23
ATOM     23  N   UNL     1       4.663   5.225  18.339  0.00  0.00    +0.000 NA
ATOM     24  C   UNL     1       5.783   5.168  19.311  0.00  0.00    +0.000 C 
ATOM     25  C   UNL     1       7.101   5.559  18.648  0.00  0.00    +0.000 C 
ATOM     26  C   UNL     1       7.367   4.711  17.412  0.00  0.00    +0.000 C 
ATOM     27  C   UNL     1       6.201   4.840  16.441  0.00  0.00    +0.000 C 
ATOM     28  C   UNL     1       4.884   4.434  17.101  0.00  0.00    +0.000 C 
ENDBRANCH  20  23
ENDBRANCH   5  20
TORSDOF 6
ENDMDL
MODEL 2
REMARK VINA RESULT:      -7.3      1.065      1.651
REMARK  Name = 
REMARK  8 active torsions:
REMARK  status: ('A' for Active; 'I' for Inactive)
REMARK    1  A    between atoms: C_1  and  C_2
REMARK    2  A    between atoms: C_5  and  S_6
REMARK    3  A    between atoms: S_6  and  N_9
REMARK    4  A    between atoms: C_16  and  N_17
REMARK    5  A    between atoms: C_18  and  C_20
REMARK    6  A    between atoms: C_20  and  S_21
REMARK    7  A    between atoms: S_21  and  C_22
REMARK    8  A    between atoms: N_26  and  C_27
REMARK                            x       y       z     vdW  Elec       q    Type
REMARK                         _______ _______ _______ _____ _____    ______ ____
ROOT
ATOM      1  C   UNL     1       0.887  11.009  18.552  0.00  0.00    +0.000 C 
ATOM      2  C   UNL     1       1.423   9.620  18.789  0.00  0.00    +0.000 A 
ATOM      3  C   UNL     1       2.000   8.954  17.687  0.00  0.00    +0.000 A 
ATOM      4  C   UNL     1       2.501   7.661  17.807  0.00  0.00    +0.000 A 
ATOM      5  C   UNL     1       2.421   7.009  19.035  0.00  0.00    +0.000 A 
ATOM      6  C   UNL     1       1.825   7.641  20.131  0.00  0.00    +0.000 A 
ATOM      7  C   UNL     1       1.353   8.960  20.039  0.00  0.00    +0.000 A 
ENDROOT
BRANCH   7   8
ATOM      8  N   UNL     1       0.804   9.634  21.168  0.00  0.00    +0.000 N 
ATOM      9  C   UNL     1      -0.288   9.204  21.916  0.00  0.00    +0.000 C 
ATOM     10  O   UNL     1      -0.920   8.168  21.712  0.00  0.00    +0.000 OA
ATOM     11  H   UNL     1       1.358  10.379  21.573  0.00  0.00    +0.000 HD
BRANCH   9  12
ATOM     12  C   UNL     1      -0.684  10.131  23.059  0.00  0.00    +0.000 C 
BRANCH  12  13
ATOM     13  S   UNL     1      -0.665  11.864  22.499  0.00  0.00    +0.000 S 
BRANCH  13  14
ATOM     14  C   UNL     1      -2.070  12.459  23.313  0.00  0.00    +0.000 A 
ATOM     15  N   UNL     1      -3.154  11.753  23.550  0.00  0.00    +0.000 NA
ATOM     16  C   UNL     1      -3.975  12.593  24.254  0.00  0.00    +0.000 A 
ATOM     17  C   UNL     1      -3.398  13.831  24.414  0.00  0.00    +0.000 A 
ATOM     18  N   UNL     1      -2.174  13.736  23.799  0.00  0.00    +0.000 N 
ATOM     19  C   UNL     1      -1.216  14.808  23.696  0.00  0.00    +0.000 C 
ENDBRANCH  13  14
ENDBRANCH  12  13
ENDBRANCH   9  12
ENDBRANCH   7   8
BRANCH   5  20
ATOM     20  S   UNL     1       2.963   5.310  19.159  0.00  0.00    +0.000 S 
ATOM     21  O   UNL     1       3.117   4.997  20.563  0.00  0.00    +0.000 OA
ATOM     22  O   UNL     1       2.078   4.526  18.320  0.00  0.00    +0.000 OA
BRANCH  20  23
ATOM     23  N   UNL     1       4.512   5.307  18.427  0.00  0.00    +0.000 NA
ATOM     24  C   UNL     1       5.661   5.171  19.357  0.00  0.00    +0.000 C 
ATOM     25  C   UNL     1       6.977   5.475  18.646  0.00  0.00    +0.000 C 
ATOM     26  C   UNL     1       7.139   4.616  17.400  0.00  0.00    +0.000 C 
ATOM     27  C   UNL     1       5.950   4.827  16.472  0.00  0.00    +0.000 C 
ATOM     28  C   UNL     1       4.634   4.508  17.180  0.00  0.00    +0.000 C 
ENDBRANCH  20  23
ENDBRANCH   5  20
TORSDOF 6
ENDMDL
MODEL 3
REMARK VINA RESULT:      -7.2      3.138      8.591
REMARK  Name = 
REMARK  8 active torsions:
REMARK  status: ('A' for Active; 'I' for Inactive)
REMARK    1  A    between atoms: C_1  and  C_2
REMARK    2  A    between atoms: C_5  and  S_6
REMARK    3  A    between atoms: S_6  and  N_9
REMARK    4  A    between atoms: C_16  and  N_17
REMARK    5  A    between atoms: C_18  and  C_20
REMARK    6  A    between atoms: C_20  and  S_21
REMARK    7  A    between atoms: S_21  and  C_22
REMARK    8  A    between atoms: N_26  and  C_27
REMARK                            x       y       z     vdW  Elec       q    Type
REMARK                         _______ _______ _______ _____ _____    ______ ____
ROOT
ATOM      1  C   UNL     1       3.657   6.472  17.697  0.00  0.00    +0.000 C 
ATOM      2  C   UNL     1       2.747   7.493  18.332  0.00  0.00    +0.000 A 
ATOM      3  C   UNL     1       2.391   8.614  17.552  0.00  0.00    +0.000 A 
ATOM      4  C   UNL     1       1.574   9.617  18.062  0.00  0.00    +0.000 A 
ATOM      5  C   UNL     1       1.107   9.519  19.370  0.00  0.00    +0.000 A 
ATOM      6  C   UNL     1       1.474   8.431  20.169  0.00  0.00    +0.000 A 
ATOM      7  C   UNL     1       2.262   7.389  19.657  0.00  0.00    +0.000 A 
ENDROOT
BRANCH   7   8
ATOM      8  N   UNL     1       2.586   6.245  20.444  0.00  0.00    +0.000 N 
ATOM      9  C   UNL     1       1.707   5.226  20.792  0.00  0.00    +0.000 C 
ATOM     10  O   UNL     1       0.525   5.164  20.450  0.00  0.00    +0.000 OA
ATOM     11  H   UNL     1       3.570   6.062  20.606  0.00  0.00    +0.000 HD
BRANCH   9  12
ATOM     12  C   UNL     1       2.309   4.132  21.665  0.00  0.00    +0.000 C 
BRANCH  12  13
ATOM     13  S   UNL     1       1.673   2.502  21.159  0.00  0.00    +0.000 S 
BRANCH  13  14
ATOM     14  C   UNL     1       2.293   2.426  19.546  0.00  0.00    +0.000 A 
ATOM     15  N   UNL     1       1.577   2.609  18.458  0.00  0.00    +0.000 NA
ATOM     16  C   UNL     1       2.471   2.513  17.426  0.00  0.00    +0.000 A 
ATOM     17  C   UNL     1       3.735   2.234  17.891  0.00  0.00    +0.000 A 
ATOM     18  N   UNL     1       3.608   2.173  19.256  0.00  0.00    +0.000 N 
ATOM     19  C   UNL     1       4.681   1.881  20.173  0.00  0.00    +0.000 C 
ENDBRANCH  13  14
ENDBRANCH  12  13
ENDBRANCH   9  12
ENDBRANCH   7   8
BRANCH   5  20
ATOM     20  S   UNL     1       0.149  10.860  20.060  0.00  0.00    +0.000 S 
ATOM     21  O   UNL     1      -0.076  10.570  21.459  0.00  0.00    +0.000 OA
ATOM     22  O   UNL     1       0.802  12.091  19.657  0.00  0.00    +0.000 OA
BRANCH  20  23
ATOM     23  N   UNL     1      -1.352  10.775  19.238  0.00  0.00    +0.000 NA
ATOM     24  C   UNL     1      -2.153  12.024  19.235  0.00  0.00    +0.000 C 
ATOM     25  C   UNL     1      -3.575  11.759  18.745  0.00  0.00    +0.000 C 
ATOM     26  C   UNL     1      -3.568  11.074  17.386  0.00  0.00    +0.000 C 
ATOM     27  C   UNL     1      -2.762   9.784  17.464  0.00  0.00    +0.000 C 
ATOM     28  C   UNL     1      -1.336  10.053  17.940  0.00  0.00    +0.000 C 
ENDBRANCH  20  23
ENDBRANCH   5  20
TORSDOF 6
ENDMDL
MODEL 4
REMARK VINA RESULT:      -7.2      1.427      1.899
REMARK  Name = 
REMARK  8 active torsions:
REMARK  status: ('A' for Active; 'I' for Inactive)
REMARK    1  A    between atoms: C_1  and  C_2
REMARK    2  A    between atoms: C_5  and  S_6
REMARK    3  A    between atoms: S_6  and  N_9
REMARK    4  A    between atoms: C_16  and  N_17
REMARK    5  A    between atoms: C_18  and  C_20
REMARK    6  A    between atoms: C_20  and  S_21
REMARK    7  A    between atoms: S_21  and  C_22
REMARK    8  A    between atoms: N_26  and  C_27
REMARK                            x       y       z     vdW  Elec       q    Type
REMARK                         _______ _______ _______ _____ _____    ______ ____
ROOT
ATOM      1  C   UNL     1       0.818  10.810  18.577  0.00  0.00    +0.000 C 
ATOM      2  C   UNL     1       1.405   9.441  18.809  0.00  0.00    +0.000 A 
ATOM      3  C   UNL     1       1.994   8.796  17.701  0.00  0.00    +0.000 A 
ATOM      4  C   UNL     1       2.541   7.522  17.815  0.00  0.00    +0.000 A 
ATOM      5  C   UNL     1       2.496   6.867  19.043  0.00  0.00    +0.000 A 
ATOM      6  C   UNL     1       1.888   7.477  20.145  0.00  0.00    +0.000 A 
ATOM      7  C   UNL     1       1.370   8.778  20.059  0.00  0.00    +0.000 A 
ENDROOT
BRANCH   7   8
ATOM      8  N   UNL     1       0.808   9.432  21.193  0.00  0.00    +0.000 N 
ATOM      9  C   UNL     1      -0.319   9.013  21.894  0.00  0.00    +0.000 C 
ATOM     10  O   UNL     1      -0.976   8.004  21.638  0.00  0.00    +0.000 OA
ATOM     11  H   UNL     1       1.372  10.145  21.639  0.00  0.00    +0.000 HD
BRANCH   9  12
ATOM     12  C   UNL     1      -0.721   9.914  23.055  0.00  0.00    +0.000 C 
BRANCH  12  13
ATOM     13  S   UNL     1      -0.633  11.663  22.554  0.00  0.00    +0.000 S 
BRANCH  13  14
ATOM     14  C   UNL     1      -2.308  12.083  22.635  0.00  0.00    +0.000 A 
ATOM     15  N   UNL     1      -3.067  11.939  23.699  0.00  0.00    +0.000 NA
ATOM     16  C   UNL     1      -4.288  12.442  23.335  0.00  0.00    +0.000 A 
ATOM     17  C   UNL     1      -4.278  12.863  22.026  0.00  0.00    +0.000 A 
ATOM     18  N   UNL     1      -3.001  12.621  21.582  0.00  0.00    +0.000 N 
ATOM     19  C   UNL     1      -2.526  12.887  20.247  0.00  0.00    +0.000 C 
ENDBRANCH  13  14
ENDBRANCH  12  13
ENDBRANCH   9  12
ENDBRANCH   7   8
BRANCH   5  20
ATOM     20  S   UNL     1       3.098   5.188  19.161  0.00  0.00    +0.000 S 
ATOM     21  O   UNL     1       3.320   4.895  20.560  0.00  0.00    +0.000 OA
ATOM     22  O   UNL     1       2.206   4.367  18.366  0.00  0.00    +0.000 OA
BRANCH  20  23
ATOM     23  N   UNL     1       4.616   5.227  18.366  0.00  0.00    +0.000 NA
ATOM     24  C   UNL     1       5.803   5.318  19.253  0.00  0.00    +0.000 C 
ATOM     25  C   UNL     1       7.060   5.643  18.451  0.00  0.00    +0.000 C 
ATOM     26  C   UNL     1       7.261   4.646  17.319  0.00  0.00    +0.000 C 
ATOM     27  C   UNL     1       6.027   4.626  16.426  0.00  0.00    +0.000 C 
ATOM     28  C   UNL     1       4.772   4.287  17.228  0.00  0.00    +0.000 C 
ENDBRANCH  20  23
ENDBRANCH   5  20
TORSDOF 6
ENDMDL
MODEL 5
REMARK VINA RESULT:      -7.1      2.865      8.619
REMARK  Name = 
REMARK  8 active torsions:
REMARK  status: ('A' for Active; 'I' for Inactive)
REMARK    1  A    between atoms: C_1  and  C_2
REMARK    2  A    between atoms: C_5  and  S_6
REMARK    3  A    between atoms: S_6  and  N_9
REMARK    4  A    between atoms: C_16  and  N_17
REMARK    5  A    between atoms: C_18  and  C_20
REMARK    6  A    between atoms: C_20  and  S_21
REMARK    7  A    between atoms: S_21  and  C_22
REMARK    8  A    between atoms: N_26  and  C_27
REMARK                            x       y       z     vdW  Elec       q    Type
REMARK                         _______ _______ _______ _____ _____    ______ ____
ROOT
ATOM      1  C   UNL     1       3.223   6.752  17.715  0.00  0.00    +0.000 C 
ATOM      2  C   UNL     1       2.393   7.753  18.478  0.00  0.00    +0.000 A 
ATOM      3  C   UNL     1       1.950   8.893  17.775  0.00  0.00    +0.000 A 
ATOM      4  C   UNL     1       1.197   9.880  18.403  0.00  0.00    +0.000 A 
ATOM      5  C   UNL     1       0.884   9.745  19.753  0.00  0.00    +0.000 A 
ATOM      6  C   UNL     1       1.340   8.637  20.475  0.00  0.00    +0.000 A 
ATOM      7  C   UNL     1       2.064   7.612  19.847  0.00  0.00    +0.000 A 
ENDROOT
BRANCH   7   8
ATOM      8  N   UNL     1       2.476   6.449  20.560  0.00  0.00    +0.000 N 
ATOM      9  C   UNL     1       1.702   5.314  20.776  0.00  0.00    +0.000 C 
ATOM     10  O   UNL     1       0.553   5.152  20.362  0.00  0.00    +0.000 OA
ATOM     11  H   UNL     1       3.465   6.361  20.764  0.00  0.00    +0.000 HD
BRANCH   9  12
ATOM     12  C   UNL     1       2.380   4.223  21.596  0.00  0.00    +0.000 C 
BRANCH  12  13
ATOM     13  S   UNL     1       1.635   2.603  21.224  0.00  0.00    +0.000 S 
BRANCH  13  14
ATOM     14  C   UNL     1       2.245   2.351  19.626  0.00  0.00    +0.000 A 
ATOM     15  N   UNL     1       1.516   2.379  18.532  0.00  0.00    +0.000 NA
ATOM     16  C   UNL     1       2.404   2.186  17.508  0.00  0.00    +0.000 A 
ATOM     17  C   UNL     1       3.680   2.004  17.990  0.00  0.00    +0.000 A 
ATOM     18  N   UNL     1       3.565   2.105  19.354  0.00  0.00    +0.000 N 
ATOM     19  C   UNL     1       4.654   1.960  20.288  0.00  0.00    +0.000 C 
ENDBRANCH  13  14
ENDBRANCH  12  13
ENDBRANCH   9  12
ENDBRANCH   7   8
BRANCH   5  20
ATOM     20  S   UNL     1       0.012  11.065  20.585  0.00  0.00    +0.000 S 
ATOM     21  O   UNL     1      -1.387  10.961  20.236  0.00  0.00    +0.000 OA
ATOM     22  O   UNL     1       0.432  11.034  21.973  0.00  0.00    +0.000 OA
BRANCH  20  23
ATOM     23  N   UNL     1       0.643  12.496  19.883  0.00  0.00    +0.000 NA
ATOM     24  C   UNL     1      -0.340  13.583  19.650  0.00  0.00    +0.000 C 
ATOM     25  C   UNL     1       0.255  14.675  18.764  0.00  0.00    +0.000 C 
ATOM     26  C   UNL     1       1.565  15.195  19.339  0.00  0.00    +0.000 C 
ATOM     27  C   UNL     1       2.541  14.040  19.520  0.00  0.00    +0.000 C 
ATOM     28  C   UNL     1       1.951  12.954  20.419  0.00  0.00    +0.000 C 
ENDBRANCH  20  23
ENDBRANCH   5  20
TORSDOF 6
ENDMDL
MODEL 6
REMARK VINA RESULT:      -7.1      1.061      1.456
REMARK  Name = 
REMARK  8 active torsions:
REMARK  status: ('A' for Active; 'I' for Inactive)
REMARK    1  A    between atoms: C_1  and  C_2
REMARK    2  A    between atoms: C_5  and  S_6
REMARK    3  A    between atoms: S_6  and  N_9
REMARK    4  A    between atoms: C_16  and  N_17
REMARK    5  A    between atoms: C_18  and  C_20
REMARK    6  A    between atoms: C_20  and  S_21
REMARK    7  A    between atoms: S_21  and  C_22
REMARK    8  A    between atoms: N_26  and  C_27
REMARK                            x       y       z     vdW  Elec       q    Type
REMARK                         _______ _______ _______ _____ _____    ______ ____
ROOT
ATOM      1  C   UNL     1       1.137  10.294  18.701  0.00  0.00    +0.000 C 
ATOM      2  C   UNL     1       1.642   8.884  18.868  0.00  0.00    +0.000 A 
ATOM      3  C   UNL     1       2.031   8.195  17.700  0.00  0.00    +0.000 A 
ATOM      4  C   UNL     1       2.489   6.882  17.756  0.00  0.00    +0.000 A 
ATOM      5  C   UNL     1       2.553   6.233  18.986  0.00  0.00    +0.000 A 
ATOM      6  C   UNL     1       2.142   6.888  20.151  0.00  0.00    +0.000 A 
ATOM      7  C   UNL     1       1.718   8.226  20.119  0.00  0.00    +0.000 A 
ENDROOT
BRANCH   7   8
ATOM      8  N   UNL     1       1.360   8.922  21.310  0.00  0.00    +0.000 N 
ATOM      9  C   UNL     1       0.140   8.820  21.972  0.00  0.00    +0.000 C 
ATOM     10  O   UNL     1      -0.794   8.097  21.625  0.00  0.00    +0.000 OA
ATOM     11  H   UNL     1       2.107   9.378  21.818  0.00  0.00    +0.000 HD
BRANCH   9  12
ATOM     12  C   UNL     1       0.011   9.696  23.212  0.00  0.00    +0.000 C 
BRANCH  12  13
ATOM     13  S   UNL     1      -1.348  10.891  22.998  0.00  0.00    +0.000 S 
BRANCH  13  14
ATOM     14  C   UNL     1      -0.614  11.982  21.874  0.00  0.00    +0.000 A 
ATOM     15  N   UNL     1       0.679  12.204  21.779  0.00  0.00    +0.000 NA
ATOM     16  C   UNL     1       0.811  13.084  20.738  0.00  0.00    +0.000 A 
ATOM     17  C   UNL     1      -0.416  13.425  20.220  0.00  0.00    +0.000 A 
ATOM     18  N   UNL     1      -1.327  12.716  20.963  0.00  0.00    +0.000 N 
ATOM     19  C   UNL     1      -2.757  12.774  20.790  0.00  0.00    +0.000 C 
ENDBRANCH  13  14
ENDBRANCH  12  13
ENDBRANCH   9  12
ENDBRANCH   7   8
BRANCH   5  20
ATOM     20  S   UNL     1       3.035   4.513  19.043  0.00  0.00    +0.000 S 
ATOM     21  O   UNL     1       3.171   4.137  20.432  0.00  0.00    +0.000 OA
ATOM     22  O   UNL     1       2.127   3.795  18.169  0.00  0.00    +0.000 OA
BRANCH  20  23
ATOM     23  N   UNL     1       4.586   4.485  18.316  0.00  0.00    +0.000 NA
ATOM     24  C   UNL     1       4.599   4.408  16.833  0.00  0.00    +0.000 C 
ATOM     25  C   UNL     1       5.999   4.091  16.315  0.00  0.00    +0.000 C 
ATOM     26  C   UNL     1       7.020   5.086  16.850  0.00  0.00    +0.000 C 
ATOM     27  C   UNL     1       6.983   5.091  18.372  0.00  0.00    +0.000 C 
ATOM     28  C   UNL     1       5.585   5.422  18.890  0.00  0.00    +0.000 C 
ENDBRANCH  20  23
ENDBRANCH   5  20
TORSDOF 6
ENDMDL
MODEL 7
REMARK VINA RESULT:      -7.1      2.351      8.457
REMARK  Name = 
REMARK  8 active torsions:
REMARK  status: ('A' for Active; 'I' for Inactive)
REMARK    1  A    between atoms: C_1  and  C_2
REMARK    2  A    between atoms: C_5  and  S_6
REMARK    3  A    between atoms: S_6  and  N_9
REMARK    4  A    between atoms: C_16  and  N_17
REMARK    5  A    between atoms: C_18  and  C_20
REMARK    6  A    between atoms: C_20  and  S_21
REMARK    7  A    between atoms: S_21  and  C_22
REMARK    8  A    between atoms: N_26  and  C_27
REMARK                            x       y       z     vdW  Elec       q    Type
REMARK                         _______ _______ _______ _____ _____    ______ ____
ROOT
ATOM      1  C   UNL     1       3.329   6.750  17.670  0.00  0.00    +0.000 C 
ATOM      2  C   UNL     1       2.473   7.710  18.458  0.00  0.00    +0.000 A 
ATOM      3  C   UNL     1       2.009   8.860  17.786  0.00  0.00    +0.000 A 
ATOM      4  C   UNL     1       1.232   9.812  18.439  0.00  0.00    +0.000 A 
ATOM      5  C   UNL     1       0.916   9.631  19.783  0.00  0.00    +0.000 A 
ATOM      6  C   UNL     1       1.394   8.513  20.474  0.00  0.00    +0.000 A 
ATOM      7  C   UNL     1       2.143   7.522  19.820  0.00  0.00    +0.000 A 
ENDROOT
BRANCH   7   8
ATOM      8  N   UNL     1       2.577   6.348  20.501  0.00  0.00    +0.000 N 
ATOM      9  C   UNL     1       1.838   5.179  20.653  0.00  0.00    +0.000 C 
ATOM     10  O   UNL     1       0.708   4.993  20.201  0.00  0.00    +0.000 OA
ATOM     11  H   UNL     1       3.562   6.287  20.730  0.00  0.00    +0.000 HD
BRANCH   9  12
ATOM     12  C   UNL     1       2.534   4.082  21.451  0.00  0.00    +0.000 C 
BRANCH  12  13
ATOM     13  S   UNL     1       2.782   2.609  20.409  0.00  0.00    +0.000 S 
BRANCH  13  14
ATOM     14  C   UNL     1       3.901   3.244  19.253  0.00  0.00    +0.000 A 
ATOM     15  N   UNL     1       5.092   3.720  19.545  0.00  0.00    +0.000 NA
ATOM     16  C   UNL     1       5.644   4.057  18.338  0.00  0.00    +0.000 A 
ATOM     17  C   UNL     1       4.765   3.816  17.307  0.00  0.00    +0.000 A 
ATOM     18  N   UNL     1       3.644   3.299  17.908  0.00  0.00    +0.000 N 
ATOM     19  C   UNL     1       2.440   2.912  17.215  0.00  0.00    +0.000 C 
ENDBRANCH  13  14
ENDBRANCH  12  13
ENDBRANCH   9  12
ENDBRANCH   7   8
BRANCH   5  20
ATOM     20  S   UNL     1       0.013  10.907  20.649  0.00  0.00    +0.000 S 
ATOM     21  O   UNL     1      -1.394  10.722  20.369  0.00  0.00    +0.000 OA
ATOM     22  O   UNL     1       0.500  10.911  22.015  0.00  0.00    +0.000 OA
BRANCH  20  23
ATOM     23  N   UNL     1       0.528  12.365  19.909  0.00  0.00    +0.000 NA
ATOM     24  C   UNL     1      -0.546  13.344  19.606  0.00  0.00    +0.000 C 
ATOM     25  C   UNL     1      -0.029  14.455  18.695  0.00  0.00    +0.000 C 
ATOM     26  C   UNL     1       1.207  15.118  19.285  0.00  0.00    +0.000 C 
ATOM     27  C   UNL     1       2.281  14.069  19.539  0.00  0.00    +0.000 C 
ATOM     28  C   UNL     1       1.768  12.965  20.462  0.00  0.00    +0.000 C 
ENDBRANCH  20  23
ENDBRANCH   5  20
TORSDOF 6
ENDMDL
MODEL 8
REMARK VINA RESULT:      -7.1      2.080      2.794
REMARK  Name = 
REMARK  8 active torsions:
REMARK  status: ('A' for Active; 'I' for Inactive)
REMARK    1  A    between atoms: C_1  and  C_2
REMARK    2  A    between atoms: C_5  and  S_6
REMARK    3  A    between atoms: S_6  and  N_9
REMARK    4  A    between atoms: C_16  and  N_17
REMARK    5  A    between atoms: C_18  and  C_20
REMARK    6  A    between atoms: C_20  and  S_21
REMARK    7  A    between atoms: S_21  and  C_22
REMARK    8  A    between atoms: N_26  and  C_27
REMARK                            x       y       z     vdW  Elec       q    Type
REMARK                         _______ _______ _______ _____ _____    ______ ____
ROOT
ATOM      1  C   UNL     1       0.116  10.775  18.752  0.00  0.00    +0.000 C 
ATOM      2  C   UNL     1       0.997   9.553  18.805  0.00  0.00    +0.000 A 
ATOM      3  C   UNL     1       1.423   9.011  17.574  0.00  0.00    +0.000 A 
ATOM      4  C   UNL     1       2.220   7.872  17.525  0.00  0.00    +0.000 A 
ATOM      5  C   UNL     1       2.596   7.249  18.713  0.00  0.00    +0.000 A 
ATOM      6  C   UNL     1       2.158   7.754  19.942  0.00  0.00    +0.000 A 
ATOM      7  C   UNL     1       1.389   8.926  20.012  0.00  0.00    +0.000 A 
ENDROOT
BRANCH   7   8
ATOM      8  N   UNL     1       0.994   9.483  21.262  0.00  0.00    +0.000 N 
ATOM      9  C   UNL     1      -0.104   9.083  22.017  0.00  0.00    +0.000 C 
ATOM     10  O   UNL     1      -0.877   8.175  21.713  0.00  0.00    +0.000 OA
ATOM     11  H   UNL     1       1.663  10.084  21.730  0.00  0.00    +0.000 HD
BRANCH   9  12
ATOM     12  C   UNL     1      -0.313   9.867  23.307  0.00  0.00    +0.000 C 
BRANCH  12  13
ATOM     13  S   UNL     1      -1.596  11.138  23.069  0.00  0.00    +0.000 S 
BRANCH  13  14
ATOM     14  C   UNL     1      -0.619  12.450  22.509  0.00  0.00    +0.000 A 
ATOM     15  N   UNL     1       0.375  12.335  21.656  0.00  0.00    +0.000 NA
ATOM     16  C   UNL     1       0.824  13.613  21.460  0.00  0.00    +0.000 A 
ATOM     17  C   UNL     1       0.118  14.508  22.229  0.00  0.00    +0.000 A 
ATOM     18  N   UNL     1      -0.804  13.749  22.906  0.00  0.00    +0.000 N 
ATOM     19  C   UNL     1      -1.759  14.261  23.857  0.00  0.00    +0.000 C 
ENDBRANCH  13  14
ENDBRANCH  12  13
ENDBRANCH   9  12
ENDBRANCH   7   8
BRANCH   5  20
ATOM     20  S   UNL     1       3.526   5.725  18.645  0.00  0.00    +0.000 S 
ATOM     21  O   UNL     1       3.829   5.452  17.258  0.00  0.00    +0.000 OA
ATOM     22  O   UNL     1       4.589   5.839  19.625  0.00  0.00    +0.000 OA
BRANCH  20  23
ATOM     23  N   UNL     1       2.428   4.535  19.207  0.00  0.00    +0.000 NA
ATOM     24  C   UNL     1       1.780   3.713  18.154  0.00  0.00    +0.000 C 
ATOM     25  C   UNL     1       0.620   2.904  18.731  0.00  0.00    +0.000 C 
ATOM     26  C   UNL     1       1.072   2.068  19.920  0.00  0.00    +0.000 C 
ATOM     27  C   UNL     1       1.693   2.972  20.977  0.00  0.00    +0.000 C 
ATOM     28  C   UNL     1       2.863   3.769  20.403  0.00  0.00    +0.000 C 
ENDBRANCH  20  23
ENDBRANCH   5  20
TORSDOF 6
ENDMDL
MODEL 9
REMARK VINA RESULT:      -7.0      3.155      8.676
REMARK  Name = 
REMARK  8 active torsions:
REMARK  status: ('A' for Active; 'I' for Inactive)
REMARK    1  A    between atoms: C_1  and  C_2
REMARK    2  A    between atoms: C_5  and  S_6
REMARK    3  A    between atoms: S_6  and  N_9
REMARK    4  A    between atoms: C_16  and  N_17
REMARK    5  A    between atoms: C_18  and  C_20
REMARK    6  A    between atoms: C_20  and  S_21
REMARK    7  A    between atoms: S_21  and  C_22
REMARK    8  A    between atoms: N_26  and  C_27
REMARK                            x       y       z     vdW  Elec       q    Type
REMARK                         _______ _______ _______ _____ _____    ______ ____
ROOT
ATOM      1  C   UNL     1       3.668   6.654  17.742  0.00  0.00    +0.000 C 
ATOM      2  C   UNL     1       2.711   7.636  18.367  0.00  0.00    +0.000 A 
ATOM      3  C   UNL     1       2.327   8.748  17.587  0.00  0.00    +0.000 A 
ATOM      4  C   UNL     1       1.465   9.718  18.089  0.00  0.00    +0.000 A 
ATOM      5  C   UNL     1       0.980   9.594  19.389  0.00  0.00    +0.000 A 
ATOM      6  C   UNL     1       1.375   8.516  20.188  0.00  0.00    +0.000 A 
ATOM      7  C   UNL     1       2.209   7.506  19.683  0.00  0.00    +0.000 A 
ENDROOT
BRANCH   7   8
ATOM      8  N   UNL     1       2.562   6.371  20.469  0.00  0.00    +0.000 N 
ATOM      9  C   UNL     1       1.733   5.291  20.751  0.00  0.00    +0.000 C 
ATOM     10  O   UNL     1       0.579   5.160  20.341  0.00  0.00    +0.000 OA
ATOM     11  H   UNL     1       3.545   6.249  20.684  0.00  0.00    +0.000 HD
BRANCH   9  12
ATOM     12  C   UNL     1       2.355   4.221  21.640  0.00  0.00    +0.000 C 
BRANCH  12  13
ATOM     13  S   UNL     1       1.641   2.591  21.255  0.00  0.00    +0.000 S 
BRANCH  13  14
ATOM     14  C   UNL     1       2.255   2.363  19.655  0.00  0.00    +0.000 A 
ATOM     15  N   UNL     1       1.531   2.415  18.558  0.00  0.00    +0.000 NA
ATOM     16  C   UNL     1       2.423   2.235  17.535  0.00  0.00    +0.000 A 
ATOM     17  C   UNL     1       3.696   2.037  18.018  0.00  0.00    +0.000 A 
ATOM     18  N   UNL     1       3.576   2.115  19.384  0.00  0.00    +0.000 N 
ATOM     19  C   UNL     1       4.660   1.947  20.319  0.00  0.00    +0.000 C 
ENDBRANCH  13  14
ENDBRANCH  12  13
ENDBRANCH   9  12
ENDBRANCH   7   8
BRANCH   5  20
ATOM     20  S   UNL     1      -0.037  10.896  20.071  0.00  0.00    +0.000 S 
ATOM     21  O   UNL     1      -0.495  10.464  21.373  0.00  0.00    +0.000 OA
ATOM     22  O   UNL     1       0.709  12.131  19.922  0.00  0.00    +0.000 OA
BRANCH  20  23
ATOM     23  N   UNL     1      -1.386  10.973  19.016  0.00  0.00    +0.000 NA
ATOM     24  C   UNL     1      -1.762   9.695  18.362  0.00  0.00    +0.000 C 
ATOM     25  C   UNL     1      -2.767   9.934  17.237  0.00  0.00    +0.000 C 
ATOM     26  C   UNL     1      -3.980  10.704  17.739  0.00  0.00    +0.000 C 
ATOM     27  C   UNL     1      -3.531  12.018  18.365  0.00  0.00    +0.000 C 
ATOM     28  C   UNL     1      -2.537  11.777  19.500  0.00  0.00    +0.000 C 
ENDBRANCH  20  23
ENDBRANCH   5  20
TORSDOF 6
ENDMDL
