MODEL 1
REMARK VINA RESULT:      -9.7      0.000      0.000
REMARK  Name = 
REMARK  5 active torsions:
REMARK  status: ('A' for Active; 'I' for Inactive)
REMARK    1  A    between atoms: C_4  and  C_6
REMARK    2  A    between atoms: C_9  and  C_10
REMARK    3  A    between atoms: C_10  and  C_12
REMARK    4  A    between atoms: N_20  and  C_21
REMARK    5  A    between atoms: C_25  and  C_26
REMARK                            x       y       z     vdW  Elec       q    Type
REMARK                         _______ _______ _______ _____ _____    ______ ____
ROOT
ATOM      1  O   UNL     1       8.206   5.931  19.139  0.00  0.00    +0.000 OA
ATOM      2  C   UNL     1       8.002   6.907  18.425  0.00  0.00    +0.000 C 
ATOM      3  N   UNL     1       8.518   8.122  18.834  0.00  0.00    +0.000 N 
ATOM      4  C   UNL     1       8.451   9.332  18.168  0.00  0.00    +0.000 C 
ATOM      5  O   UNL     1       7.892   9.478  17.083  0.00  0.00    +0.000 OA
ATOM      6  N   UNL     1       7.283   6.943  17.258  0.00  0.00    +0.000 N 
ATOM      7  H   UNL     1       9.044   8.028  19.689  0.00  0.00    +0.000 HD
ATOM      8  H   UNL     1       7.171   7.869  16.849  0.00  0.00    +0.000 HD
ENDROOT
BRANCH   4   9
ATOM      9  C   UNL     1       9.106  10.505  18.804  0.00  0.00    +0.000 A 
ATOM     10  C   UNL     1       9.056  11.717  18.109  0.00  0.00    +0.000 A 
ATOM     11  C   UNL     1       9.590  12.876  18.677  0.00  0.00    +0.000 A 
ATOM     12  C   UNL     1      10.173  12.836  19.947  0.00  0.00    +0.000 A 
ATOM     13  C   UNL     1      10.205  11.623  20.652  0.00  0.00    +0.000 A 
ATOM     14  C   UNL     1       9.681  10.458  20.082  0.00  0.00    +0.000 A 
BRANCH  12  15
ATOM     15  C   UNL     1      10.663  14.114  20.524  0.00  0.00    +0.000 C 
ATOM     16  O   UNL     1      11.561  14.717  19.941  0.00  0.00    +0.000 OA
BRANCH  15  17
ATOM     17  C   UNL     1      10.101  14.694  21.766  0.00  0.00    +0.000 A 
ATOM     18  C   UNL     1      10.692  15.856  22.278  0.00  0.00    +0.000 A 
ATOM     19  C   UNL     1      10.207  16.436  23.449  0.00  0.00    +0.000 A 
ATOM     20  C   UNL     1       9.134  15.850  24.121  0.00  0.00    +0.000 A 
ATOM     21  C   UNL     1       8.559  14.675  23.631  0.00  0.00    +0.000 A 
ATOM     22  C   UNL     1       9.048  14.089  22.462  0.00  0.00    +0.000 A 
ENDBRANCH  15  17
ENDBRANCH  12  15
ENDBRANCH   4   9
BRANCH   6  23
ATOM     23  C   UNL     1       6.612   5.888  16.617  0.00  0.00    +0.000 A 
ATOM     24  C   UNL     1       7.129   5.211  15.514  0.00  0.00    +0.000 A 
ATOM     25  C   UNL     1       6.425   4.148  14.951  0.00  0.00    +0.000 A 
ATOM     26  C   UNL     1       5.204   3.752  15.493  0.00  0.00    +0.000 A 
ATOM     27  C   UNL     1       4.650   4.433  16.589  0.00  0.00    +0.000 A 
ATOM     28  C   UNL     1       5.364   5.510  17.135  0.00  0.00    +0.000 A 
BRANCH  27  29
ATOM     29  C   UNL     1       3.323   3.999  17.184  0.00  0.00    +0.000 C 
ATOM     30  C   UNL     1       2.618   5.153  17.972  0.00  0.00    +0.000 C 
ATOM     31  N   UNL     1       2.216   4.466  19.180  0.00  0.00    +0.000 N 
ATOM     32  C   UNL     1       2.062   5.114  20.464  0.00  0.00    +0.000 C 
ATOM     33  C   UNL     1       2.108   4.005  21.531  0.00  0.00    +0.000 C 
ATOM     34  S   UNL     1       2.922   2.553  20.772  0.00  0.00    +0.000 S 
ATOM     35  C   UNL     1       2.885   3.286  19.210  0.00  0.00    +0.000 C 
ATOM     36  N   UNL     1       3.499   2.856  18.156  0.00  0.00    +0.000 NA
ENDBRANCH  27  29
ENDBRANCH   6  23
TORSDOF 5
ENDMDL
MODEL 2
REMARK VINA RESULT:      -9.4      7.635     11.801
REMARK  Name = 
REMARK  5 active torsions:
REMARK  status: ('A' for Active; 'I' for Inactive)
REMARK    1  A    between atoms: C_4  and  C_6
REMARK    2  A    between atoms: C_9  and  C_10
REMARK    3  A    between atoms: C_10  and  C_12
REMARK    4  A    between atoms: N_20  and  C_21
REMARK    5  A    between atoms: C_25  and  C_26
REMARK                            x       y       z     vdW  Elec       q    Type
REMARK                         _______ _______ _______ _____ _____    ______ ____
ROOT
ATOM      1  O   UNL     1      -0.023  10.081  23.651  0.00  0.00    +0.000 OA
ATOM      2  C   UNL     1       0.013  10.170  22.428  0.00  0.00    +0.000 C 
ATOM      3  N   UNL     1       0.736   9.217  21.736  0.00  0.00    +0.000 N 
ATOM      4  C   UNL     1       0.873   9.096  20.365  0.00  0.00    +0.000 C 
ATOM      5  O   UNL     1       0.347   9.865  19.561  0.00  0.00    +0.000 OA
ATOM      6  N   UNL     1      -0.566  11.140  21.651  0.00  0.00    +0.000 N 
ATOM      7  H   UNL     1       1.126   8.528  22.359  0.00  0.00    +0.000 HD
ATOM      8  H   UNL     1      -0.360  11.075  20.656  0.00  0.00    +0.000 HD
ENDROOT
BRANCH   4   9
ATOM      9  C   UNL     1       1.690   7.966  19.851  0.00  0.00    +0.000 A 
ATOM     10  C   UNL     1       1.670   6.778  20.586  0.00  0.00    +0.000 A 
ATOM     11  C   UNL     1       2.360   5.654  20.126  0.00  0.00    +0.000 A 
ATOM     12  C   UNL     1       3.072   5.706  18.923  0.00  0.00    +0.000 A 
ATOM     13  C   UNL     1       3.075   6.893  18.176  0.00  0.00    +0.000 A 
ATOM     14  C   UNL     1       2.395   8.024  18.639  0.00  0.00    +0.000 A 
BRANCH  12  15
ATOM     15  C   UNL     1       3.728   4.459  18.454  0.00  0.00    +0.000 C 
ATOM     16  O   UNL     1       3.274   3.380  18.825  0.00  0.00    +0.000 OA
BRANCH  15  17
ATOM     17  C   UNL     1       4.901   4.469  17.549  0.00  0.00    +0.000 A 
ATOM     18  C   UNL     1       4.690   4.189  16.192  0.00  0.00    +0.000 A 
ATOM     19  C   UNL     1       5.762   4.177  15.301  0.00  0.00    +0.000 A 
ATOM     20  C   UNL     1       7.053   4.433  15.763  0.00  0.00    +0.000 A 
ATOM     21  C   UNL     1       7.273   4.684  17.120  0.00  0.00    +0.000 A 
ATOM     22  C   UNL     1       6.202   4.690  18.015  0.00  0.00    +0.000 A 
ENDBRANCH  15  17
ENDBRANCH  12  15
ENDBRANCH   4   9
BRANCH   6  23
ATOM     23  C   UNL     1      -1.321  12.250  22.066  0.00  0.00    +0.000 A 
ATOM     24  C   UNL     1      -0.849  13.201  22.969  0.00  0.00    +0.000 A 
ATOM     25  C   UNL     1      -1.639  14.298  23.308  0.00  0.00    +0.000 A 
ATOM     26  C   UNL     1      -2.901  14.453  22.740  0.00  0.00    +0.000 A 
ATOM     27  C   UNL     1      -3.410  13.497  21.847  0.00  0.00    +0.000 A 
ATOM     28  C   UNL     1      -2.609  12.390  21.527  0.00  0.00    +0.000 A 
BRANCH  27  29
ATOM     29  C   UNL     1      -4.783  13.668  21.223  0.00  0.00    +0.000 C 
ATOM     30  C   UNL     1      -5.935  13.221  22.185  0.00  0.00    +0.000 C 
ATOM     31  N   UNL     1      -6.757  12.432  21.295  0.00  0.00    +0.000 N 
ATOM     32  C   UNL     1      -7.591  11.333  21.728  0.00  0.00    +0.000 C 
ATOM     33  C   UNL     1      -7.898  10.486  20.480  0.00  0.00    +0.000 C 
ATOM     34  S   UNL     1      -6.623  10.882  19.228  0.00  0.00    +0.000 S 
ATOM     35  C   UNL     1      -6.021  12.188  20.181  0.00  0.00    +0.000 C 
ATOM     36  N   UNL     1      -4.927  12.843  19.966  0.00  0.00    +0.000 NA
ENDBRANCH  27  29
ENDBRANCH   6  23
TORSDOF 5
ENDMDL
MODEL 3
REMARK VINA RESULT:      -9.0      6.904     11.783
REMARK  Name = 
REMARK  5 active torsions:
REMARK  status: ('A' for Active; 'I' for Inactive)
REMARK    1  A    between atoms: C_4  and  C_6
REMARK    2  A    between atoms: C_9  and  C_10
REMARK    3  A    between atoms: C_10  and  C_12
REMARK    4  A    between atoms: N_20  and  C_21
REMARK    5  A    between atoms: C_25  and  C_26
REMARK                            x       y       z     vdW  Elec       q    Type
REMARK                         _______ _______ _______ _____ _____    ______ ____
ROOT
ATOM      1  O   UNL     1       0.258   9.660  23.785  0.00  0.00    +0.000 OA
ATOM      2  C   UNL     1       0.372   9.776  22.568  0.00  0.00    +0.000 C 
ATOM      3  N   UNL     1       0.960   8.735  21.876  0.00  0.00    +0.000 N 
ATOM      4  C   UNL     1       1.146   8.632  20.509  0.00  0.00    +0.000 C 
ATOM      5  O   UNL     1       0.798   9.501  19.711  0.00  0.00    +0.000 OA
ATOM      6  N   UNL     1       0.004  10.852  21.802  0.00  0.00    +0.000 N 
ATOM      7  H   UNL     1       1.196   7.972  22.490  0.00  0.00    +0.000 HD
ATOM      8  H   UNL     1       0.248  10.781  20.815  0.00  0.00    +0.000 HD
ENDROOT
BRANCH   4   9
ATOM      9  C   UNL     1       1.788   7.396  19.992  0.00  0.00    +0.000 A 
ATOM     10  C   UNL     1       2.457   7.488  18.768  0.00  0.00    +0.000 A 
ATOM     11  C   UNL     1       3.142   6.384  18.256  0.00  0.00    +0.000 A 
ATOM     12  C   UNL     1       3.169   5.178  18.965  0.00  0.00    +0.000 A 
ATOM     13  C   UNL     1       2.514   5.093  20.202  0.00  0.00    +0.000 A 
ATOM     14  C   UNL     1       1.819   6.193  20.714  0.00  0.00    +0.000 A 
BRANCH  12  15
ATOM     15  C   UNL     1       3.969   4.063  18.399  0.00  0.00    +0.000 C 
ATOM     16  O   UNL     1       3.687   2.912  18.723  0.00  0.00    +0.000 OA
BRANCH  15  17
ATOM     17  C   UNL     1       5.086   4.285  17.450  0.00  0.00    +0.000 A 
ATOM     18  C   UNL     1       4.846   4.069  16.087  0.00  0.00    +0.000 A 
ATOM     19  C   UNL     1       5.867   4.255  15.155  0.00  0.00    +0.000 A 
ATOM     20  C   UNL     1       7.135   4.648  15.583  0.00  0.00    +0.000 A 
ATOM     21  C   UNL     1       7.387   4.836  16.944  0.00  0.00    +0.000 A 
ATOM     22  C   UNL     1       6.369   4.644  17.880  0.00  0.00    +0.000 A 
ENDBRANCH  15  17
ENDBRANCH  12  15
ENDBRANCH   4   9
BRANCH   6  23
ATOM     23  C   UNL     1      -0.575  12.061  22.222  0.00  0.00    +0.000 A 
ATOM     24  C   UNL     1      -1.757  12.129  22.956  0.00  0.00    +0.000 A 
ATOM     25  C   UNL     1      -2.255  13.362  23.371  0.00  0.00    +0.000 A 
ATOM     26  C   UNL     1      -1.569  14.534  23.060  0.00  0.00    +0.000 A 
ATOM     27  C   UNL     1      -0.389  14.496  22.300  0.00  0.00    +0.000 A 
ATOM     28  C   UNL     1       0.092  13.247  21.877  0.00  0.00    +0.000 A 
BRANCH  27  29
ATOM     29  C   UNL     1       0.362  15.771  21.965  0.00  0.00    +0.000 C 
ATOM     30  C   UNL     1      -0.305  16.567  20.794  0.00  0.00    +0.000 C 
ATOM     31  N   UNL     1       0.845  16.889  19.980  0.00  0.00    +0.000 N 
ATOM     32  C   UNL     1       0.791  17.084  18.547  0.00  0.00    +0.000 C 
ATOM     33  C   UNL     1       2.229  16.926  18.021  0.00  0.00    +0.000 C 
ATOM     34  S   UNL     1       3.171  15.995  19.284  0.00  0.00    +0.000 S 
ATOM     35  C   UNL     1       1.873  16.117  20.414  0.00  0.00    +0.000 C 
ATOM     36  N   UNL     1       1.782  15.481  21.536  0.00  0.00    +0.000 NA
ENDBRANCH  27  29
ENDBRANCH   6  23
TORSDOF 5
ENDMDL
MODEL 4
REMARK VINA RESULT:      -9.0      1.118      1.289
REMARK  Name = 
REMARK  5 active torsions:
REMARK  status: ('A' for Active; 'I' for Inactive)
REMARK    1  A    between atoms: C_4  and  C_6
REMARK    2  A    between atoms: C_9  and  C_10
REMARK    3  A    between atoms: C_10  and  C_12
REMARK    4  A    between atoms: N_20  and  C_21
REMARK    5  A    between atoms: C_25  and  C_26
REMARK                            x       y       z     vdW  Elec       q    Type
REMARK                         _______ _______ _______ _____ _____    ______ ____
ROOT
ATOM      1  O   UNL     1       8.308   5.925  19.186  0.00  0.00    +0.000 OA
ATOM      2  C   UNL     1       8.026   6.908  18.508  0.00  0.00    +0.000 C 
ATOM      3  N   UNL     1       8.588   8.119  18.867  0.00  0.00    +0.000 N 
ATOM      4  C   UNL     1       8.448   9.335  18.224  0.00  0.00    +0.000 C 
ATOM      5  O   UNL     1       7.769   9.491  17.210  0.00  0.00    +0.000 OA
ATOM      6  N   UNL     1       7.178   6.956  17.432  0.00  0.00    +0.000 N 
ATOM      7  H   UNL     1       9.208   8.017  19.655  0.00  0.00    +0.000 HD
ATOM      8  H   UNL     1       7.022   7.886  17.047  0.00  0.00    +0.000 HD
ENDROOT
BRANCH   4   9
ATOM      9  C   UNL     1       9.174  10.502  18.790  0.00  0.00    +0.000 A 
ATOM     10  C   UNL     1       9.374  11.599  17.947  0.00  0.00    +0.000 A 
ATOM     11  C   UNL     1       9.987  12.756  18.433  0.00  0.00    +0.000 A 
ATOM     12  C   UNL     1      10.401  12.829  19.767  0.00  0.00    +0.000 A 
ATOM     13  C   UNL     1      10.182  11.735  20.617  0.00  0.00    +0.000 A 
ATOM     14  C   UNL     1       9.578  10.571  20.132  0.00  0.00    +0.000 A 
BRANCH  12  15
ATOM     15  C   UNL     1      10.985  14.110  20.239  0.00  0.00    +0.000 C 
ATOM     16  O   UNL     1      12.150  14.369  19.947  0.00  0.00    +0.000 OA
BRANCH  15  17
ATOM     17  C   UNL     1      10.213  15.091  21.039  0.00  0.00    +0.000 A 
ATOM     18  C   UNL     1      10.100  16.398  20.548  0.00  0.00    +0.000 A 
ATOM     19  C   UNL     1       9.392  17.360  21.267  0.00  0.00    +0.000 A 
ATOM     20  C   UNL     1       8.803  17.023  22.486  0.00  0.00    +0.000 A 
ATOM     21  C   UNL     1       8.938  15.729  22.994  0.00  0.00    +0.000 A 
ATOM     22  C   UNL     1       9.652  14.766  22.279  0.00  0.00    +0.000 A 
ENDBRANCH  15  17
ENDBRANCH  12  15
ENDBRANCH   4   9
BRANCH   6  23
ATOM     23  C   UNL     1       6.436   5.907  16.863  0.00  0.00    +0.000 A 
ATOM     24  C   UNL     1       6.282   5.737  15.489  0.00  0.00    +0.000 A 
ATOM     25  C   UNL     1       5.562   4.652  14.993  0.00  0.00    +0.000 A 
ATOM     26  C   UNL     1       4.998   3.727  15.869  0.00  0.00    +0.000 A 
ATOM     27  C   UNL     1       5.118   3.888  17.259  0.00  0.00    +0.000 A 
ATOM     28  C   UNL     1       5.833   4.994  17.743  0.00  0.00    +0.000 A 
BRANCH  27  29
ATOM     29  C   UNL     1       4.510   2.879  18.215  0.00  0.00    +0.000 C 
ATOM     30  C   UNL     1       3.085   2.414  17.764  0.00  0.00    +0.000 C 
ATOM     31  N   UNL     1       2.352   2.499  19.007  0.00  0.00    +0.000 N 
ATOM     32  C   UNL     1       0.931   2.754  19.092  0.00  0.00    +0.000 C 
ATOM     33  C   UNL     1       0.649   3.237  20.526  0.00  0.00    +0.000 C 
ATOM     34  S   UNL     1       2.233   3.833  21.220  0.00  0.00    +0.000 S 
ATOM     35  C   UNL     1       3.115   3.213  19.873  0.00  0.00    +0.000 C 
ATOM     36  N   UNL     1       4.356   3.454  19.604  0.00  0.00    +0.000 NA
ENDBRANCH  27  29
ENDBRANCH   6  23
TORSDOF 5
ENDMDL
MODEL 5
REMARK VINA RESULT:      -8.9      8.426     11.826
REMARK  Name = 
REMARK  5 active torsions:
REMARK  status: ('A' for Active; 'I' for Inactive)
REMARK    1  A    between atoms: C_4  and  C_6
REMARK    2  A    between atoms: C_9  and  C_10
REMARK    3  A    between atoms: C_10  and  C_12
REMARK    4  A    between atoms: N_20  and  C_21
REMARK    5  A    between atoms: C_25  and  C_26
REMARK                            x       y       z     vdW  Elec       q    Type
REMARK                         _______ _______ _______ _____ _____    ______ ____
ROOT
ATOM      1  O   UNL     1      -0.611  10.776  23.536  0.00  0.00    +0.000 OA
ATOM      2  C   UNL     1      -0.556  10.926  22.319  0.00  0.00    +0.000 C 
ATOM      3  N   UNL     1       0.186  10.014  21.593  0.00  0.00    +0.000 N 
ATOM      4  C   UNL     1       0.346   9.961  20.220  0.00  0.00    +0.000 C 
ATOM      5  O   UNL     1      -0.172  10.765  19.447  0.00  0.00    +0.000 OA
ATOM      6  N   UNL     1      -1.130  11.929  21.581  0.00  0.00    +0.000 N 
ATOM      7  H   UNL     1       0.571   9.297  22.187  0.00  0.00    +0.000 HD
ATOM      8  H   UNL     1      -0.906  11.915  20.588  0.00  0.00    +0.000 HD
ENDROOT
BRANCH   4   9
ATOM      9  C   UNL     1       1.181   8.864  19.665  0.00  0.00    +0.000 A 
ATOM     10  C   UNL     1       1.687   9.039  18.373  0.00  0.00    +0.000 A 
ATOM     11  C   UNL     1       2.535   8.080  17.815  0.00  0.00    +0.000 A 
ATOM     12  C   UNL     1       2.889   6.940  18.543  0.00  0.00    +0.000 A 
ATOM     13  C   UNL     1       2.397   6.776  19.846  0.00  0.00    +0.000 A 
ATOM     14  C   UNL     1       1.539   7.728  20.406  0.00  0.00    +0.000 A 
BRANCH  12  15
ATOM     15  C   UNL     1       3.846   5.992  17.920  0.00  0.00    +0.000 C 
ATOM     16  O   UNL     1       3.402   5.064  17.247  0.00  0.00    +0.000 OA
BRANCH  15  17
ATOM     17  C   UNL     1       5.314   6.128  18.069  0.00  0.00    +0.000 A 
ATOM     18  C   UNL     1       5.937   5.441  19.120  0.00  0.00    +0.000 A 
ATOM     19  C   UNL     1       7.314   5.544  19.309  0.00  0.00    +0.000 A 
ATOM     20  C   UNL     1       8.075   6.343  18.455  0.00  0.00    +0.000 A 
ATOM     21  C   UNL     1       7.455   7.053  17.424  0.00  0.00    +0.000 A 
ATOM     22  C   UNL     1       6.075   6.957  17.237  0.00  0.00    +0.000 A 
ENDBRANCH  15  17
ENDBRANCH  12  15
ENDBRANCH   4   9
BRANCH   6  23
ATOM     23  C   UNL     1      -1.900  13.012  22.038  0.00  0.00    +0.000 A 
ATOM     24  C   UNL     1      -1.360  14.097  22.725  0.00  0.00    +0.000 A 
ATOM     25  C   UNL     1      -2.178  15.156  23.117  0.00  0.00    +0.000 A 
ATOM     26  C   UNL     1      -3.538  15.137  22.816  0.00  0.00    +0.000 A 
ATOM     27  C   UNL     1      -4.111  14.044  22.146  0.00  0.00    +0.000 A 
ATOM     28  C   UNL     1      -3.277  12.979  21.772  0.00  0.00    +0.000 A 
BRANCH  27  29
ATOM     29  C   UNL     1      -5.592  14.025  21.813  0.00  0.00    +0.000 C 
ATOM     30  C   UNL     1      -6.080  12.613  21.348  0.00  0.00    +0.000 C 
ATOM     31  N   UNL     1      -6.869  12.954  20.186  0.00  0.00    +0.000 N 
ATOM     32  C   UNL     1      -7.068  12.072  19.057  0.00  0.00    +0.000 C 
ATOM     33  C   UNL     1      -7.527  12.951  17.879  0.00  0.00    +0.000 C 
ATOM     34  S   UNL     1      -7.025  14.669  18.256  0.00  0.00    +0.000 S 
ATOM     35  C   UNL     1      -6.571  14.238  19.863  0.00  0.00    +0.000 C 
ATOM     36  N   UNL     1      -5.920  14.985  20.694  0.00  0.00    +0.000 NA
ENDBRANCH  27  29
ENDBRANCH   6  23
TORSDOF 5
ENDMDL
MODEL 6
REMARK VINA RESULT:      -8.8      7.046     11.263
REMARK  Name = 
REMARK  5 active torsions:
REMARK  status: ('A' for Active; 'I' for Inactive)
REMARK    1  A    between atoms: C_4  and  C_6
REMARK    2  A    between atoms: C_9  and  C_10
REMARK    3  A    between atoms: C_10  and  C_12
REMARK    4  A    between atoms: N_20  and  C_21
REMARK    5  A    between atoms: C_25  and  C_26
REMARK                            x       y       z     vdW  Elec       q    Type
REMARK                         _______ _______ _______ _____ _____    ______ ____
ROOT
ATOM      1  O   UNL     1       1.203  10.276  18.259  0.00  0.00    +0.000 OA
ATOM      2  C   UNL     1       1.578   9.243  18.804  0.00  0.00    +0.000 C 
ATOM      3  N   UNL     1       2.374   8.383  18.072  0.00  0.00    +0.000 N 
ATOM      4  C   UNL     1       2.945   7.197  18.496  0.00  0.00    +0.000 C 
ATOM      5  O   UNL     1       2.798   6.742  19.629  0.00  0.00    +0.000 OA
ATOM      6  N   UNL     1       1.271   8.816  20.070  0.00  0.00    +0.000 N 
ATOM      7  H   UNL     1       2.574   8.757  17.157  0.00  0.00    +0.000 HD
ATOM      8  H   UNL     1       1.626   7.893  20.311  0.00  0.00    +0.000 HD
ENDROOT
BRANCH   4   9
ATOM      9  C   UNL     1       3.787   6.451  17.525  0.00  0.00    +0.000 A 
ATOM     10  C   UNL     1       4.509   7.205  16.594  0.00  0.00    +0.000 A 
ATOM     11  C   UNL     1       5.373   6.575  15.697  0.00  0.00    +0.000 A 
ATOM     12  C   UNL     1       5.529   5.185  15.725  0.00  0.00    +0.000 A 
ATOM     13  C   UNL     1       4.820   4.431  16.672  0.00  0.00    +0.000 A 
ATOM     14  C   UNL     1       3.945   5.058  17.565  0.00  0.00    +0.000 A 
BRANCH  12  15
ATOM     15  C   UNL     1       6.513   4.582  14.790  0.00  0.00    +0.000 C 
ATOM     16  O   UNL     1       7.706   4.628  15.080  0.00  0.00    +0.000 OA
BRANCH  15  17
ATOM     17  C   UNL     1       6.109   3.918  13.529  0.00  0.00    +0.000 A 
ATOM     18  C   UNL     1       4.745   3.877  13.212  0.00  0.00    +0.000 A 
ATOM     19  C   UNL     1       4.312   3.256  12.041  0.00  0.00    +0.000 A 
ATOM     20  C   UNL     1       5.241   2.662  11.186  0.00  0.00    +0.000 A 
ATOM     21  C   UNL     1       6.599   2.674  11.511  0.00  0.00    +0.000 A 
ATOM     22  C   UNL     1       7.034   3.289  12.687  0.00  0.00    +0.000 A 
ENDBRANCH  15  17
ENDBRANCH  12  15
ENDBRANCH   4   9
BRANCH   6  23
ATOM     23  C   UNL     1       0.459   9.448  21.027  0.00  0.00    +0.000 A 
ATOM     24  C   UNL     1       0.406   9.056  22.363  0.00  0.00    +0.000 A 
ATOM     25  C   UNL     1      -0.395   9.752  23.266  0.00  0.00    +0.000 A 
ATOM     26  C   UNL     1      -1.141  10.848  22.839  0.00  0.00    +0.000 A 
ATOM     27  C   UNL     1      -1.125  11.248  21.494  0.00  0.00    +0.000 A 
ATOM     28  C   UNL     1      -0.325  10.529  20.593  0.00  0.00    +0.000 A 
BRANCH  27  29
ATOM     29  C   UNL     1      -1.933  12.446  21.028  0.00  0.00    +0.000 C 
ATOM     30  C   UNL     1      -3.042  12.853  22.055  0.00  0.00    +0.000 C 
ATOM     31  N   UNL     1      -4.180  13.039  21.184  0.00  0.00    +0.000 N 
ATOM     32  C   UNL     1      -5.553  12.847  21.597  0.00  0.00    +0.000 C 
ATOM     33  C   UNL     1      -6.385  12.668  20.314  0.00  0.00    +0.000 C 
ATOM     34  S   UNL     1      -5.230  12.176  18.983  0.00  0.00    +0.000 S 
ATOM     35  C   UNL     1      -3.861  12.489  19.985  0.00  0.00    +0.000 C 
ATOM     36  N   UNL     1      -2.638  12.164  19.722  0.00  0.00    +0.000 NA
ENDBRANCH  27  29
ENDBRANCH   6  23
TORSDOF 5
ENDMDL
MODEL 7
REMARK VINA RESULT:      -8.7      7.000     11.227
REMARK  Name = 
REMARK  5 active torsions:
REMARK  status: ('A' for Active; 'I' for Inactive)
REMARK    1  A    between atoms: C_4  and  C_6
REMARK    2  A    between atoms: C_9  and  C_10
REMARK    3  A    between atoms: C_10  and  C_12
REMARK    4  A    between atoms: N_20  and  C_21
REMARK    5  A    between atoms: C_25  and  C_26
REMARK                            x       y       z     vdW  Elec       q    Type
REMARK                         _______ _______ _______ _____ _____    ______ ____
ROOT
ATOM      1  O   UNL     1       1.133   7.963  21.886  0.00  0.00    +0.000 OA
ATOM      2  C   UNL     1       1.268   8.359  20.732  0.00  0.00    +0.000 C 
ATOM      3  N   UNL     1       2.094   7.633  19.896  0.00  0.00    +0.000 N 
ATOM      4  C   UNL     1       2.353   7.867  18.558  0.00  0.00    +0.000 C 
ATOM      5  O   UNL     1       1.858   8.798  17.925  0.00  0.00    +0.000 OA
ATOM      6  N   UNL     1       0.707   9.477  20.170  0.00  0.00    +0.000 N 
ATOM      7  H   UNL     1       2.465   6.820  20.362  0.00  0.00    +0.000 HD
ATOM      8  H   UNL     1       1.000   9.672  19.215  0.00  0.00    +0.000 HD
ENDROOT
BRANCH   4   9
ATOM      9  C   UNL     1       3.268   6.927  17.858  0.00  0.00    +0.000 A 
ATOM     10  C   UNL     1       3.061   5.561  18.068  0.00  0.00    +0.000 A 
ATOM     11  C   UNL     1       3.839   4.620  17.389  0.00  0.00    +0.000 A 
ATOM     12  C   UNL     1       4.827   5.036  16.491  0.00  0.00    +0.000 A 
ATOM     13  C   UNL     1       5.020   6.407  16.266  0.00  0.00    +0.000 A 
ATOM     14  C   UNL     1       4.251   7.353  16.952  0.00  0.00    +0.000 A 
BRANCH  12  15
ATOM     15  C   UNL     1       5.574   3.988  15.751  0.00  0.00    +0.000 C 
ATOM     16  O   UNL     1       5.671   2.870  16.252  0.00  0.00    +0.000 OA
BRANCH  15  17
ATOM     17  C   UNL     1       6.197   4.236  14.429  0.00  0.00    +0.000 A 
ATOM     18  C   UNL     1       5.691   3.542  13.322  0.00  0.00    +0.000 A 
ATOM     19  C   UNL     1       6.248   3.733  12.058  0.00  0.00    +0.000 A 
ATOM     20  C   UNL     1       7.320   4.610  11.896  0.00  0.00    +0.000 A 
ATOM     21  C   UNL     1       7.847   5.282  13.002  0.00  0.00    +0.000 A 
ATOM     22  C   UNL     1       7.296   5.088  14.270  0.00  0.00    +0.000 A 
ENDBRANCH  15  17
ENDBRANCH  12  15
ENDBRANCH   4   9
BRANCH   6  23
ATOM     23  C   UNL     1      -0.136  10.424  20.775  0.00  0.00    +0.000 A 
ATOM     24  C   UNL     1      -0.037  10.790  22.117  0.00  0.00    +0.000 A 
ATOM     25  C   UNL     1      -0.883  11.764  22.642  0.00  0.00    +0.000 A 
ATOM     26  C   UNL     1      -1.828  12.383  21.827  0.00  0.00    +0.000 A 
ATOM     27  C   UNL     1      -1.965  12.016  20.479  0.00  0.00    +0.000 A 
ATOM     28  C   UNL     1      -1.116  11.022  19.968  0.00  0.00    +0.000 A 
BRANCH  27  29
ATOM     29  C   UNL     1      -2.991  12.693  19.588  0.00  0.00    +0.000 C 
ATOM     30  C   UNL     1      -4.116  13.407  20.409  0.00  0.00    +0.000 C 
ATOM     31  N   UNL     1      -5.300  12.972  19.704  0.00  0.00    +0.000 N 
ATOM     32  C   UNL     1      -6.601  12.830  20.320  0.00  0.00    +0.000 C 
ATOM     33  C   UNL     1      -7.433  11.918  19.401  0.00  0.00    +0.000 C 
ATOM     34  S   UNL     1      -6.259  10.985  18.352  0.00  0.00    +0.000 S 
ATOM     35  C   UNL     1      -4.932  11.943  18.899  0.00  0.00    +0.000 C 
ATOM     36  N   UNL     1      -3.681  11.699  18.683  0.00  0.00    +0.000 NA
ENDBRANCH  27  29
ENDBRANCH   6  23
TORSDOF 5
ENDMDL
MODEL 8
REMARK VINA RESULT:      -8.7      8.628     12.156
REMARK  Name = 
REMARK  5 active torsions:
REMARK  status: ('A' for Active; 'I' for Inactive)
REMARK    1  A    between atoms: C_4  and  C_6
REMARK    2  A    between atoms: C_9  and  C_10
REMARK    3  A    between atoms: C_10  and  C_12
REMARK    4  A    between atoms: N_20  and  C_21
REMARK    5  A    between atoms: C_25  and  C_26
REMARK                            x       y       z     vdW  Elec       q    Type
REMARK                         _______ _______ _______ _____ _____    ______ ____
ROOT
ATOM      1  O   UNL     1      -0.483  13.539  20.307  0.00  0.00    +0.000 OA
ATOM      2  C   UNL     1      -0.646  12.428  20.800  0.00  0.00    +0.000 C 
ATOM      3  N   UNL     1       0.095  11.381  20.285  0.00  0.00    +0.000 N 
ATOM      4  C   UNL     1       0.107  10.067  20.715  0.00  0.00    +0.000 C 
ATOM      5  O   UNL     1      -0.579   9.653  21.649  0.00  0.00    +0.000 OA
ATOM      6  N   UNL     1      -1.515  12.087  21.804  0.00  0.00    +0.000 N 
ATOM      7  H   UNL     1       0.721  11.696  19.561  0.00  0.00    +0.000 HD
ATOM      8  H   UNL     1      -1.551  11.094  22.025  0.00  0.00    +0.000 HD
ENDROOT
BRANCH   4   9
ATOM      9  C   UNL     1       1.010   9.119  20.011  0.00  0.00    +0.000 A 
ATOM     10  C   UNL     1       1.400   7.972  20.709  0.00  0.00    +0.000 A 
ATOM     11  C   UNL     1       2.192   7.005  20.085  0.00  0.00    +0.000 A 
ATOM     12  C   UNL     1       2.597   7.173  18.757  0.00  0.00    +0.000 A 
ATOM     13  C   UNL     1       2.189   8.315  18.052  0.00  0.00    +0.000 A 
ATOM     14  C   UNL     1       1.405   9.291  18.676  0.00  0.00    +0.000 A 
BRANCH  12  15
ATOM     15  C   UNL     1       3.381   6.079  18.131  0.00  0.00    +0.000 C 
ATOM     16  O   UNL     1       2.778   5.177  17.555  0.00  0.00    +0.000 OA
BRANCH  15  17
ATOM     17  C   UNL     1       4.863   6.040  18.165  0.00  0.00    +0.000 A 
ATOM     18  C   UNL     1       5.563   6.698  17.146  0.00  0.00    +0.000 A 
ATOM     19  C   UNL     1       6.957   6.683  17.127  0.00  0.00    +0.000 A 
ATOM     20  C   UNL     1       7.658   6.002  18.123  0.00  0.00    +0.000 A 
ATOM     21  C   UNL     1       6.964   5.320  19.125  0.00  0.00    +0.000 A 
ATOM     22  C   UNL     1       5.568   5.328  19.142  0.00  0.00    +0.000 A 
ENDBRANCH  15  17
ENDBRANCH  12  15
ENDBRANCH   4   9
BRANCH   6  23
ATOM     23  C   UNL     1      -2.418  12.917  22.490  0.00  0.00    +0.000 A 
ATOM     24  C   UNL     1      -2.055  13.707  23.579  0.00  0.00    +0.000 A 
ATOM     25  C   UNL     1      -2.996  14.535  24.189  0.00  0.00    +0.000 A 
ATOM     26  C   UNL     1      -4.303  14.581  23.709  0.00  0.00    +0.000 A 
ATOM     27  C   UNL     1      -4.701  13.777  22.629  0.00  0.00    +0.000 A 
ATOM     28  C   UNL     1      -3.746  12.938  22.035  0.00  0.00    +0.000 A 
BRANCH  27  29
ATOM     29  C   UNL     1      -6.123  13.831  22.101  0.00  0.00    +0.000 C 
ATOM     30  C   UNL     1      -6.591  12.461  21.507  0.00  0.00    +0.000 C 
ATOM     31  N   UNL     1      -7.204  12.884  20.268  0.00  0.00    +0.000 N 
ATOM     32  C   UNL     1      -7.278  12.060  19.081  0.00  0.00    +0.000 C 
ATOM     33  C   UNL     1      -7.545  13.007  17.897  0.00  0.00    +0.000 C 
ATOM     34  S   UNL     1      -7.040  14.686  18.420  0.00  0.00    +0.000 S 
ATOM     35  C   UNL     1      -6.823  14.168  20.051  0.00  0.00    +0.000 C 
ATOM     36  N   UNL     1      -6.265  14.851  20.996  0.00  0.00    +0.000 NA
ENDBRANCH  27  29
ENDBRANCH   6  23
TORSDOF 5
ENDMDL
MODEL 9
REMARK VINA RESULT:      -8.7      6.706      8.158
REMARK  Name = 
REMARK  5 active torsions:
REMARK  status: ('A' for Active; 'I' for Inactive)
REMARK    1  A    between atoms: C_4  and  C_6
REMARK    2  A    between atoms: C_9  and  C_10
REMARK    3  A    between atoms: C_10  and  C_12
REMARK    4  A    between atoms: N_20  and  C_21
REMARK    5  A    between atoms: C_25  and  C_26
REMARK                            x       y       z     vdW  Elec       q    Type
REMARK                         _______ _______ _______ _____ _____    ______ ____
ROOT
ATOM      1  O   UNL     1       2.227   7.959  17.646  0.00  0.00    +0.000 OA
ATOM      2  C   UNL     1       1.873   8.340  18.757  0.00  0.00    +0.000 C 
ATOM      3  N   UNL     1       1.528   9.670  18.901  0.00  0.00    +0.000 N 
ATOM      4  C   UNL     1       1.060  10.300  20.039  0.00  0.00    +0.000 C 
ATOM      5  O   UNL     1       0.892   9.723  21.112  0.00  0.00    +0.000 OA
ATOM      6  N   UNL     1       1.804   7.593  19.905  0.00  0.00    +0.000 N 
ATOM      7  H   UNL     1       1.587  10.162  18.023  0.00  0.00    +0.000 HD
ATOM      8  H   UNL     1       1.553   8.113  20.743  0.00  0.00    +0.000 HD
ENDROOT
BRANCH   4   9
ATOM      9  C   UNL     1       0.733  11.747  19.942  0.00  0.00    +0.000 A 
ATOM     10  C   UNL     1       0.215  12.204  18.726  0.00  0.00    +0.000 A 
ATOM     11  C   UNL     1      -0.178  13.536  18.586  0.00  0.00    +0.000 A 
ATOM     12  C   UNL     1      -0.062  14.424  19.661  0.00  0.00    +0.000 A 
ATOM     13  C   UNL     1       0.439  13.959  20.886  0.00  0.00    +0.000 A 
ATOM     14  C   UNL     1       0.844  12.628  21.027  0.00  0.00    +0.000 A 
BRANCH  12  15
ATOM     15  C   UNL     1      -0.559  15.810  19.469  0.00  0.00    +0.000 C 
ATOM     16  O   UNL     1      -1.468  16.215  20.189  0.00  0.00    +0.000 OA
BRANCH  15  17
ATOM     17  C   UNL     1       0.007  16.724  18.449  0.00  0.00    +0.000 A 
ATOM     18  C   UNL     1       1.399  16.757  18.293  0.00  0.00    +0.000 A 
ATOM     19  C   UNL     1       1.981  17.608  17.354  0.00  0.00    +0.000 A 
ATOM     20  C   UNL     1       1.176  18.437  16.573  0.00  0.00    +0.000 A 
ATOM     21  C   UNL     1      -0.211  18.429  16.745  0.00  0.00    +0.000 A 
ATOM     22  C   UNL     1      -0.796  17.584  17.690  0.00  0.00    +0.000 A 
ENDBRANCH  15  17
ENDBRANCH  12  15
ENDBRANCH   4   9
BRANCH   6  23
ATOM     23  C   UNL     1       2.127   6.237  20.080  0.00  0.00    +0.000 A 
ATOM     24  C   UNL     1       1.323   5.344  20.786  0.00  0.00    +0.000 A 
ATOM     25  C   UNL     1       1.687   4.003  20.889  0.00  0.00    +0.000 A 
ATOM     26  C   UNL     1       2.853   3.546  20.280  0.00  0.00    +0.000 A 
ATOM     27  C   UNL     1       3.693   4.429  19.583  0.00  0.00    +0.000 A 
ATOM     28  C   UNL     1       3.321   5.779  19.501  0.00  0.00    +0.000 A 
BRANCH  27  29
ATOM     29  C   UNL     1       4.962   3.931  18.914  0.00  0.00    +0.000 C 
ATOM     30  C   UNL     1       6.048   5.051  18.787  0.00  0.00    +0.000 C 
ATOM     31  N   UNL     1       6.478   4.875  17.418  0.00  0.00    +0.000 N 
ATOM     32  C   UNL     1       7.003   5.941  16.593  0.00  0.00    +0.000 C 
ATOM     33  C   UNL     1       6.881   5.475  15.131  0.00  0.00    +0.000 C 
ATOM     34  S   UNL     1       5.624   4.145  15.087  0.00  0.00    +0.000 S 
ATOM     35  C   UNL     1       5.562   4.079  16.810  0.00  0.00    +0.000 C 
ATOM     36  N   UNL     1       4.690   3.433  17.513  0.00  0.00    +0.000 NA
ENDBRANCH  27  29
ENDBRANCH   6  23
TORSDOF 5
ENDMDL
