MODEL 1
REMARK VINA RESULT:      -8.9      0.000      0.000
REMARK  Name = 
REMARK  9 active torsions:
REMARK  status: ('A' for Active; 'I' for Inactive)
REMARK    1  A    between atoms: C_1  and  O_2
REMARK    2  A    between atoms: O_2  and  C_3
REMARK    3  A    between atoms: N_11  and  C_12
REMARK    4  A    between atoms: C_12  and  C_13
REMARK    5  A    between atoms: C_13  and  N_14
REMARK    6  A    between atoms: C_13  and  C_15
REMARK    7  A    between atoms: C_18  and  N_19
REMARK    8  A    between atoms: N_19  and  C_20
REMARK    9  A    between atoms: C_20  and  C_21
REMARK                            x       y       z     vdW  Elec       q    Type
REMARK                         _______ _______ _______ _____ _____    ______ ____
ROOT
ATOM      1  C   UNL     1       1.802   4.303  18.586  0.00  0.00    +0.000 C 
ATOM      2  C   UNL     1       2.334   5.639  18.039  0.00  0.00    +0.000 C 
ATOM      3  C   UNL     1       3.030   6.555  19.057  0.00  0.00    +0.000 C 
ATOM      4  C   UNL     1       2.379   6.539  20.454  0.00  0.00    +0.000 C 
ATOM      5  C   UNL     1       2.195   5.064  20.833  0.00  0.00    +0.000 C 
ATOM      6  O   UNL     1       1.267   4.467  19.919  0.00  0.00    +0.000 OA
ENDROOT
BRANCH   4   7
ATOM      7  N   UNL     1       1.094   7.270  20.402  0.00  0.00    +0.000 NA
ATOM      8  H   UNL     1       0.687   7.227  21.342  0.00  0.00    +0.000 HD
BRANCH   7   9
ATOM      9  C   UNL     1       1.282   8.701  20.113  0.00  0.00    +0.000 C 
BRANCH   9  10
ATOM     10  C   UNL     1       0.462   9.575  21.049  0.00  0.00    +0.000 A 
ATOM     11  C   UNL     1       0.275   9.210  22.381  0.00  0.00    +0.000 A 
ATOM     12  C   UNL     1      -0.550   9.988  23.188  0.00  0.00    +0.000 A 
ATOM     13  C   UNL     1      -1.203  11.073  22.629  0.00  0.00    +0.000 A 
ATOM     14  C   UNL     1      -0.905  11.413  21.316  0.00  0.00    +0.000 A 
ATOM     15  N   UNL     1      -0.071  10.708  20.528  0.00  0.00    +0.000 NA
ATOM     16  N   UNL     1      -1.494  12.548  20.764  0.00  0.00    +0.000 N 
ATOM     17  C   UNL     1      -2.692  12.985  21.258  0.00  0.00    +0.000 C 
ATOM     18  O   UNL     1      -3.425  13.739  20.623  0.00  0.00    +0.000 OA
ATOM     19  C   UNL     1      -3.054  12.462  22.646  0.00  0.00    +0.000 C 
ATOM     20  O   UNL     1      -2.051  11.801  23.412  0.00  0.00    +0.000 OA
ATOM     21  H   UNL     1      -0.819  13.302  20.686  0.00  0.00    +0.000 HD
ENDBRANCH   9  10
ENDBRANCH   7   9
ENDBRANCH   4   7
BRANCH   1  22
ATOM     22  C   UNL     1       2.731   3.046  18.589  0.00  0.00    +0.000 C 
BRANCH  22  23
ATOM     23  N   UNL     1       1.844   1.846  18.690  0.00  0.00    +0.000 NA
ATOM     24  H   UNL     1       0.899   2.117  18.403  0.00  0.00    +0.000 HD
ATOM     25  H   UNL     1       1.736   1.648  19.691  0.00  0.00    +0.000 HD
ENDBRANCH  22  23
BRANCH  22  26
ATOM     26  C   UNL     1       3.712   2.929  17.394  0.00  0.00    +0.000 C 
BRANCH  26  35
ATOM     27  C   UNL     1       6.043   4.132  14.153  0.00  0.00    +0.000 A 
ATOM     28  C   UNL     1       7.074   5.054  14.308  0.00  0.00    +0.000 A 
ATOM     29  N   UNL     1       7.430   5.555  15.518  0.00  0.00    +0.000 NA
ATOM     30  C   UNL     1       6.697   5.078  16.559  0.00  0.00    +0.000 A 
ATOM     31  C   UNL     1       7.086   5.543  17.883  0.00  0.00    +0.000 A 
ATOM     32  C   UNL     1       6.487   5.002  18.961  0.00  0.00    +0.000 A 
ATOM     33  C   UNL     1       5.424   3.977  18.839  0.00  0.00    +0.000 A 
ATOM     34  O   UNL     1       5.008   3.448  19.867  0.00  0.00    +0.000 OA
ATOM     35  N   UNL     1       4.960   3.686  17.569  0.00  0.00    +0.000 N 
ATOM     36  C   UNL     1       5.656   4.148  16.407  0.00  0.00    +0.000 A 
ATOM     37  N   UNL     1       5.310   3.673  15.195  0.00  0.00    +0.000 NA
BRANCH  27  39
ATOM     38  C   UNL     1       6.938   3.798  12.030  0.00  0.00    +0.000 C 
ATOM     39  O   UNL     1       5.806   3.651  12.889  0.00  0.00    +0.000 OA
ENDBRANCH  27  39
ENDBRANCH  26  35
ENDBRANCH  22  26
ENDBRANCH   1  22
TORSDOF 8
ENDMDL
MODEL 2
REMARK VINA RESULT:      -8.8      1.782      2.135
REMARK  Name = 
REMARK  9 active torsions:
REMARK  status: ('A' for Active; 'I' for Inactive)
REMARK    1  A    between atoms: C_1  and  O_2
REMARK    2  A    between atoms: O_2  and  C_3
REMARK    3  A    between atoms: N_11  and  C_12
REMARK    4  A    between atoms: C_12  and  C_13
REMARK    5  A    between atoms: C_13  and  N_14
REMARK    6  A    between atoms: C_13  and  C_15
REMARK    7  A    between atoms: C_18  and  N_19
REMARK    8  A    between atoms: N_19  and  C_20
REMARK    9  A    between atoms: C_20  and  C_21
REMARK                            x       y       z     vdW  Elec       q    Type
REMARK                         _______ _______ _______ _____ _____    ______ ____
ROOT
ATOM      1  C   UNL     1       1.883   4.341  18.445  0.00  0.00    +0.000 C 
ATOM      2  C   UNL     1       2.324   5.722  17.928  0.00  0.00    +0.000 C 
ATOM      3  C   UNL     1       3.039   6.624  18.944  0.00  0.00    +0.000 C 
ATOM      4  C   UNL     1       2.476   6.520  20.374  0.00  0.00    +0.000 C 
ATOM      5  C   UNL     1       2.379   5.023  20.697  0.00  0.00    +0.000 C 
ATOM      6  O   UNL     1       1.423   4.424  19.813  0.00  0.00    +0.000 OA
ENDROOT
BRANCH   4   7
ATOM      7  N   UNL     1       1.160   7.193  20.430  0.00  0.00    +0.000 NA
ATOM      8  H   UNL     1       0.521   6.561  20.923  0.00  0.00    +0.000 HD
BRANCH   7   9
ATOM      9  C   UNL     1       1.202   8.426  21.235  0.00  0.00    +0.000 C 
BRANCH   9  10
ATOM     10  C   UNL     1       0.341   9.522  20.628  0.00  0.00    +0.000 A 
ATOM     11  C   UNL     1      -0.206  10.523  21.429  0.00  0.00    +0.000 A 
ATOM     12  C   UNL     1      -1.058  11.462  20.855  0.00  0.00    +0.000 A 
ATOM     13  C   UNL     1      -1.379  11.343  19.514  0.00  0.00    +0.000 A 
ATOM     14  C   UNL     1      -0.734  10.364  18.769  0.00  0.00    +0.000 A 
ATOM     15  N   UNL     1       0.134   9.475  19.288  0.00  0.00    +0.000 NA
ATOM     16  N   UNL     1      -0.987  10.282  17.401  0.00  0.00    +0.000 N 
ATOM     17  C   UNL     1      -2.180  10.743  16.916  0.00  0.00    +0.000 C 
ATOM     18  O   UNL     1      -2.615  10.401  15.819  0.00  0.00    +0.000 OA
ATOM     19  C   UNL     1      -2.933  11.700  17.837  0.00  0.00    +0.000 C 
ATOM     20  O   UNL     1      -2.255  12.235  18.969  0.00  0.00    +0.000 OA
ATOM     21  H   UNL     1      -0.200  10.635  16.869  0.00  0.00    +0.000 HD
ENDBRANCH   9  10
ENDBRANCH   7   9
ENDBRANCH   4   7
BRANCH   1  22
ATOM     22  C   UNL     1       2.863   3.128  18.338  0.00  0.00    +0.000 C 
BRANCH  22  23
ATOM     23  N   UNL     1       2.033   1.886  18.413  0.00  0.00    +0.000 NA
ATOM     24  H   UNL     1       2.629   1.085  18.186  0.00  0.00    +0.000 HD
ATOM     25  H   UNL     1       1.382   1.924  17.620  0.00  0.00    +0.000 HD
ENDBRANCH  22  23
BRANCH  22  26
ATOM     26  C   UNL     1       3.791   3.119  17.094  0.00  0.00    +0.000 C 
BRANCH  26  35
ATOM     27  C   UNL     1       6.245   4.171  13.893  0.00  0.00    +0.000 A 
ATOM     28  C   UNL     1       7.297   5.067  14.054  0.00  0.00    +0.000 A 
ATOM     29  N   UNL     1       7.635   5.587  15.261  0.00  0.00    +0.000 NA
ATOM     30  C   UNL     1       6.859   5.159  16.292  0.00  0.00    +0.000 A 
ATOM     31  C   UNL     1       7.225   5.646  17.615  0.00  0.00    +0.000 A 
ATOM     32  C   UNL     1       6.580   5.150  18.689  0.00  0.00    +0.000 A 
ATOM     33  C   UNL     1       5.492   4.153  18.561  0.00  0.00    +0.000 A 
ATOM     34  O   UNL     1       5.032   3.662  19.590  0.00  0.00    +0.000 OA
ATOM     35  N   UNL     1       5.054   3.844  17.287  0.00  0.00    +0.000 N 
ATOM     36  C   UNL     1       5.796   4.255  16.133  0.00  0.00    +0.000 A 
ATOM     37  N   UNL     1       5.469   3.760  14.924  0.00  0.00    +0.000 NA
BRANCH  27  39
ATOM     38  C   UNL     1       4.651   3.371  12.395  0.00  0.00    +0.000 C 
ATOM     39  O   UNL     1       6.029   3.665  12.634  0.00  0.00    +0.000 OA
ENDBRANCH  27  39
ENDBRANCH  26  35
ENDBRANCH  22  26
ENDBRANCH   1  22
TORSDOF 8
ENDMDL
MODEL 3
REMARK VINA RESULT:      -8.7      2.591      9.976
REMARK  Name = 
REMARK  9 active torsions:
REMARK  status: ('A' for Active; 'I' for Inactive)
REMARK    1  A    between atoms: C_1  and  O_2
REMARK    2  A    between atoms: O_2  and  C_3
REMARK    3  A    between atoms: N_11  and  C_12
REMARK    4  A    between atoms: C_12  and  C_13
REMARK    5  A    between atoms: C_13  and  N_14
REMARK    6  A    between atoms: C_13  and  C_15
REMARK    7  A    between atoms: C_18  and  N_19
REMARK    8  A    between atoms: N_19  and  C_20
REMARK    9  A    between atoms: C_20  and  C_21
REMARK                            x       y       z     vdW  Elec       q    Type
REMARK                         _______ _______ _______ _____ _____    ______ ____
ROOT
ATOM      1  C   UNL     1       2.250   7.630  19.932  0.00  0.00    +0.000 C 
ATOM      2  C   UNL     1       2.741   7.113  18.568  0.00  0.00    +0.000 C 
ATOM      3  C   UNL     1       2.136   5.784  18.094  0.00  0.00    +0.000 C 
ATOM      4  C   UNL     1       1.907   4.765  19.227  0.00  0.00    +0.000 C 
ATOM      5  C   UNL     1       1.180   5.517  20.350  0.00  0.00    +0.000 C 
ATOM      6  O   UNL     1       2.050   6.537  20.857  0.00  0.00    +0.000 OA
ENDROOT
BRANCH   4   7
ATOM      7  N   UNL     1       3.211   4.223  19.667  0.00  0.00    +0.000 NA
ATOM      8  H   UNL     1       3.049   3.738  20.556  0.00  0.00    +0.000 HD
BRANCH   7   9
ATOM      9  C   UNL     1       3.726   3.200  18.742  0.00  0.00    +0.000 C 
BRANCH   9  10
ATOM     10  C   UNL     1       4.865   3.736  17.889  0.00  0.00    +0.000 A 
ATOM     11  C   UNL     1       5.706   4.736  18.373  0.00  0.00    +0.000 A 
ATOM     12  C   UNL     1       6.685   5.263  17.537  0.00  0.00    +0.000 A 
ATOM     13  C   UNL     1       6.760   4.815  16.228  0.00  0.00    +0.000 A 
ATOM     14  C   UNL     1       5.936   3.765  15.846  0.00  0.00    +0.000 A 
ATOM     15  N   UNL     1       5.015   3.201  16.651  0.00  0.00    +0.000 NA
ATOM     16  N   UNL     1       6.054   3.251  14.557  0.00  0.00    +0.000 N 
ATOM     17  C   UNL     1       6.532   4.055  13.560  0.00  0.00    +0.000 C 
ATOM     18  O   UNL     1       6.345   3.805  12.372  0.00  0.00    +0.000 OA
ATOM     19  C   UNL     1       7.304   5.287  14.029  0.00  0.00    +0.000 C 
ATOM     20  O   UNL     1       7.688   5.374  15.398  0.00  0.00    +0.000 OA
ATOM     21  H   UNL     1       6.518   2.349  14.571  0.00  0.00    +0.000 HD
ENDBRANCH   9  10
ENDBRANCH   7   9
ENDBRANCH   4   7
BRANCH   1  22
ATOM     22  C   UNL     1       0.993   8.556  19.999  0.00  0.00    +0.000 C 
BRANCH  22  23
ATOM     23  N   UNL     1       0.734   8.840  21.444  0.00  0.00    +0.000 NA
ATOM     24  H   UNL     1       1.143   9.750  21.674  0.00  0.00    +0.000 HD
ATOM     25  H   UNL     1       1.315   8.183  21.977  0.00  0.00    +0.000 HD
ENDBRANCH  22  23
BRANCH  22  26
ATOM     26  C   UNL     1       1.074   9.863  19.168  0.00  0.00    +0.000 C 
BRANCH  26  35
ATOM     27  C   UNL     1      -2.383  10.263  16.871  0.00  0.00    +0.000 A 
ATOM     28  C   UNL     1      -3.469  11.005  17.325  0.00  0.00    +0.000 A 
ATOM     29  N   UNL     1      -3.443  11.699  18.491  0.00  0.00    +0.000 NA
ATOM     30  C   UNL     1      -2.270  11.606  19.172  0.00  0.00    +0.000 A 
ATOM     31  C   UNL     1      -2.178  12.385  20.399  0.00  0.00    +0.000 A 
ATOM     32  C   UNL     1      -0.997  12.441  21.044  0.00  0.00    +0.000 A 
ATOM     33  C   UNL     1       0.198  11.709  20.561  0.00  0.00    +0.000 A 
ATOM     34  O   UNL     1       1.266  11.902  21.136  0.00  0.00    +0.000 OA
ATOM     35  N   UNL     1       0.030  10.845  19.495  0.00  0.00    +0.000 N 
ATOM     36  C   UNL     1      -1.172  10.858  18.718  0.00  0.00    +0.000 A 
ATOM     37  N   UNL     1      -1.223  10.166  17.564  0.00  0.00    +0.000 NA
BRANCH  27  39
ATOM     38  C   UNL     1      -3.543  10.212  14.853  0.00  0.00    +0.000 C 
ATOM     39  O   UNL     1      -2.501   9.646  15.650  0.00  0.00    +0.000 OA
ENDBRANCH  27  39
ENDBRANCH  26  35
ENDBRANCH  22  26
ENDBRANCH   1  22
TORSDOF 8
ENDMDL
MODEL 4
REMARK VINA RESULT:      -8.6      1.035      1.509
REMARK  Name = 
REMARK  9 active torsions:
REMARK  status: ('A' for Active; 'I' for Inactive)
REMARK    1  A    between atoms: C_1  and  O_2
REMARK    2  A    between atoms: O_2  and  C_3
REMARK    3  A    between atoms: N_11  and  C_12
REMARK    4  A    between atoms: C_12  and  C_13
REMARK    5  A    between atoms: C_13  and  N_14
REMARK    6  A    between atoms: C_13  and  C_15
REMARK    7  A    between atoms: C_18  and  N_19
REMARK    8  A    between atoms: N_19  and  C_20
REMARK    9  A    between atoms: C_20  and  C_21
REMARK                            x       y       z     vdW  Elec       q    Type
REMARK                         _______ _______ _______ _____ _____    ______ ____
ROOT
ATOM      1  C   UNL     1       1.818   4.338  18.541  0.00  0.00    +0.000 C 
ATOM      2  C   UNL     1       2.233   5.524  17.654  0.00  0.00    +0.000 C 
ATOM      3  C   UNL     1       3.069   6.617  18.336  0.00  0.00    +0.000 C 
ATOM      4  C   UNL     1       2.654   6.898  19.793  0.00  0.00    +0.000 C 
ATOM      5  C   UNL     1       2.558   5.536  20.491  0.00  0.00    +0.000 C 
ATOM      6  O   UNL     1       1.503   4.781  19.881  0.00  0.00    +0.000 OA
ENDROOT
BRANCH   4   7
ATOM      7  N   UNL     1       1.366   7.626  19.802  0.00  0.00    +0.000 NA
ATOM      8  H   UNL     1       0.625   6.925  19.694  0.00  0.00    +0.000 HD
BRANCH   7   9
ATOM      9  C   UNL     1       1.109   8.284  21.093  0.00  0.00    +0.000 C 
BRANCH   9  10
ATOM     10  C   UNL     1       0.276   9.545  20.925  0.00  0.00    +0.000 A 
ATOM     11  C   UNL     1      -0.095   9.989  19.657  0.00  0.00    +0.000 A 
ATOM     12  C   UNL     1      -0.784  11.191  19.535  0.00  0.00    +0.000 A 
ATOM     13  C   UNL     1      -1.035  11.939  20.673  0.00  0.00    +0.000 A 
ATOM     14  C   UNL     1      -0.700  11.391  21.904  0.00  0.00    +0.000 A 
ATOM     15  N   UNL     1      -0.079  10.206  22.055  0.00  0.00    +0.000 NA
ATOM     16  N   UNL     1      -1.017  12.095  23.064  0.00  0.00    +0.000 N 
ATOM     17  C   UNL     1      -1.138  13.456  23.005  0.00  0.00    +0.000 C 
ATOM     18  O   UNL     1      -1.069  14.163  24.007  0.00  0.00    +0.000 OA
ATOM     19  C   UNL     1      -1.353  14.032  21.606  0.00  0.00    +0.000 C 
ATOM     20  O   UNL     1      -1.666  13.141  20.540  0.00  0.00    +0.000 OA
ATOM     21  H   UNL     1      -1.803  11.666  23.541  0.00  0.00    +0.000 HD
ENDBRANCH   9  10
ENDBRANCH   7   9
ENDBRANCH   4   7
BRANCH   1  22
ATOM     22  C   UNL     1       2.755   3.092  18.652  0.00  0.00    +0.000 C 
BRANCH  22  23
ATOM     23  N   UNL     1       1.874   1.895  18.817  0.00  0.00    +0.000 NA
ATOM     24  H   UNL     1       2.408   1.163  19.293  0.00  0.00    +0.000 HD
ATOM     25  H   UNL     1       1.733   1.507  17.877  0.00  0.00    +0.000 HD
ENDBRANCH  22  23
BRANCH  22  26
ATOM     26  C   UNL     1       3.762   2.901  17.488  0.00  0.00    +0.000 C 
BRANCH  26  35
ATOM     27  C   UNL     1       5.994   4.129  14.187  0.00  0.00    +0.000 A 
ATOM     28  C   UNL     1       7.005   5.076  14.312  0.00  0.00    +0.000 A 
ATOM     29  N   UNL     1       7.376   5.596  15.509  0.00  0.00    +0.000 NA
ATOM     30  C   UNL     1       6.676   5.112  16.570  0.00  0.00    +0.000 A 
ATOM     31  C   UNL     1       7.083   5.598  17.881  0.00  0.00    +0.000 A 
ATOM     32  C   UNL     1       6.520   5.053  18.977  0.00  0.00    +0.000 A 
ATOM     33  C   UNL     1       5.479   4.001  18.886  0.00  0.00    +0.000 A 
ATOM     34  O   UNL     1       5.098   3.472  19.928  0.00  0.00    +0.000 OA
ATOM     35  N   UNL     1       4.995   3.689  17.630  0.00  0.00    +0.000 N 
ATOM     36  C   UNL     1       5.655   4.156  16.449  0.00  0.00    +0.000 A 
ATOM     37  N   UNL     1       5.294   3.662  15.249  0.00  0.00    +0.000 NA
BRANCH  27  39
ATOM     38  C   UNL     1       6.893   3.675  12.088  0.00  0.00    +0.000 C 
ATOM     39  O   UNL     1       5.741   3.631  12.933  0.00  0.00    +0.000 OA
ENDBRANCH  27  39
ENDBRANCH  26  35
ENDBRANCH  22  26
ENDBRANCH   1  22
TORSDOF 8
ENDMDL
MODEL 5
REMARK VINA RESULT:      -8.6      1.074      1.214
REMARK  Name = 
REMARK  9 active torsions:
REMARK  status: ('A' for Active; 'I' for Inactive)
REMARK    1  A    between atoms: C_1  and  O_2
REMARK    2  A    between atoms: O_2  and  C_3
REMARK    3  A    between atoms: N_11  and  C_12
REMARK    4  A    between atoms: C_12  and  C_13
REMARK    5  A    between atoms: C_13  and  N_14
REMARK    6  A    between atoms: C_13  and  C_15
REMARK    7  A    between atoms: C_18  and  N_19
REMARK    8  A    between atoms: N_19  and  C_20
REMARK    9  A    between atoms: C_20  and  C_21
REMARK                            x       y       z     vdW  Elec       q    Type
REMARK                         _______ _______ _______ _____ _____    ______ ____
ROOT
ATOM      1  C   UNL     1       1.821   4.369  18.572  0.00  0.00    +0.000 C 
ATOM      2  C   UNL     1       2.236   5.627  17.790  0.00  0.00    +0.000 C 
ATOM      3  C   UNL     1       3.039   6.675  18.575  0.00  0.00    +0.000 C 
ATOM      4  C   UNL     1       2.587   6.835  20.039  0.00  0.00    +0.000 C 
ATOM      5  C   UNL     1       2.498   5.421  20.626  0.00  0.00    +0.000 C 
ATOM      6  O   UNL     1       1.470   4.701  19.935  0.00  0.00    +0.000 OA
ENDROOT
BRANCH   4   7
ATOM      7  N   UNL     1       1.288   7.541  20.074  0.00  0.00    +0.000 NA
ATOM      8  H   UNL     1       0.594   6.913  19.656  0.00  0.00    +0.000 HD
BRANCH   7   9
ATOM      9  C   UNL     1       0.827   7.786  21.451  0.00  0.00    +0.000 C 
BRANCH   9  10
ATOM     10  C   UNL     1       0.369   9.224  21.642  0.00  0.00    +0.000 A 
ATOM     11  C   UNL     1      -0.377   9.589  22.761  0.00  0.00    +0.000 A 
ATOM     12  C   UNL     1      -0.853  10.893  22.863  0.00  0.00    +0.000 A 
ATOM     13  C   UNL     1      -0.614  11.776  21.823  0.00  0.00    +0.000 A 
ATOM     14  C   UNL     1       0.200  11.356  20.780  0.00  0.00    +0.000 A 
ATOM     15  N   UNL     1       0.716  10.116  20.681  0.00  0.00    +0.000 NA
ATOM     16  N   UNL     1       0.513  12.258  19.766  0.00  0.00    +0.000 N 
ATOM     17  C   UNL     1      -0.344  13.290  19.503  0.00  0.00    +0.000 C 
ATOM     18  O   UNL     1      -0.325  13.902  18.438  0.00  0.00    +0.000 OA
ATOM     19  C   UNL     1      -1.330  13.620  20.623  0.00  0.00    +0.000 C 
ATOM     20  O   UNL     1      -1.127  13.037  21.906  0.00  0.00    +0.000 OA
ATOM     21  H   UNL     1       1.473  12.575  19.851  0.00  0.00    +0.000 HD
ENDBRANCH   9  10
ENDBRANCH   7   9
ENDBRANCH   4   7
BRANCH   1  22
ATOM     22  C   UNL     1       2.775   3.132  18.607  0.00  0.00    +0.000 C 
BRANCH  22  23
ATOM     23  N   UNL     1       1.914   1.918  18.754  0.00  0.00    +0.000 NA
ATOM     24  H   UNL     1       1.000   2.211  19.108  0.00  0.00    +0.000 HD
ATOM     25  H   UNL     1       2.305   1.379  19.536  0.00  0.00    +0.000 HD
ENDBRANCH  22  23
BRANCH  22  26
ATOM     26  C   UNL     1       3.748   2.997  17.406  0.00  0.00    +0.000 C 
BRANCH  26  35
ATOM     27  C   UNL     1       6.104   4.094  14.146  0.00  0.00    +0.000 A 
ATOM     28  C   UNL     1       7.145   5.008  14.283  0.00  0.00    +0.000 A 
ATOM     29  N   UNL     1       7.503   5.533  15.481  0.00  0.00    +0.000 NA
ATOM     30  C   UNL     1       6.761   5.090  16.531  0.00  0.00    +0.000 A 
ATOM     31  C   UNL     1       7.151   5.582  17.845  0.00  0.00    +0.000 A 
ATOM     32  C   UNL     1       6.542   5.074  18.934  0.00  0.00    +0.000 A 
ATOM     33  C   UNL     1       5.468   4.058  18.832  0.00  0.00    +0.000 A 
ATOM     34  O   UNL     1       5.042   3.559  19.871  0.00  0.00    +0.000 OA
ATOM     35  N   UNL     1       5.004   3.743  17.568  0.00  0.00    +0.000 N 
ATOM     36  C   UNL     1       5.710   4.168  16.397  0.00  0.00    +0.000 A 
ATOM     37  N   UNL     1       5.361   3.669  15.196  0.00  0.00    +0.000 NA
BRANCH  27  39
ATOM     38  C   UNL     1       6.938   3.848  11.986  0.00  0.00    +0.000 C 
ATOM     39  O   UNL     1       5.865   3.586  12.893  0.00  0.00    +0.000 OA
ENDBRANCH  27  39
ENDBRANCH  26  35
ENDBRANCH  22  26
ENDBRANCH   1  22
TORSDOF 8
ENDMDL
MODEL 6
REMARK VINA RESULT:      -8.6      1.239      1.812
REMARK  Name = 
REMARK  9 active torsions:
REMARK  status: ('A' for Active; 'I' for Inactive)
REMARK    1  A    between atoms: C_1  and  O_2
REMARK    2  A    between atoms: O_2  and  C_3
REMARK    3  A    between atoms: N_11  and  C_12
REMARK    4  A    between atoms: C_12  and  C_13
REMARK    5  A    between atoms: C_13  and  N_14
REMARK    6  A    between atoms: C_13  and  C_15
REMARK    7  A    between atoms: C_18  and  N_19
REMARK    8  A    between atoms: N_19  and  C_20
REMARK    9  A    between atoms: C_20  and  C_21
REMARK                            x       y       z     vdW  Elec       q    Type
REMARK                         _______ _______ _______ _____ _____    ______ ____
ROOT
ATOM      1  C   UNL     1       1.726   4.225  18.676  0.00  0.00    +0.000 C 
ATOM      2  C   UNL     1       2.199   5.602  18.178  0.00  0.00    +0.000 C 
ATOM      3  C   UNL     1       2.878   6.499  19.223  0.00  0.00    +0.000 C 
ATOM      4  C   UNL     1       2.254   6.400  20.628  0.00  0.00    +0.000 C 
ATOM      5  C   UNL     1       2.131   4.904  20.946  0.00  0.00    +0.000 C 
ATOM      6  O   UNL     1       1.209   4.312  20.023  0.00  0.00    +0.000 OA
ENDROOT
BRANCH   4   7
ATOM      7  N   UNL     1       0.943   7.084  20.629  0.00  0.00    +0.000 NA
ATOM      8  H   UNL     1       0.293   6.485  21.149  0.00  0.00    +0.000 HD
BRANCH   7   9
ATOM      9  C   UNL     1       0.984   8.360  21.360  0.00  0.00    +0.000 C 
BRANCH   9  10
ATOM     10  C   UNL     1       0.584   9.529  20.474  0.00  0.00    +0.000 A 
ATOM     11  C   UNL     1       1.096   9.652  19.184  0.00  0.00    +0.000 A 
ATOM     12  C   UNL     1       0.776  10.777  18.430  0.00  0.00    +0.000 A 
ATOM     13  C   UNL     1      -0.000  11.769  19.006  0.00  0.00    +0.000 A 
ATOM     14  C   UNL     1      -0.533  11.537  20.267  0.00  0.00    +0.000 A 
ATOM     15  N   UNL     1      -0.281  10.434  20.997  0.00  0.00    +0.000 NA
ATOM     16  N   UNL     1      -1.379  12.491  20.826  0.00  0.00    +0.000 N 
ATOM     17  C   UNL     1      -1.263  13.796  20.435  0.00  0.00    +0.000 C 
ATOM     18  O   UNL     1      -1.710  14.723  21.107  0.00  0.00    +0.000 OA
ATOM     19  C   UNL     1      -0.533  14.018  19.112  0.00  0.00    +0.000 C 
ATOM     20  O   UNL     1      -0.267  12.894  18.280  0.00  0.00    +0.000 OA
ATOM     21  H   UNL     1      -2.342  12.174  20.805  0.00  0.00    +0.000 HD
ENDBRANCH   9  10
ENDBRANCH   7   9
ENDBRANCH   4   7
BRANCH   1  22
ATOM     22  C   UNL     1       2.700   3.004  18.610  0.00  0.00    +0.000 C 
BRANCH  22  23
ATOM     23  N   UNL     1       1.863   1.769  18.715  0.00  0.00    +0.000 NA
ATOM     24  H   UNL     1       2.253   1.176  19.452  0.00  0.00    +0.000 HD
ATOM     25  H   UNL     1       2.038   1.227  17.862  0.00  0.00    +0.000 HD
ENDBRANCH  22  23
BRANCH  22  26
ATOM     26  C   UNL     1       3.635   2.954  17.374  0.00  0.00    +0.000 C 
BRANCH  26  35
ATOM     27  C   UNL     1       5.966   4.151  14.131  0.00  0.00    +0.000 A 
ATOM     28  C   UNL     1       7.014   5.054  14.290  0.00  0.00    +0.000 A 
ATOM     29  N   UNL     1       7.387   5.534  15.502  0.00  0.00    +0.000 NA
ATOM     30  C   UNL     1       6.651   5.059  16.543  0.00  0.00    +0.000 A 
ATOM     31  C   UNL     1       7.058   5.503  17.869  0.00  0.00    +0.000 A 
ATOM     32  C   UNL     1       6.456   4.960  18.946  0.00  0.00    +0.000 A 
ATOM     33  C   UNL     1       5.375   3.955  18.819  0.00  0.00    +0.000 A 
ATOM     34  O   UNL     1       4.956   3.422  19.844  0.00  0.00    +0.000 OA
ATOM     35  N   UNL     1       4.897   3.687  17.550  0.00  0.00    +0.000 N 
ATOM     36  C   UNL     1       5.594   4.149  16.387  0.00  0.00    +0.000 A 
ATOM     37  N   UNL     1       5.231   3.694  15.173  0.00  0.00    +0.000 NA
BRANCH  27  39
ATOM     38  C   UNL     1       6.893   3.627  12.060  0.00  0.00    +0.000 C 
ATOM     39  O   UNL     1       5.713   3.689  12.863  0.00  0.00    +0.000 OA
ENDBRANCH  27  39
ENDBRANCH  26  35
ENDBRANCH  22  26
ENDBRANCH   1  22
TORSDOF 8
ENDMDL
MODEL 7
REMARK VINA RESULT:      -8.5      3.317     11.197
REMARK  Name = 
REMARK  9 active torsions:
REMARK  status: ('A' for Active; 'I' for Inactive)
REMARK    1  A    between atoms: C_1  and  O_2
REMARK    2  A    between atoms: O_2  and  C_3
REMARK    3  A    between atoms: N_11  and  C_12
REMARK    4  A    between atoms: C_12  and  C_13
REMARK    5  A    between atoms: C_13  and  N_14
REMARK    6  A    between atoms: C_13  and  C_15
REMARK    7  A    between atoms: C_18  and  N_19
REMARK    8  A    between atoms: N_19  and  C_20
REMARK    9  A    between atoms: C_20  and  C_21
REMARK                            x       y       z     vdW  Elec       q    Type
REMARK                         _______ _______ _______ _____ _____    ______ ____
ROOT
ATOM      1  C   UNL     1       0.316  12.530  20.534  0.00  0.00    +0.000 C 
ATOM      2  C   UNL     1      -0.141  12.046  19.147  0.00  0.00    +0.000 C 
ATOM      3  C   UNL     1      -0.503  10.558  19.038  0.00  0.00    +0.000 C 
ATOM      4  C   UNL     1       0.401   9.635  19.877  0.00  0.00    +0.000 C 
ATOM      5  C   UNL     1       0.469  10.249  21.281  0.00  0.00    +0.000 C 
ATOM      6  O   UNL     1       1.118  11.524  21.193  0.00  0.00    +0.000 OA
ENDROOT
BRANCH   4   7
ATOM      7  N   UNL     1       1.732   9.544  19.239  0.00  0.00    +0.000 NA
ATOM      8  H   UNL     1       2.383   9.197  19.951  0.00  0.00    +0.000 HD
BRANCH   7   9
ATOM      9  C   UNL     1       1.760   8.550  18.154  0.00  0.00    +0.000 C 
BRANCH   9  10
ATOM     10  C   UNL     1       2.528   7.300  18.556  0.00  0.00    +0.000 A 
ATOM     11  C   UNL     1       3.555   6.808  17.753  0.00  0.00    +0.000 A 
ATOM     12  C   UNL     1       4.180   5.616  18.106  0.00  0.00    +0.000 A 
ATOM     13  C   UNL     1       3.727   4.926  19.218  0.00  0.00    +0.000 A 
ATOM     14  C   UNL     1       2.752   5.521  20.007  0.00  0.00    +0.000 A 
ATOM     15  N   UNL     1       2.166   6.699  19.716  0.00  0.00    +0.000 NA
ATOM     16  N   UNL     1       2.341   4.877  21.172  0.00  0.00    +0.000 N 
ATOM     17  C   UNL     1       2.462   3.518  21.259  0.00  0.00    +0.000 C 
ATOM     18  O   UNL     1       1.826   2.856  22.075  0.00  0.00    +0.000 OA
ATOM     19  C   UNL     1       3.435   2.884  20.267  0.00  0.00    +0.000 C 
ATOM     20  O   UNL     1       4.310   3.732  19.530  0.00  0.00    +0.000 OA
ATOM     21  H   UNL     1       2.715   5.344  21.991  0.00  0.00    +0.000 HD
ENDBRANCH   9  10
ENDBRANCH   7   9
ENDBRANCH   4   7
BRANCH   1  22
ATOM     22  C   UNL     1      -0.744  13.050  21.558  0.00  0.00    +0.000 C 
BRANCH  22  23
ATOM     23  N   UNL     1       0.002  13.778  22.630  0.00  0.00    +0.000 NA
ATOM     24  H   UNL     1       0.993  13.800  22.377  0.00  0.00    +0.000 HD
ATOM     25  H   UNL     1      -0.014  13.171  23.458  0.00  0.00    +0.000 HD
ENDBRANCH  22  23
BRANCH  22  26
ATOM     26  C   UNL     1      -1.883  13.921  20.966  0.00  0.00    +0.000 C 
BRANCH  26  35
ATOM     27  C   UNL     1      -5.130  11.917  19.283  0.00  0.00    +0.000 A 
ATOM     28  C   UNL     1      -6.242  11.577  20.047  0.00  0.00    +0.000 A 
ATOM     29  N   UNL     1      -6.373  11.938  21.348  0.00  0.00    +0.000 NA
ATOM     30  C   UNL     1      -5.328  12.657  21.838  0.00  0.00    +0.000 A 
ATOM     31  C   UNL     1      -5.455  13.117  23.213  0.00  0.00    +0.000 A 
ATOM     32  C   UNL     1      -4.516  13.947  23.708  0.00  0.00    +0.000 A 
ATOM     33  C   UNL     1      -3.345  14.377  22.907  0.00  0.00    +0.000 A 
ATOM     34  O   UNL     1      -2.596  15.224  23.386  0.00  0.00    +0.000 OA
ATOM     35  N   UNL     1      -3.166  13.786  21.670  0.00  0.00    +0.000 N 
ATOM     36  C   UNL     1      -4.203  13.003  21.071  0.00  0.00    +0.000 A 
ATOM     37  N   UNL     1      -4.087  12.623  19.784  0.00  0.00    +0.000 NA
BRANCH  27  39
ATOM     38  C   UNL     1      -3.811  11.472  17.417  0.00  0.00    +0.000 C 
ATOM     39  O   UNL     1      -5.129  11.547  17.961  0.00  0.00    +0.000 OA
ENDBRANCH  27  39
ENDBRANCH  26  35
ENDBRANCH  22  26
ENDBRANCH   1  22
TORSDOF 8
ENDMDL
MODEL 8
REMARK VINA RESULT:      -8.5      2.156     10.930
REMARK  Name = 
REMARK  9 active torsions:
REMARK  status: ('A' for Active; 'I' for Inactive)
REMARK    1  A    between atoms: C_1  and  O_2
REMARK    2  A    between atoms: O_2  and  C_3
REMARK    3  A    between atoms: N_11  and  C_12
REMARK    4  A    between atoms: C_12  and  C_13
REMARK    5  A    between atoms: C_13  and  N_14
REMARK    6  A    between atoms: C_13  and  C_15
REMARK    7  A    between atoms: C_18  and  N_19
REMARK    8  A    between atoms: N_19  and  C_20
REMARK    9  A    between atoms: C_20  and  C_21
REMARK                            x       y       z     vdW  Elec       q    Type
REMARK                         _______ _______ _______ _____ _____    ______ ____
ROOT
ATOM      1  C   UNL     1       1.818   8.807  19.792  0.00  0.00    +0.000 C 
ATOM      2  C   UNL     1       2.360   8.295  18.447  0.00  0.00    +0.000 C 
ATOM      3  C   UNL     1       2.156   6.800  18.162  0.00  0.00    +0.000 C 
ATOM      4  C   UNL     1       2.311   5.904  19.406  0.00  0.00    +0.000 C 
ATOM      5  C   UNL     1       1.459   6.541  20.512  0.00  0.00    +0.000 C 
ATOM      6  O   UNL     1       2.010   7.824  20.834  0.00  0.00    +0.000 OA
ENDROOT
BRANCH   4   7
ATOM      7  N   UNL     1       3.741   5.823  19.775  0.00  0.00    +0.000 NA
ATOM      8  H   UNL     1       3.787   5.818  20.799  0.00  0.00    +0.000 HD
BRANCH   7   9
ATOM      9  C   UNL     1       4.355   4.557  19.341  0.00  0.00    +0.000 C 
BRANCH   9  10
ATOM     10  C   UNL     1       5.353   4.773  18.215  0.00  0.00    +0.000 A 
ATOM     11  C   UNL     1       6.294   5.799  18.286  0.00  0.00    +0.000 A 
ATOM     12  C   UNL     1       7.136   6.023  17.201  0.00  0.00    +0.000 A 
ATOM     13  C   UNL     1       6.979   5.252  16.061  0.00  0.00    +0.000 A 
ATOM     14  C   UNL     1       6.071   4.202  16.099  0.00  0.00    +0.000 A 
ATOM     15  N   UNL     1       5.279   3.932  17.154  0.00  0.00    +0.000 NA
ATOM     16  N   UNL     1       5.957   3.370  14.988  0.00  0.00    +0.000 N 
ATOM     17  C   UNL     1       6.288   3.856  13.754  0.00  0.00    +0.000 C 
ATOM     18  O   UNL     1       5.899   3.326  12.716  0.00  0.00    +0.000 OA
ATOM     19  C   UNL     1       7.166   5.106  13.760  0.00  0.00    +0.000 C 
ATOM     20  O   UNL     1       7.773   5.511  14.982  0.00  0.00    +0.000 OA
ATOM     21  H   UNL     1       6.389   2.470  15.168  0.00  0.00    +0.000 HD
ENDBRANCH   9  10
ENDBRANCH   7   9
ENDBRANCH   4   7
BRANCH   1  22
ATOM     22  C   UNL     1       0.347   9.327  19.884  0.00  0.00    +0.000 C 
BRANCH  22  23
ATOM     23  N   UNL     1      -0.004   9.397  21.336  0.00  0.00    +0.000 NA
ATOM     24  H   UNL     1       0.736   8.935  21.871  0.00  0.00    +0.000 HD
ATOM     25  H   UNL     1      -0.811   8.778  21.470  0.00  0.00    +0.000 HD
ENDBRANCH  22  23
BRANCH  22  26
ATOM     26  C   UNL     1       0.060  10.670  19.163  0.00  0.00    +0.000 C 
BRANCH  26  35
ATOM     27  C   UNL     1      -2.210  12.737  21.984  0.00  0.00    +0.000 A 
ATOM     28  C   UNL     1      -3.482  13.212  21.679  0.00  0.00    +0.000 A 
ATOM     29  N   UNL     1      -4.086  12.970  20.488  0.00  0.00    +0.000 NA
ATOM     30  C   UNL     1      -3.343  12.226  19.625  0.00  0.00    +0.000 A 
ATOM     31  C   UNL     1      -3.979  11.891  18.358  0.00  0.00    +0.000 A 
ATOM     32  C   UNL     1      -3.348  11.045  17.521  0.00  0.00    +0.000 A 
ATOM     33  C   UNL     1      -2.017  10.474  17.836  0.00  0.00    +0.000 A 
ATOM     34  O   UNL     1      -1.559   9.622  17.079  0.00  0.00    +0.000 OA
ATOM     35  N   UNL     1      -1.369  10.947  18.962  0.00  0.00    +0.000 N 
ATOM     36  C   UNL     1      -2.060  11.745  19.929  0.00  0.00    +0.000 A 
ATOM     37  N   UNL     1      -1.473  12.008  21.112  0.00  0.00    +0.000 NA
BRANCH  27  39
ATOM     38  C   UNL     1      -1.068  14.264  23.321  0.00  0.00    +0.000 C 
ATOM     39  O   UNL     1      -1.720  12.995  23.241  0.00  0.00    +0.000 OA
ENDBRANCH  27  39
ENDBRANCH  26  35
ENDBRANCH  22  26
ENDBRANCH   1  22
TORSDOF 8
ENDMDL
MODEL 9
REMARK VINA RESULT:      -8.5      3.527     11.566
REMARK  Name = 
REMARK  9 active torsions:
REMARK  status: ('A' for Active; 'I' for Inactive)
REMARK    1  A    between atoms: C_1  and  O_2
REMARK    2  A    between atoms: O_2  and  C_3
REMARK    3  A    between atoms: N_11  and  C_12
REMARK    4  A    between atoms: C_12  and  C_13
REMARK    5  A    between atoms: C_13  and  N_14
REMARK    6  A    between atoms: C_13  and  C_15
REMARK    7  A    between atoms: C_18  and  N_19
REMARK    8  A    between atoms: N_19  and  C_20
REMARK    9  A    between atoms: C_20  and  C_21
REMARK                            x       y       z     vdW  Elec       q    Type
REMARK                         _______ _______ _______ _____ _____    ______ ____
ROOT
ATOM      1  C   UNL     1      -0.640  12.697  21.804  0.00  0.00    +0.000 C 
ATOM      2  C   UNL     1      -0.765  12.327  20.316  0.00  0.00    +0.000 C 
ATOM      3  C   UNL     1      -1.099  10.860  20.012  0.00  0.00    +0.000 C 
ATOM      4  C   UNL     1      -0.419   9.857  20.964  0.00  0.00    +0.000 C 
ATOM      5  C   UNL     1      -0.676  10.365  22.389  0.00  0.00    +0.000 C 
ATOM      6  O   UNL     1      -0.018  11.628  22.552  0.00  0.00    +0.000 OA
ENDROOT
BRANCH   4   7
ATOM      7  N   UNL     1       1.024   9.783  20.646  0.00  0.00    +0.000 NA
ATOM      8  H   UNL     1       1.421   9.035  21.224  0.00  0.00    +0.000 HD
BRANCH   7   9
ATOM      9  C   UNL     1       1.264   9.380  19.250  0.00  0.00    +0.000 C 
BRANCH   9  10
ATOM     10  C   UNL     1       1.956   8.029  19.167  0.00  0.00    +0.000 A 
ATOM     11  C   UNL     1       2.581   7.621  17.990  0.00  0.00    +0.000 A 
ATOM     12  C   UNL     1       3.131   6.345  17.921  0.00  0.00    +0.000 A 
ATOM     13  C   UNL     1       2.994   5.497  19.007  0.00  0.00    +0.000 A 
ATOM     14  C   UNL     1       2.425   6.004  20.167  0.00  0.00    +0.000 A 
ATOM     15  N   UNL     1       1.931   7.252  20.279  0.00  0.00    +0.000 NA
ATOM     16  N   UNL     1       2.351   5.188  21.294  0.00  0.00    +0.000 N 
ATOM     17  C   UNL     1       2.319   3.830  21.132  0.00  0.00    +0.000 C 
ATOM     18  O   UNL     1       1.915   3.076  22.013  0.00  0.00    +0.000 OA
ATOM     19  C   UNL     1       2.813   3.323  19.779  0.00  0.00    +0.000 C 
ATOM     20  O   UNL     1       3.490   4.229  18.914  0.00  0.00    +0.000 OA
ATOM     21  H   UNL     1       3.034   5.470  21.988  0.00  0.00    +0.000 HD
ENDBRANCH   9  10
ENDBRANCH   7   9
ENDBRANCH   4   7
BRANCH   1  22
ATOM     22  C   UNL     1      -1.906  13.165  22.592  0.00  0.00    +0.000 C 
BRANCH  22  23
ATOM     23  N   UNL     1      -1.426  13.975  23.754  0.00  0.00    +0.000 NA
ATOM     24  H   UNL     1      -0.557  13.560  24.100  0.00  0.00    +0.000 HD
ATOM     25  H   UNL     1      -2.088  13.804  24.519  0.00  0.00    +0.000 HD
ENDBRANCH  22  23
BRANCH  22  26
ATOM     26  C   UNL     1      -2.970  13.932  21.764  0.00  0.00    +0.000 C 
BRANCH  26  35
ATOM     27  C   UNL     1      -5.538  11.642  19.409  0.00  0.00    +0.000 A 
ATOM     28  C   UNL     1      -6.750  11.175  19.907  0.00  0.00    +0.000 A 
ATOM     29  N   UNL     1      -7.202  11.493  21.146  0.00  0.00    +0.000 NA
ATOM     30  C   UNL     1      -6.371  12.305  21.853  0.00  0.00    +0.000 A 
ATOM     31  C   UNL     1      -6.846  12.721  23.166  0.00  0.00    +0.000 A 
ATOM     32  C   UNL     1      -6.131  13.632  23.854  0.00  0.00    +0.000 A 
ATOM     33  C   UNL     1      -4.865  14.196  23.332  0.00  0.00    +0.000 A 
ATOM     34  O   UNL     1      -4.332  15.106  23.963  0.00  0.00    +0.000 OA
ATOM     35  N   UNL     1      -4.356  13.652  22.167  0.00  0.00    +0.000 N 
ATOM     36  C   UNL     1      -5.148  12.779  21.354  0.00  0.00    +0.000 A 
ATOM     37  N   UNL     1      -4.711  12.441  20.126  0.00  0.00    +0.000 NA
BRANCH  27  39
ATOM     38  C   UNL     1      -5.629  12.284  17.172  0.00  0.00    +0.000 C 
ATOM     39  O   UNL     1      -5.207  11.302  18.120  0.00  0.00    +0.000 OA
ENDBRANCH  27  39
ENDBRANCH  26  35
ENDBRANCH  22  26
ENDBRANCH   1  22
TORSDOF 8
ENDMDL
