MODEL 1
REMARK VINA RESULT:      -7.6      0.000      0.000
REMARK  Name = 
REMARK  14 active torsions:
REMARK  status: ('A' for Active; 'I' for Inactive)
REMARK    1  A    between atoms: C_1  and  O_2
REMARK    2  A    between atoms: O_2  and  C_3
REMARK    3  A    between atoms: C_3  and  C_5
REMARK    4  A    between atoms: C_5  and  C_6
REMARK    5  A    between atoms: C_6  and  C_7
REMARK    6  A    between atoms: C_7  and  O_9
REMARK    7  A    between atoms: O_9  and  C_10
REMARK    8  A    between atoms: C_10  and  C_11
REMARK    9  A    between atoms: C_17  and  C_18
REMARK   10  A    between atoms: N_21  and  C_22
REMARK   11  A    between atoms: C_22  and  C_23
REMARK   12  A    between atoms: C_22  and  C_25
REMARK   13  A    between atoms: C_23  and  O_24
REMARK   14  A    between atoms: C_25  and  O_26
REMARK                            x       y       z     vdW  Elec       q    Type
REMARK                         _______ _______ _______ _____ _____    ______ ____
ROOT
ATOM      1  C   UNL     1       7.088   6.060  16.564  0.00  0.00    +0.000 C 
ATOM      2  C   UNL     1       7.888   7.160  17.277  0.00  0.00    +0.000 C 
ATOM      3  C   UNL     1       7.206   4.813  17.456  0.00  0.00    +0.000 C 
ATOM      4  O   UNL     1       8.202   4.088  17.472  0.00  0.00    +0.000 OA
ATOM      5  C   UNL     1       6.124   4.505  18.433  0.00  0.00    +0.000 C 
ATOM      6  C   UNL     1       4.994   5.223  18.485  0.00  0.00    +0.000 C 
ATOM      7  C   UNL     1       3.977   4.948  19.491  0.00  0.00    +0.000 C 
ATOM      8  C   UNL     1       2.906   5.771  19.637  0.00  0.00    +0.000 C 
ATOM      9  N   UNL     1       2.721   6.892  18.745  0.00  0.00    +0.000 N 
ATOM     10  C   UNL     1       3.672   7.070  17.723  0.00  0.00    +0.000 C 
ATOM     11  C   UNL     1       4.747   6.291  17.544  0.00  0.00    +0.000 C 
ATOM     12  C   UNL     1       5.634   6.495  16.383  0.00  0.00    +0.000 C 
ATOM     13  O   UNL     1       5.176   6.967  15.342  0.00  0.00    +0.000 OA
ENDROOT
BRANCH   8  14
ATOM     14  C   UNL     1       1.888   5.508  20.688  0.00  0.00    +0.000 C 
ATOM     15  C   UNL     1       0.798   4.471  20.493  0.00  0.00    +0.000 C 
ATOM     16  C   UNL     1       1.928   4.193  21.430  0.00  0.00    +0.000 C 
ENDBRANCH   8  14
BRANCH   1  17
ATOM     17  O   UNL     1       7.620   5.668  15.279  0.00  0.00    +0.000 OA
BRANCH  17  18
ATOM     18  C   UNL     1       6.993   4.690  14.576  0.00  0.00    +0.000 C 
ATOM     19  O   UNL     1       6.538   3.656  15.039  0.00  0.00    +0.000 OA
BRANCH  18  20
ATOM     20  C   UNL     1       7.007   5.006  13.101  0.00  0.00    +0.000 C 
BRANCH  20  21
ATOM     21  C   UNL     1       7.063   3.717  12.288  0.00  0.00    +0.000 C 
BRANCH  21  22
ATOM     22  C   UNL     1       5.669   3.210  12.014  0.00  0.00    +0.000 C 
ATOM     23  O   UNL     1       4.646   3.782  12.364  0.00  0.00    +0.000 OA
BRANCH  22  25
ATOM     24  C   UNL     1       7.027   1.488  11.215  0.00  0.00    +0.000 C 
ATOM     25  O   UNL     1       5.717   2.050  11.305  0.00  0.00    +0.000 OA
ENDBRANCH  22  25
ENDBRANCH  21  22
ENDBRANCH  20  21
ENDBRANCH  18  20
ENDBRANCH  17  18
ENDBRANCH   1  17
BRANCH   9  26
ATOM     26  C   UNL     1       1.540   7.831  18.868  0.00  0.00    +0.000 C 
BRANCH  26  27
ATOM     27  C   UNL     1       1.522   8.500  20.258  0.00  0.00    +0.000 C 
BRANCH  27  28
ATOM     28  O   UNL     1       0.242   9.043  20.578  0.00  0.00    +0.000 OA
ATOM     29  H   UNL     1       0.420   9.865  21.072  0.00  0.00    +0.000 HD
ENDBRANCH  27  28
ENDBRANCH  26  27
BRANCH  26  30
ATOM     30  C   UNL     1       1.473   8.938  17.782  0.00  0.00    +0.000 C 
BRANCH  30  31
ATOM     31  O   UNL     1       0.252   9.673  17.822  0.00  0.00    +0.000 OA
ATOM     32  H   UNL     1       0.008   9.872  16.901  0.00  0.00    +0.000 HD
ENDBRANCH  30  31
ENDBRANCH  26  30
ENDBRANCH   9  26
TORSDOF 12
ENDMDL
MODEL 2
REMARK VINA RESULT:      -6.9      1.675      2.627
REMARK  Name = 
REMARK  14 active torsions:
REMARK  status: ('A' for Active; 'I' for Inactive)
REMARK    1  A    between atoms: C_1  and  O_2
REMARK    2  A    between atoms: O_2  and  C_3
REMARK    3  A    between atoms: C_3  and  C_5
REMARK    4  A    between atoms: C_5  and  C_6
REMARK    5  A    between atoms: C_6  and  C_7
REMARK    6  A    between atoms: C_7  and  O_9
REMARK    7  A    between atoms: O_9  and  C_10
REMARK    8  A    between atoms: C_10  and  C_11
REMARK    9  A    between atoms: C_17  and  C_18
REMARK   10  A    between atoms: N_21  and  C_22
REMARK   11  A    between atoms: C_22  and  C_23
REMARK   12  A    between atoms: C_22  and  C_25
REMARK   13  A    between atoms: C_23  and  O_24
REMARK   14  A    between atoms: C_25  and  O_26
REMARK                            x       y       z     vdW  Elec       q    Type
REMARK                         _______ _______ _______ _____ _____    ______ ____
ROOT
ATOM      1  C   UNL     1       5.452   5.538  17.650  0.00  0.00    +0.000 C 
ATOM      2  C   UNL     1       6.674   6.358  18.093  0.00  0.00    +0.000 C 
ATOM      3  C   UNL     1       4.937   4.839  18.919  0.00  0.00    +0.000 C 
ATOM      4  O   UNL     1       5.457   3.824  19.387  0.00  0.00    +0.000 OA
ATOM      5  C   UNL     1       3.825   5.454  19.696  0.00  0.00    +0.000 C 
ATOM      6  C   UNL     1       3.183   6.549  19.265  0.00  0.00    +0.000 C 
ATOM      7  C   UNL     1       2.143   7.175  20.071  0.00  0.00    +0.000 C 
ATOM      8  C   UNL     1       1.603   8.365  19.701  0.00  0.00    +0.000 C 
ATOM      9  N   UNL     1       2.000   8.993  18.463  0.00  0.00    +0.000 N 
ATOM     10  C   UNL     1       2.934   8.312  17.662  0.00  0.00    +0.000 C 
ATOM     11  C   UNL     1       3.500   7.142  17.986  0.00  0.00    +0.000 C 
ATOM     12  C   UNL     1       4.395   6.454  17.035  0.00  0.00    +0.000 C 
ATOM     13  O   UNL     1       4.240   6.619  15.825  0.00  0.00    +0.000 OA
ENDROOT
BRANCH   8  14
ATOM     14  C   UNL     1       0.568   9.019  20.545  0.00  0.00    +0.000 C 
ATOM     15  C   UNL     1      -0.208   8.241  21.590  0.00  0.00    +0.000 C 
ATOM     16  C   UNL     1       0.842   9.214  22.017  0.00  0.00    +0.000 C 
ENDBRANCH   8  14
BRANCH   1  17
ATOM     17  O   UNL     1       5.749   4.476  16.716  0.00  0.00    +0.000 OA
BRANCH  17  18
ATOM     18  C   UNL     1       6.968   4.446  16.117  0.00  0.00    +0.000 C 
ATOM     19  O   UNL     1       8.043   4.367  16.689  0.00  0.00    +0.000 OA
BRANCH  18  20
ATOM     20  C   UNL     1       6.829   4.617  14.625  0.00  0.00    +0.000 C 
BRANCH  20  21
ATOM     21  C   UNL     1       5.507   4.025  14.149  0.00  0.00    +0.000 C 
BRANCH  21  22
ATOM     22  C   UNL     1       5.604   3.628  12.697  0.00  0.00    +0.000 C 
ATOM     23  O   UNL     1       4.640   3.410  11.976  0.00  0.00    +0.000 OA
BRANCH  22  25
ATOM     24  C   UNL     1       7.197   2.483  11.432  0.00  0.00    +0.000 C 
ATOM     25  O   UNL     1       6.905   3.575  12.305  0.00  0.00    +0.000 OA
ENDBRANCH  22  25
ENDBRANCH  21  22
ENDBRANCH  20  21
ENDBRANCH  18  20
ENDBRANCH  17  18
ENDBRANCH   1  17
BRANCH   9  26
ATOM     26  C   UNL     1       1.419  10.317  18.010  0.00  0.00    +0.000 C 
BRANCH  26  27
ATOM     27  C   UNL     1      -0.077  10.404  18.374  0.00  0.00    +0.000 C 
BRANCH  27  28
ATOM     28  O   UNL     1      -0.918   9.978  17.303  0.00  0.00    +0.000 OA
ATOM     29  H   UNL     1      -1.217  10.795  16.862  0.00  0.00    +0.000 HD
ENDBRANCH  27  28
ENDBRANCH  26  27
BRANCH  26  30
ATOM     30  C   UNL     1       2.142  11.570  18.571  0.00  0.00    +0.000 C 
BRANCH  30  31
ATOM     31  O   UNL     1       2.590  12.451  17.544  0.00  0.00    +0.000 OA
ATOM     32  H   UNL     1       2.828  13.292  17.972  0.00  0.00    +0.000 HD
ENDBRANCH  30  31
ENDBRANCH  26  30
ENDBRANCH   9  26
TORSDOF 12
ENDMDL
MODEL 3
REMARK VINA RESULT:      -6.8      2.895      5.251
REMARK  Name = 
REMARK  14 active torsions:
REMARK  status: ('A' for Active; 'I' for Inactive)
REMARK    1  A    between atoms: C_1  and  O_2
REMARK    2  A    between atoms: O_2  and  C_3
REMARK    3  A    between atoms: C_3  and  C_5
REMARK    4  A    between atoms: C_5  and  C_6
REMARK    5  A    between atoms: C_6  and  C_7
REMARK    6  A    between atoms: C_7  and  O_9
REMARK    7  A    between atoms: O_9  and  C_10
REMARK    8  A    between atoms: C_10  and  C_11
REMARK    9  A    between atoms: C_17  and  C_18
REMARK   10  A    between atoms: N_21  and  C_22
REMARK   11  A    between atoms: C_22  and  C_23
REMARK   12  A    between atoms: C_22  and  C_25
REMARK   13  A    between atoms: C_23  and  O_24
REMARK   14  A    between atoms: C_25  and  O_26
REMARK                            x       y       z     vdW  Elec       q    Type
REMARK                         _______ _______ _______ _____ _____    ______ ____
ROOT
ATOM      1  C   UNL     1       2.909   5.762  19.078  0.00  0.00    +0.000 C 
ATOM      2  C   UNL     1       4.374   6.001  19.475  0.00  0.00    +0.000 C 
ATOM      3  C   UNL     1       2.179   5.393  20.380  0.00  0.00    +0.000 C 
ATOM      4  O   UNL     1       2.232   4.271  20.887  0.00  0.00    +0.000 OA
ATOM      5  C   UNL     1       1.453   6.449  21.139  0.00  0.00    +0.000 C 
ATOM      6  C   UNL     1       1.324   7.697  20.667  0.00  0.00    +0.000 C 
ATOM      7  C   UNL     1       0.669   8.733  21.454  0.00  0.00    +0.000 C 
ATOM      8  C   UNL     1       0.675  10.026  21.037  0.00  0.00    +0.000 C 
ATOM      9  N   UNL     1       1.267  10.382  19.770  0.00  0.00    +0.000 N 
ATOM     10  C   UNL     1       1.804   9.340  18.991  0.00  0.00    +0.000 C 
ATOM     11  C   UNL     1       1.829   8.053  19.361  0.00  0.00    +0.000 C 
ATOM     12  C   UNL     1       2.323   7.017  18.433  0.00  0.00    +0.000 C 
ATOM     13  O   UNL     1       2.222   7.190  17.218  0.00  0.00    +0.000 OA
ENDROOT
BRANCH   8  14
ATOM     14  C   UNL     1       0.036  11.088  21.861  0.00  0.00    +0.000 C 
ATOM     15  C   UNL     1      -1.449  11.380  21.761  0.00  0.00    +0.000 C 
ATOM     16  C   UNL     1      -0.909  10.683  22.967  0.00  0.00    +0.000 C 
ENDBRANCH   8  14
BRANCH   1  17
ATOM     17  O   UNL     1       2.704   4.642  18.188  0.00  0.00    +0.000 OA
BRANCH  17  18
ATOM     18  C   UNL     1       3.779   3.925  17.773  0.00  0.00    +0.000 C 
ATOM     19  O   UNL     1       4.226   2.927  18.316  0.00  0.00    +0.000 OA
BRANCH  18  20
ATOM     20  C   UNL     1       4.423   4.580  16.576  0.00  0.00    +0.000 C 
BRANCH  20  21
ATOM     21  C   UNL     1       5.760   3.916  16.269  0.00  0.00    +0.000 C 
BRANCH  21  22
ATOM     22  C   UNL     1       6.891   4.716  16.865  0.00  0.00    +0.000 C 
ATOM     23  O   UNL     1       8.018   4.281  17.056  0.00  0.00    +0.000 OA
BRANCH  22  25
ATOM     24  C   UNL     1       7.562   6.916  17.267  0.00  0.00    +0.000 C 
ATOM     25  O   UNL     1       6.485   5.987  17.129  0.00  0.00    +0.000 OA
ENDBRANCH  22  25
ENDBRANCH  21  22
ENDBRANCH  20  21
ENDBRANCH  18  20
ENDBRANCH  17  18
ENDBRANCH   1  17
BRANCH   9  26
ATOM     26  C   UNL     1       1.291  11.810  19.265  0.00  0.00    +0.000 C 
BRANCH  26  27
ATOM     27  C   UNL     1       2.436  12.006  18.250  0.00  0.00    +0.000 C 
BRANCH  27  28
ATOM     28  O   UNL     1       2.245  13.166  17.440  0.00  0.00    +0.000 OA
ATOM     29  H   UNL     1       3.101  13.632  17.441  0.00  0.00    +0.000 HD
ENDBRANCH  27  28
ENDBRANCH  26  27
BRANCH  26  30
ATOM     30  C   UNL     1      -0.035  12.293  18.618  0.00  0.00    +0.000 C 
BRANCH  30  31
ATOM     31  O   UNL     1      -0.268  13.684  18.821  0.00  0.00    +0.000 OA
ATOM     32  H   UNL     1      -0.007  14.141  18.002  0.00  0.00    +0.000 HD
ENDBRANCH  30  31
ENDBRANCH  26  30
ENDBRANCH   9  26
TORSDOF 12
ENDMDL
MODEL 4
REMARK VINA RESULT:      -6.8      2.894      5.113
REMARK  Name = 
REMARK  14 active torsions:
REMARK  status: ('A' for Active; 'I' for Inactive)
REMARK    1  A    between atoms: C_1  and  O_2
REMARK    2  A    between atoms: O_2  and  C_3
REMARK    3  A    between atoms: C_3  and  C_5
REMARK    4  A    between atoms: C_5  and  C_6
REMARK    5  A    between atoms: C_6  and  C_7
REMARK    6  A    between atoms: C_7  and  O_9
REMARK    7  A    between atoms: O_9  and  C_10
REMARK    8  A    between atoms: C_10  and  C_11
REMARK    9  A    between atoms: C_17  and  C_18
REMARK   10  A    between atoms: N_21  and  C_22
REMARK   11  A    between atoms: C_22  and  C_23
REMARK   12  A    between atoms: C_22  and  C_25
REMARK   13  A    between atoms: C_23  and  O_24
REMARK   14  A    between atoms: C_25  and  O_26
REMARK                            x       y       z     vdW  Elec       q    Type
REMARK                         _______ _______ _______ _____ _____    ______ ____
ROOT
ATOM      1  C   UNL     1       2.727   6.059  19.062  0.00  0.00    +0.000 C 
ATOM      2  C   UNL     1       4.205   6.320  19.392  0.00  0.00    +0.000 C 
ATOM      3  C   UNL     1       2.062   5.679  20.395  0.00  0.00    +0.000 C 
ATOM      4  O   UNL     1       2.155   4.558  20.898  0.00  0.00    +0.000 OA
ATOM      5  C   UNL     1       1.356   6.725  21.188  0.00  0.00    +0.000 C 
ATOM      6  C   UNL     1       1.188   7.970  20.723  0.00  0.00    +0.000 C 
ATOM      7  C   UNL     1       0.555   8.997  21.540  0.00  0.00    +0.000 C 
ATOM      8  C   UNL     1       0.523  10.290  21.126  0.00  0.00    +0.000 C 
ATOM      9  N   UNL     1       1.052  10.655  19.833  0.00  0.00    +0.000 N 
ATOM     10  C   UNL     1       1.568   9.622  19.029  0.00  0.00    +0.000 C 
ATOM     11  C   UNL     1       1.628   8.335  19.396  0.00  0.00    +0.000 C 
ATOM     12  C   UNL     1       2.094   7.307  18.446  0.00  0.00    +0.000 C 
ATOM     13  O   UNL     1       1.935   7.478  17.237  0.00  0.00    +0.000 OA
ENDROOT
BRANCH   8  14
ATOM     14  C   UNL     1      -0.093  11.341  21.979  0.00  0.00    +0.000 C 
ATOM     15  C   UNL     1      -1.553  11.727  21.829  0.00  0.00    +0.000 C 
ATOM     16  C   UNL     1      -1.112  10.935  23.016  0.00  0.00    +0.000 C 
ENDBRANCH   8  14
BRANCH   1  17
ATOM     17  O   UNL     1       2.498   4.938  18.181  0.00  0.00    +0.000 OA
BRANCH  17  18
ATOM     18  C   UNL     1       3.528   4.099  17.899  0.00  0.00    +0.000 C 
ATOM     19  O   UNL     1       4.109   3.385  18.702  0.00  0.00    +0.000 OA
BRANCH  18  20
ATOM     20  C   UNL     1       3.936   4.228  16.452  0.00  0.00    +0.000 C 
BRANCH  20  21
ATOM     21  C   UNL     1       5.440   4.447  16.347  0.00  0.00    +0.000 C 
BRANCH  21  22
ATOM     22  C   UNL     1       5.733   5.701  15.560  0.00  0.00    +0.000 C 
ATOM     23  O   UNL     1       5.224   6.790  15.785  0.00  0.00    +0.000 OA
BRANCH  22  25
ATOM     24  C   UNL     1       6.514   4.163  13.988  0.00  0.00    +0.000 C 
ATOM     25  O   UNL     1       6.655   5.449  14.593  0.00  0.00    +0.000 OA
ENDBRANCH  22  25
ENDBRANCH  21  22
ENDBRANCH  20  21
ENDBRANCH  18  20
ENDBRANCH  17  18
ENDBRANCH   1  17
BRANCH   9  26
ATOM     26  C   UNL     1       1.031  12.083  19.329  0.00  0.00    +0.000 C 
BRANCH  26  27
ATOM     27  C   UNL     1       2.359  12.427  18.623  0.00  0.00    +0.000 C 
BRANCH  27  28
ATOM     28  O   UNL     1       2.163  12.793  17.257  0.00  0.00    +0.000 OA
ATOM     29  H   UNL     1       2.695  13.598  17.121  0.00  0.00    +0.000 HD
ENDBRANCH  27  28
ENDBRANCH  26  27
BRANCH  26  30
ATOM     30  C   UNL     1      -0.143  12.418  18.371  0.00  0.00    +0.000 C 
BRANCH  30  31
ATOM     31  O   UNL     1      -0.514  13.794  18.419  0.00  0.00    +0.000 OA
ATOM     32  H   UNL     1      -1.150  13.944  17.698  0.00  0.00    +0.000 HD
ENDBRANCH  30  31
ENDBRANCH  26  30
ENDBRANCH   9  26
TORSDOF 12
ENDMDL
MODEL 5
REMARK VINA RESULT:      -6.8      3.560      5.774
REMARK  Name = 
REMARK  14 active torsions:
REMARK  status: ('A' for Active; 'I' for Inactive)
REMARK    1  A    between atoms: C_1  and  O_2
REMARK    2  A    between atoms: O_2  and  C_3
REMARK    3  A    between atoms: C_3  and  C_5
REMARK    4  A    between atoms: C_5  and  C_6
REMARK    5  A    between atoms: C_6  and  C_7
REMARK    6  A    between atoms: C_7  and  O_9
REMARK    7  A    between atoms: O_9  and  C_10
REMARK    8  A    between atoms: C_10  and  C_11
REMARK    9  A    between atoms: C_17  and  C_18
REMARK   10  A    between atoms: N_21  and  C_22
REMARK   11  A    between atoms: C_22  and  C_23
REMARK   12  A    between atoms: C_22  and  C_25
REMARK   13  A    between atoms: C_23  and  O_24
REMARK   14  A    between atoms: C_25  and  O_26
REMARK                            x       y       z     vdW  Elec       q    Type
REMARK                         _______ _______ _______ _____ _____    ______ ____
ROOT
ATOM      1  C   UNL     1       2.965   6.484  18.819  0.00  0.00    +0.000 C 
ATOM      2  C   UNL     1       4.415   6.781  19.230  0.00  0.00    +0.000 C 
ATOM      3  C   UNL     1       2.268   5.967  20.088  0.00  0.00    +0.000 C 
ATOM      4  O   UNL     1       2.394   4.814  20.504  0.00  0.00    +0.000 OA
ATOM      5  C   UNL     1       1.483   6.912  20.931  0.00  0.00    +0.000 C 
ATOM      6  C   UNL     1       1.275   8.183  20.561  0.00  0.00    +0.000 C 
ATOM      7  C   UNL     1       0.562   9.110  21.430  0.00  0.00    +0.000 C 
ATOM      8  C   UNL     1       0.485  10.431  21.119  0.00  0.00    +0.000 C 
ATOM      9  N   UNL     1       1.045  10.923  19.882  0.00  0.00    +0.000 N 
ATOM     10  C   UNL     1       1.640   9.982  19.022  0.00  0.00    +0.000 C 
ATOM     11  C   UNL     1       1.747   8.674  19.287  0.00  0.00    +0.000 C 
ATOM     12  C   UNL     1       2.298   7.748  18.278  0.00  0.00    +0.000 C 
ATOM     13  O   UNL     1       2.177   8.010  17.081  0.00  0.00    +0.000 OA
ENDROOT
BRANCH   8  14
ATOM     14  C   UNL     1      -0.212  11.381  22.026  0.00  0.00    +0.000 C 
ATOM     15  C   UNL     1      -1.707  11.621  21.923  0.00  0.00    +0.000 C 
ATOM     16  C   UNL     1      -1.158  10.834  23.069  0.00  0.00    +0.000 C 
ENDBRANCH   8  14
BRANCH   1  17
ATOM     17  O   UNL     1       2.823   5.428  17.842  0.00  0.00    +0.000 OA
BRANCH  17  18
ATOM     18  C   UNL     1       3.923   4.997  17.173  0.00  0.00    +0.000 C 
ATOM     19  O   UNL     1       4.588   5.657  16.390  0.00  0.00    +0.000 OA
BRANCH  18  20
ATOM     20  C   UNL     1       4.176   3.537  17.456  0.00  0.00    +0.000 C 
BRANCH  20  21
ATOM     21  C   UNL     1       2.857   2.775  17.506  0.00  0.00    +0.000 C 
BRANCH  21  22
ATOM     22  C   UNL     1       2.911   1.705  18.568  0.00  0.00    +0.000 C 
ATOM     23  O   UNL     1       3.744   0.810  18.604  0.00  0.00    +0.000 OA
BRANCH  22  25
ATOM     24  C   UNL     1       0.653   2.193  18.904  0.00  0.00    +0.000 C 
ATOM     25  O   UNL     1       1.924   1.897  19.484  0.00  0.00    +0.000 OA
ENDBRANCH  22  25
ENDBRANCH  21  22
ENDBRANCH  20  21
ENDBRANCH  18  20
ENDBRANCH  17  18
ENDBRANCH   1  17
BRANCH   9  26
ATOM     26  C   UNL     1       0.977  12.385  19.494  0.00  0.00    +0.000 C 
BRANCH  26  27
ATOM     27  C   UNL     1       2.288  12.825  18.810  0.00  0.00    +0.000 C 
BRANCH  27  28
ATOM     28  O   UNL     1       2.136  12.970  17.399  0.00  0.00    +0.000 OA
ATOM     29  H   UNL     1       1.582  13.762  17.272  0.00  0.00    +0.000 HD
ENDBRANCH  27  28
ENDBRANCH  26  27
BRANCH  26  30
ATOM     30  C   UNL     1      -0.214  12.757  18.571  0.00  0.00    +0.000 C 
BRANCH  30  31
ATOM     31  O   UNL     1      -0.472  14.160  18.547  0.00  0.00    +0.000 OA
ATOM     32  H   UNL     1       0.391  14.608  18.499  0.00  0.00    +0.000 HD
ENDBRANCH  30  31
ENDBRANCH  26  30
ENDBRANCH   9  26
TORSDOF 12
ENDMDL
MODEL 6
REMARK VINA RESULT:      -6.7      1.615      2.689
REMARK  Name = 
REMARK  14 active torsions:
REMARK  status: ('A' for Active; 'I' for Inactive)
REMARK    1  A    between atoms: C_1  and  O_2
REMARK    2  A    between atoms: O_2  and  C_3
REMARK    3  A    between atoms: C_3  and  C_5
REMARK    4  A    between atoms: C_5  and  C_6
REMARK    5  A    between atoms: C_6  and  C_7
REMARK    6  A    between atoms: C_7  and  O_9
REMARK    7  A    between atoms: O_9  and  C_10
REMARK    8  A    between atoms: C_10  and  C_11
REMARK    9  A    between atoms: C_17  and  C_18
REMARK   10  A    between atoms: N_21  and  C_22
REMARK   11  A    between atoms: C_22  and  C_23
REMARK   12  A    between atoms: C_22  and  C_25
REMARK   13  A    between atoms: C_23  and  O_24
REMARK   14  A    between atoms: C_25  and  O_26
REMARK                            x       y       z     vdW  Elec       q    Type
REMARK                         _______ _______ _______ _____ _____    ______ ____
ROOT
ATOM      1  C   UNL     1       5.223   5.223  17.887  0.00  0.00    +0.000 C 
ATOM      2  C   UNL     1       6.469   5.983  18.368  0.00  0.00    +0.000 C 
ATOM      3  C   UNL     1       4.718   4.436  19.106  0.00  0.00    +0.000 C 
ATOM      4  O   UNL     1       5.227   3.378  19.482  0.00  0.00    +0.000 OA
ATOM      5  C   UNL     1       3.634   5.007  19.953  0.00  0.00    +0.000 C 
ATOM      6  C   UNL     1       3.006   6.145  19.623  0.00  0.00    +0.000 C 
ATOM      7  C   UNL     1       1.995   6.724  20.497  0.00  0.00    +0.000 C 
ATOM      8  C   UNL     1       1.471   7.950  20.234  0.00  0.00    +0.000 C 
ATOM      9  N   UNL     1       1.856   8.666  19.041  0.00  0.00    +0.000 N 
ATOM     10  C   UNL     1       2.762   8.033  18.169  0.00  0.00    +0.000 C 
ATOM     11  C   UNL     1       3.310   6.831  18.388  0.00  0.00    +0.000 C 
ATOM     12  C   UNL     1       4.172   6.205  17.368  0.00  0.00    +0.000 C 
ATOM     13  O   UNL     1       3.998   6.468  16.178  0.00  0.00    +0.000 OA
ENDROOT
BRANCH   8  14
ATOM     14  C   UNL     1       0.466   8.554  21.148  0.00  0.00    +0.000 C 
ATOM     15  C   UNL     1       0.835   8.990  22.553  0.00  0.00    +0.000 C 
ATOM     16  C   UNL     1       0.584  10.018  21.498  0.00  0.00    +0.000 C 
ENDBRANCH   8  14
BRANCH   1  17
ATOM     17  O   UNL     1       5.481   4.234  16.866  0.00  0.00    +0.000 OA
BRANCH  17  18
ATOM     18  C   UNL     1       6.502   4.437  15.994  0.00  0.00    +0.000 C 
ATOM     19  O   UNL     1       7.691   4.421  16.269  0.00  0.00    +0.000 OA
BRANCH  18  20
ATOM     20  C   UNL     1       5.969   4.782  14.625  0.00  0.00    +0.000 C 
BRANCH  20  21
ATOM     21  C   UNL     1       6.861   4.179  13.546  0.00  0.00    +0.000 C 
BRANCH  21  22
ATOM     22  C   UNL     1       6.026   3.446  12.526  0.00  0.00    +0.000 C 
ATOM     23  O   UNL     1       4.821   3.597  12.384  0.00  0.00    +0.000 OA
BRANCH  22  25
ATOM     24  C   UNL     1       6.115   1.479  11.271  0.00  0.00    +0.000 C 
ATOM     25  O   UNL     1       6.808   2.621  11.778  0.00  0.00    +0.000 OA
ENDBRANCH  22  25
ENDBRANCH  21  22
ENDBRANCH  20  21
ENDBRANCH  18  20
ENDBRANCH  17  18
ENDBRANCH   1  17
BRANCH   9  26
ATOM     26  C   UNL     1       1.294  10.032  18.706  0.00  0.00    +0.000 C 
BRANCH  26  27
ATOM     27  C   UNL     1       2.332  10.870  17.931  0.00  0.00    +0.000 C 
BRANCH  27  28
ATOM     28  O   UNL     1       1.966  12.247  17.858  0.00  0.00    +0.000 OA
ATOM     29  H   UNL     1       2.295  12.562  16.996  0.00  0.00    +0.000 HD
ENDBRANCH  27  28
ENDBRANCH  26  27
BRANCH  26  30
ATOM     30  C   UNL     1      -0.030  10.009  17.897  0.00  0.00    +0.000 C 
BRANCH  30  31
ATOM     31  O   UNL     1      -0.726  11.253  17.948  0.00  0.00    +0.000 OA
ATOM     32  H   UNL     1      -0.856  11.546  17.030  0.00  0.00    +0.000 HD
ENDBRANCH  30  31
ENDBRANCH  26  30
ENDBRANCH   9  26
TORSDOF 12
ENDMDL
MODEL 7
REMARK VINA RESULT:      -6.7      2.959      5.190
REMARK  Name = 
REMARK  14 active torsions:
REMARK  status: ('A' for Active; 'I' for Inactive)
REMARK    1  A    between atoms: C_1  and  O_2
REMARK    2  A    between atoms: O_2  and  C_3
REMARK    3  A    between atoms: C_3  and  C_5
REMARK    4  A    between atoms: C_5  and  C_6
REMARK    5  A    between atoms: C_6  and  C_7
REMARK    6  A    between atoms: C_7  and  O_9
REMARK    7  A    between atoms: O_9  and  C_10
REMARK    8  A    between atoms: C_10  and  C_11
REMARK    9  A    between atoms: C_17  and  C_18
REMARK   10  A    between atoms: N_21  and  C_22
REMARK   11  A    between atoms: C_22  and  C_23
REMARK   12  A    between atoms: C_22  and  C_25
REMARK   13  A    between atoms: C_23  and  O_24
REMARK   14  A    between atoms: C_25  and  O_26
REMARK                            x       y       z     vdW  Elec       q    Type
REMARK                         _______ _______ _______ _____ _____    ______ ____
ROOT
ATOM      1  C   UNL     1       2.962   6.360  18.776  0.00  0.00    +0.000 C 
ATOM      2  C   UNL     1       4.416   6.584  19.218  0.00  0.00    +0.000 C 
ATOM      3  C   UNL     1       2.228   5.819  20.013  0.00  0.00    +0.000 C 
ATOM      4  O   UNL     1       2.304   4.645  20.382  0.00  0.00    +0.000 OA
ATOM      5  C   UNL     1       1.468   6.758  20.885  0.00  0.00    +0.000 C 
ATOM      6  C   UNL     1       1.313   8.050  20.565  0.00  0.00    +0.000 C 
ATOM      7  C   UNL     1       0.624   8.968  21.463  0.00  0.00    +0.000 C 
ATOM      8  C   UNL     1       0.602  10.302  21.207  0.00  0.00    +0.000 C 
ATOM      9  N   UNL     1       1.198  10.822  19.999  0.00  0.00    +0.000 N 
ATOM     10  C   UNL     1       1.769   9.896  19.107  0.00  0.00    +0.000 C 
ATOM     11  C   UNL     1       1.822   8.574  19.319  0.00  0.00    +0.000 C 
ATOM     12  C   UNL     1       2.352   7.670  18.280  0.00  0.00    +0.000 C 
ATOM     13  O   UNL     1       2.258   7.986  17.093  0.00  0.00    +0.000 OA
ENDROOT
BRANCH   8  14
ATOM     14  C   UNL     1      -0.071  11.240  22.144  0.00  0.00    +0.000 C 
ATOM     15  C   UNL     1      -1.545  11.575  22.005  0.00  0.00    +0.000 C 
ATOM     16  C   UNL     1      -1.085  10.693  23.121  0.00  0.00    +0.000 C 
ENDBRANCH   8  14
BRANCH   1  17
ATOM     17  O   UNL     1       2.794   5.352  17.754  0.00  0.00    +0.000 OA
BRANCH  17  18
ATOM     18  C   UNL     1       3.827   4.515  17.477  0.00  0.00    +0.000 C 
ATOM     19  O   UNL     1       4.152   3.539  18.135  0.00  0.00    +0.000 OA
BRANCH  18  20
ATOM     20  C   UNL     1       4.597   5.004  16.276  0.00  0.00    +0.000 C 
BRANCH  20  21
ATOM     21  C   UNL     1       5.801   4.104  16.022  0.00  0.00    +0.000 C 
BRANCH  21  22
ATOM     22  C   UNL     1       7.077   4.906  16.084  0.00  0.00    +0.000 C 
ATOM     23  O   UNL     1       7.300   5.901  15.408  0.00  0.00    +0.000 OA
BRANCH  22  25
ATOM     24  C   UNL     1       7.678   4.847  18.339  0.00  0.00    +0.000 C 
ATOM     25  O   UNL     1       7.923   4.382  17.011  0.00  0.00    +0.000 OA
ENDBRANCH  22  25
ENDBRANCH  21  22
ENDBRANCH  20  21
ENDBRANCH  18  20
ENDBRANCH  17  18
ENDBRANCH   1  17
BRANCH   9  26
ATOM     26  C   UNL     1       1.191  12.301  19.671  0.00  0.00    +0.000 C 
BRANCH  26  27
ATOM     27  C   UNL     1       2.432  12.994  20.270  0.00  0.00    +0.000 C 
BRANCH  27  28
ATOM     28  O   UNL     1       2.495  14.377  19.924  0.00  0.00    +0.000 OA
ATOM     29  H   UNL     1       2.650  14.402  18.962  0.00  0.00    +0.000 HD
ENDBRANCH  27  28
ENDBRANCH  26  27
BRANCH  26  30
ATOM     30  C   UNL     1       1.120  12.631  18.156  0.00  0.00    +0.000 C 
BRANCH  30  31
ATOM     31  O   UNL     1       2.410  12.790  17.569  0.00  0.00    +0.000 OA
ATOM     32  H   UNL     1       2.867  11.935  17.646  0.00  0.00    +0.000 HD
ENDBRANCH  30  31
ENDBRANCH  26  30
ENDBRANCH   9  26
TORSDOF 12
ENDMDL
MODEL 8
REMARK VINA RESULT:      -6.6      4.421     10.059
REMARK  Name = 
REMARK  14 active torsions:
REMARK  status: ('A' for Active; 'I' for Inactive)
REMARK    1  A    between atoms: C_1  and  O_2
REMARK    2  A    between atoms: O_2  and  C_3
REMARK    3  A    between atoms: C_3  and  C_5
REMARK    4  A    between atoms: C_5  and  C_6
REMARK    5  A    between atoms: C_6  and  C_7
REMARK    6  A    between atoms: C_7  and  O_9
REMARK    7  A    between atoms: O_9  and  C_10
REMARK    8  A    between atoms: C_10  and  C_11
REMARK    9  A    between atoms: C_17  and  C_18
REMARK   10  A    between atoms: N_21  and  C_22
REMARK   11  A    between atoms: C_22  and  C_23
REMARK   12  A    between atoms: C_22  and  C_25
REMARK   13  A    between atoms: C_23  and  O_24
REMARK   14  A    between atoms: C_25  and  O_26
REMARK                            x       y       z     vdW  Elec       q    Type
REMARK                         _______ _______ _______ _____ _____    ______ ____
ROOT
ATOM      1  C   UNL     1       0.667   9.737  20.986  0.00  0.00    +0.000 C 
ATOM      2  C   UNL     1       1.785  10.154  21.953  0.00  0.00    +0.000 C 
ATOM      3  C   UNL     1       1.124  10.203  19.594  0.00  0.00    +0.000 C 
ATOM      4  O   UNL     1       1.030  11.371  19.211  0.00  0.00    +0.000 OA
ATOM      5  C   UNL     1       1.811   9.242  18.687  0.00  0.00    +0.000 C 
ATOM      6  C   UNL     1       1.950   7.948  19.004  0.00  0.00    +0.000 C 
ATOM      7  C   UNL     1       2.684   7.037  18.135  0.00  0.00    +0.000 C 
ATOM      8  C   UNL     1       2.951   5.765  18.532  0.00  0.00    +0.000 C 
ATOM      9  N   UNL     1       2.447   5.273  19.792  0.00  0.00    +0.000 N 
ATOM     10  C   UNL     1       1.659   6.150  20.561  0.00  0.00    +0.000 C 
ATOM     11  C   UNL     1       1.375   7.413  20.217  0.00  0.00    +0.000 C 
ATOM     12  C   UNL     1       0.457   8.224  21.039  0.00  0.00    +0.000 C 
ATOM     13  O   UNL     1      -0.427   7.669  21.692  0.00  0.00    +0.000 OA
ENDROOT
BRANCH   8  14
ATOM     14  C   UNL     1       3.731   4.850  17.658  0.00  0.00    +0.000 C 
ATOM     15  C   UNL     1       4.735   5.381  16.651  0.00  0.00    +0.000 C 
ATOM     16  C   UNL     1       5.216   4.704  17.894  0.00  0.00    +0.000 C 
ENDBRANCH   8  14
BRANCH   1  17
ATOM     17  O   UNL     1      -0.600  10.391  21.217  0.00  0.00    +0.000 OA
BRANCH  17  18
ATOM     18  C   UNL     1      -0.812  11.019  22.403  0.00  0.00    +0.000 C 
ATOM     19  O   UNL     1      -0.971  10.471  23.483  0.00  0.00    +0.000 OA
BRANCH  18  20
ATOM     20  C   UNL     1      -0.917  12.510  22.202  0.00  0.00    +0.000 C 
BRANCH  20  21
ATOM     21  C   UNL     1      -2.031  13.081  23.071  0.00  0.00    +0.000 C 
BRANCH  21  22
ATOM     22  C   UNL     1      -3.360  12.955  22.369  0.00  0.00    +0.000 C 
ATOM     23  O   UNL     1      -3.606  13.427  21.267  0.00  0.00    +0.000 OA
BRANCH  22  25
ATOM     24  C   UNL     1      -4.157  12.511  24.518  0.00  0.00    +0.000 C 
ATOM     25  O   UNL     1      -4.227  12.224  23.120  0.00  0.00    +0.000 OA
ENDBRANCH  22  25
ENDBRANCH  21  22
ENDBRANCH  20  21
ENDBRANCH  18  20
ENDBRANCH  17  18
ENDBRANCH   1  17
BRANCH   9  26
ATOM     26  C   UNL     1       2.716   3.862  20.270  0.00  0.00    +0.000 C 
BRANCH  26  27
ATOM     27  C   UNL     1       2.351   3.717  21.762  0.00  0.00    +0.000 C 
BRANCH  27  28
ATOM     28  O   UNL     1       1.607   2.527  22.022  0.00  0.00    +0.000 OA
ATOM     29  H   UNL     1       0.723   2.825  22.303  0.00  0.00    +0.000 HD
ENDBRANCH  27  28
ENDBRANCH  26  27
BRANCH  26  30
ATOM     30  C   UNL     1       1.983   2.753  19.470  0.00  0.00    +0.000 C 
BRANCH  30  31
ATOM     31  O   UNL     1       0.581   2.990  19.363  0.00  0.00    +0.000 OA
ATOM     32  H   UNL     1       0.176   2.168  19.033  0.00  0.00    +0.000 HD
ENDBRANCH  30  31
ENDBRANCH  26  30
ENDBRANCH   9  26
TORSDOF 12
ENDMDL
MODEL 9
REMARK VINA RESULT:      -6.6      3.228      5.485
REMARK  Name = 
REMARK  14 active torsions:
REMARK  status: ('A' for Active; 'I' for Inactive)
REMARK    1  A    between atoms: C_1  and  O_2
REMARK    2  A    between atoms: O_2  and  C_3
REMARK    3  A    between atoms: C_3  and  C_5
REMARK    4  A    between atoms: C_5  and  C_6
REMARK    5  A    between atoms: C_6  and  C_7
REMARK    6  A    between atoms: C_7  and  O_9
REMARK    7  A    between atoms: O_9  and  C_10
REMARK    8  A    between atoms: C_10  and  C_11
REMARK    9  A    between atoms: C_17  and  C_18
REMARK   10  A    between atoms: N_21  and  C_22
REMARK   11  A    between atoms: C_22  and  C_23
REMARK   12  A    between atoms: C_22  and  C_25
REMARK   13  A    between atoms: C_23  and  O_24
REMARK   14  A    between atoms: C_25  and  O_26
REMARK                            x       y       z     vdW  Elec       q    Type
REMARK                         _______ _______ _______ _____ _____    ______ ____
ROOT
ATOM      1  C   UNL     1       3.643   4.928  18.079  0.00  0.00    +0.000 C 
ATOM      2  C   UNL     1       2.423   4.188  17.509  0.00  0.00    +0.000 C 
ATOM      3  C   UNL     1       4.136   5.850  16.952  0.00  0.00    +0.000 C 
ATOM      4  O   UNL     1       4.814   5.451  16.003  0.00  0.00    +0.000 OA
ATOM      5  C   UNL     1       3.703   7.275  16.927  0.00  0.00    +0.000 C 
ATOM      6  C   UNL     1       2.977   7.810  17.918  0.00  0.00    +0.000 C 
ATOM      7  C   UNL     1       2.505   9.186  17.844  0.00  0.00    +0.000 C 
ATOM      8  C   UNL     1       1.647   9.676  18.777  0.00  0.00    +0.000 C 
ATOM      9  N   UNL     1       1.248   8.860  19.900  0.00  0.00    +0.000 N 
ATOM     10  C   UNL     1       1.800   7.570  19.991  0.00  0.00    +0.000 C 
ATOM     11  C   UNL     1       2.643   7.040  19.094  0.00  0.00    +0.000 C 
ATOM     12  C   UNL     1       3.249   5.715  19.328  0.00  0.00    +0.000 C 
ATOM     13  O   UNL     1       3.430   5.323  20.481  0.00  0.00    +0.000 OA
ENDROOT
BRANCH   8  14
ATOM     14  C   UNL     1       1.139  11.070  18.678  0.00  0.00    +0.000 C 
ATOM     15  C   UNL     1       1.746  12.193  19.498  0.00  0.00    +0.000 C 
ATOM     16  C   UNL     1       2.009  12.119  18.029  0.00  0.00    +0.000 C 
ENDBRANCH   8  14
BRANCH   1  17
ATOM     17  O   UNL     1       4.765   4.075  18.401  0.00  0.00    +0.000 OA
BRANCH  17  18
ATOM     18  C   UNL     1       6.023   4.511  18.134  0.00  0.00    +0.000 C 
ATOM     19  O   UNL     1       6.755   4.085  17.256  0.00  0.00    +0.000 OA
BRANCH  18  20
ATOM     20  C   UNL     1       6.447   5.553  19.140  0.00  0.00    +0.000 C 
BRANCH  20  21
ATOM     21  C   UNL     1       7.880   5.994  18.868  0.00  0.00    +0.000 C 
BRANCH  21  22
ATOM     22  C   UNL     1       7.891   7.277  18.075  0.00  0.00    +0.000 C 
ATOM     23  O   UNL     1       7.368   7.415  16.978  0.00  0.00    +0.000 OA
BRANCH  22  25
ATOM     24  C   UNL     1       8.463   9.539  18.145  0.00  0.00    +0.000 C 
ATOM     25  O   UNL     1       8.538   8.255  18.765  0.00  0.00    +0.000 OA
ENDBRANCH  22  25
ENDBRANCH  21  22
ENDBRANCH  20  21
ENDBRANCH  18  20
ENDBRANCH  17  18
ENDBRANCH   1  17
BRANCH   9  26
ATOM     26  C   UNL     1       0.299   9.368  20.965  0.00  0.00    +0.000 C 
BRANCH  26  27
ATOM     27  C   UNL     1      -0.531   8.205  21.549  0.00  0.00    +0.000 C 
BRANCH  27  28
ATOM     28  O   UNL     1      -0.885   8.428  22.913  0.00  0.00    +0.000 OA
ATOM     29  H   UNL     1      -1.430   7.663  23.173  0.00  0.00    +0.000 HD
ENDBRANCH  27  28
ENDBRANCH  26  27
BRANCH  26  30
ATOM     30  C   UNL     1       0.979  10.128  22.134  0.00  0.00    +0.000 C 
BRANCH  30  31
ATOM     31  O   UNL     1       1.929   9.325  22.831  0.00  0.00    +0.000 OA
ATOM     32  H   UNL     1       1.805   8.408  22.529  0.00  0.00    +0.000 HD
ENDBRANCH  30  31
ENDBRANCH  26  30
ENDBRANCH   9  26
TORSDOF 12
ENDMDL
