MODEL 1
REMARK VINA RESULT:      -7.8      0.000      0.000
REMARK  Name = 
REMARK  10 active torsions:
REMARK  status: ('A' for Active; 'I' for Inactive)
REMARK    1  A    between atoms: C_1  and  O_2
REMARK    2  A    between atoms: O_2  and  C_3
REMARK    3  A    between atoms: C_5  and  C_6
REMARK    4  A    between atoms: N_13  and  C_14
REMARK    5  A    between atoms: C_14  and  C_15
REMARK    6  A    between atoms: C_15  and  C_16
REMARK    7  A    between atoms: C_25  and  O_26
REMARK    8  A    between atoms: O_26  and  C_27
REMARK    9  A    between atoms: C_28  and  O_29
REMARK   10  A    between atoms: O_29  and  C_30
REMARK                            x       y       z     vdW  Elec       q    Type
REMARK                         _______ _______ _______ _____ _____    ______ ____
ROOT
ATOM      1  C   UNL     1       1.940   6.182  20.232  0.00  0.00    +0.000 A 
ATOM      2  N   UNL     1       1.270   5.243  20.883  0.00  0.00    +0.000 NA
ATOM      3  N   UNL     1       1.842   4.021  20.604  0.00  0.00    +0.000 NA
ATOM      4  C   UNL     1       2.864   4.249  19.821  0.00  0.00    +0.000 A 
ATOM      5  N   UNL     1       2.999   5.588  19.552  0.00  0.00    +0.000 N 
ATOM      6  N   UNL     1       3.938   6.228  18.777  0.00  0.00    +0.000 NA
ATOM      7  C   UNL     1       5.027   5.564  18.485  0.00  0.00    +0.000 C 
ATOM      8  N   UNL     1       5.913   6.209  17.644  0.00  0.00    +0.000 N 
ATOM      9  C   UNL     1       5.397   4.210  19.099  0.00  0.00    +0.000 C 
ATOM     10  S   UNL     1       3.970   3.107  19.161  0.00  0.00    +0.000 S 
ATOM     11  H   UNL     1       5.508   7.071  17.278  0.00  0.00    +0.000 HD
ENDROOT
BRANCH   1  14
ATOM     12  C   UNL     1       1.359   9.749  19.192  0.00  0.00    +0.000 A 
ATOM     13  C   UNL     1       1.801   8.415  19.178  0.00  0.00    +0.000 A 
ATOM     14  C   UNL     1       1.734   7.627  20.327  0.00  0.00    +0.000 A 
ATOM     15  C   UNL     1       1.378   8.238  21.525  0.00  0.00    +0.000 A 
ATOM     16  C   UNL     1       1.003   9.585  21.585  0.00  0.00    +0.000 A 
ATOM     17  C   UNL     1       0.981  10.364  20.409  0.00  0.00    +0.000 A 
BRANCH  12  19
ATOM     18  C   UNL     1       2.357  11.409  17.823  0.00  0.00    +0.000 C 
ATOM     19  O   UNL     1       1.307  10.460  18.019  0.00  0.00    +0.000 OA
ENDBRANCH  12  19
BRANCH  16  20
ATOM     20  O   UNL     1       0.656   9.932  22.867  0.00  0.00    +0.000 OA
ATOM     21  C   UNL     1      -0.712  10.012  23.229  0.00  0.00    +0.000 C 
ENDBRANCH  16  20
BRANCH  17  22
ATOM     22  O   UNL     1       0.588  11.663  20.570  0.00  0.00    +0.000 OA
ATOM     23  C   UNL     1      -0.712  12.087  20.202  0.00  0.00    +0.000 C 
ENDBRANCH  17  22
ENDBRANCH   1  14
BRANCH   8  24
ATOM     24  C   UNL     1       6.767   5.503  16.697  0.00  0.00    +0.000 C 
BRANCH  24  25
ATOM     25  C   UNL     1       5.998   4.432  15.917  0.00  0.00    +0.000 C 
BRANCH  25  26
ATOM     26  C   UNL     1       6.409   4.440  14.460  0.00  0.00    +0.000 A 
ATOM     27  C   UNL     1       5.802   3.566  13.549  0.00  0.00    +0.000 A 
ATOM     28  C   UNL     1       6.220   3.534  12.218  0.00  0.00    +0.000 A 
ATOM     29  C   UNL     1       7.250   4.369  11.788  0.00  0.00    +0.000 A 
ATOM     30  C   UNL     1       7.860   5.241  12.685  0.00  0.00    +0.000 A 
ATOM     31  C   UNL     1       7.447   5.275  14.019  0.00  0.00    +0.000 A 
ENDBRANCH  25  26
ENDBRANCH  24  25
ENDBRANCH   8  24
TORSDOF 7
ENDMDL
MODEL 2
REMARK VINA RESULT:      -7.7      4.398     10.010
REMARK  Name = 
REMARK  10 active torsions:
REMARK  status: ('A' for Active; 'I' for Inactive)
REMARK    1  A    between atoms: C_1  and  O_2
REMARK    2  A    between atoms: O_2  and  C_3
REMARK    3  A    between atoms: C_5  and  C_6
REMARK    4  A    between atoms: N_13  and  C_14
REMARK    5  A    between atoms: C_14  and  C_15
REMARK    6  A    between atoms: C_15  and  C_16
REMARK    7  A    between atoms: C_25  and  O_26
REMARK    8  A    between atoms: O_26  and  C_27
REMARK    9  A    between atoms: C_28  and  O_29
REMARK   10  A    between atoms: O_29  and  C_30
REMARK                            x       y       z     vdW  Elec       q    Type
REMARK                         _______ _______ _______ _____ _____    ______ ____
ROOT
ATOM      1  C   UNL     1       2.302   7.728  18.562  0.00  0.00    +0.000 A 
ATOM      2  N   UNL     1       2.559   8.316  17.404  0.00  0.00    +0.000 NA
ATOM      3  N   UNL     1       2.048   9.595  17.436  0.00  0.00    +0.000 NA
ATOM      4  C   UNL     1       1.525   9.765  18.624  0.00  0.00    +0.000 A 
ATOM      5  N   UNL     1       1.658   8.638  19.395  0.00  0.00    +0.000 N 
ATOM      6  N   UNL     1       1.243   8.416  20.687  0.00  0.00    +0.000 NA
ATOM      7  C   UNL     1       0.954   9.466  21.412  0.00  0.00    +0.000 C 
ATOM      8  N   UNL     1       0.469   9.203  22.679  0.00  0.00    +0.000 N 
ATOM      9  C   UNL     1       1.222  10.910  20.976  0.00  0.00    +0.000 C 
ATOM     10  S   UNL     1       0.758  11.172  19.252  0.00  0.00    +0.000 S 
ATOM     11  H   UNL     1       0.295   8.205  22.804  0.00  0.00    +0.000 HD
ENDROOT
BRANCH   1  14
ATOM     12  C   UNL     1       2.189   4.156  19.733  0.00  0.00    +0.000 A 
ATOM     13  C   UNL     1       1.849   5.507  19.552  0.00  0.00    +0.000 A 
ATOM     14  C   UNL     1       2.756   6.404  18.989  0.00  0.00    +0.000 A 
ATOM     15  C   UNL     1       4.059   5.970  18.765  0.00  0.00    +0.000 A 
ATOM     16  C   UNL     1       4.449   4.648  19.005  0.00  0.00    +0.000 A 
ATOM     17  C   UNL     1       3.510   3.713  19.489  0.00  0.00    +0.000 A 
BRANCH  12  19
ATOM     18  C   UNL     1       1.356   2.834  21.518  0.00  0.00    +0.000 C 
ATOM     19  O   UNL     1       1.235   3.267  20.161  0.00  0.00    +0.000 OA
ENDBRANCH  12  19
BRANCH  16  20
ATOM     20  O   UNL     1       5.766   4.465  18.663  0.00  0.00    +0.000 OA
ATOM     21  C   UNL     1       6.722   5.460  18.985  0.00  0.00    +0.000 C 
ENDBRANCH  16  20
BRANCH  17  22
ATOM     22  O   UNL     1       3.985   2.445  19.677  0.00  0.00    +0.000 OA
ATOM     23  C   UNL     1       3.803   1.440  18.696  0.00  0.00    +0.000 C 
ENDBRANCH  17  22
ENDBRANCH   1  14
BRANCH   8  24
ATOM     24  C   UNL     1      -0.491  10.065  23.357  0.00  0.00    +0.000 C 
BRANCH  24  25
ATOM     25  C   UNL     1      -1.288  10.925  22.372  0.00  0.00    +0.000 C 
BRANCH  25  26
ATOM     26  C   UNL     1      -1.843  12.150  23.067  0.00  0.00    +0.000 A 
ATOM     27  C   UNL     1      -3.153  12.150  23.563  0.00  0.00    +0.000 A 
ATOM     28  C   UNL     1      -3.683  13.297  24.154  0.00  0.00    +0.000 A 
ATOM     29  C   UNL     1      -2.913  14.455  24.250  0.00  0.00    +0.000 A 
ATOM     30  C   UNL     1      -1.609  14.466  23.761  0.00  0.00    +0.000 A 
ATOM     31  C   UNL     1      -1.075  13.321  23.166  0.00  0.00    +0.000 A 
ENDBRANCH  25  26
ENDBRANCH  24  25
ENDBRANCH   8  24
TORSDOF 7
ENDMDL
MODEL 3
REMARK VINA RESULT:      -7.6      0.320      2.442
REMARK  Name = 
REMARK  10 active torsions:
REMARK  status: ('A' for Active; 'I' for Inactive)
REMARK    1  A    between atoms: C_1  and  O_2
REMARK    2  A    between atoms: O_2  and  C_3
REMARK    3  A    between atoms: C_5  and  C_6
REMARK    4  A    between atoms: N_13  and  C_14
REMARK    5  A    between atoms: C_14  and  C_15
REMARK    6  A    between atoms: C_15  and  C_16
REMARK    7  A    between atoms: C_25  and  O_26
REMARK    8  A    between atoms: O_26  and  C_27
REMARK    9  A    between atoms: C_28  and  O_29
REMARK   10  A    between atoms: O_29  and  C_30
REMARK                            x       y       z     vdW  Elec       q    Type
REMARK                         _______ _______ _______ _____ _____    ______ ____
ROOT
ATOM      1  C   UNL     1       1.930   6.166  20.360  0.00  0.00    +0.000 A 
ATOM      2  N   UNL     1       1.502   5.187  21.143  0.00  0.00    +0.000 NA
ATOM      3  N   UNL     1       2.254   4.060  20.890  0.00  0.00    +0.000 NA
ATOM      4  C   UNL     1       3.142   4.390  19.987  0.00  0.00    +0.000 A 
ATOM      5  N   UNL     1       3.010   5.704  19.613  0.00  0.00    +0.000 N 
ATOM      6  N   UNL     1       3.742   6.425  18.699  0.00  0.00    +0.000 NA
ATOM      7  C   UNL     1       4.901   5.934  18.339  0.00  0.00    +0.000 C 
ATOM      8  N   UNL     1       5.575   6.645  17.365  0.00  0.00    +0.000 N 
ATOM      9  C   UNL     1       5.562   4.721  19.002  0.00  0.00    +0.000 C 
ATOM     10  S   UNL     1       4.367   3.401  19.293  0.00  0.00    +0.000 S 
ATOM     11  H   UNL     1       4.990   7.390  16.985  0.00  0.00    +0.000 HD
ENDROOT
BRANCH   1  14
ATOM     12  C   UNL     1       0.867   9.524  21.676  0.00  0.00    +0.000 A 
ATOM     13  C   UNL     1       1.059   8.136  21.574  0.00  0.00    +0.000 A 
ATOM     14  C   UNL     1       1.479   7.557  20.376  0.00  0.00    +0.000 A 
ATOM     15  C   UNL     1       1.540   8.361  19.242  0.00  0.00    +0.000 A 
ATOM     16  C   UNL     1       1.282   9.735  19.296  0.00  0.00    +0.000 A 
ATOM     17  C   UNL     1       0.947  10.342  20.524  0.00  0.00    +0.000 A 
BRANCH  12  19
ATOM     18  C   UNL     1      -0.799  10.210  23.219  0.00  0.00    +0.000 C 
ATOM     19  O   UNL     1       0.587  10.085  22.897  0.00  0.00    +0.000 OA
ENDBRANCH  12  19
BRANCH  16  20
ATOM     20  O   UNL     1       1.453  10.305  18.059  0.00  0.00    +0.000 OA
ATOM     21  C   UNL     1       2.499  11.239  17.852  0.00  0.00    +0.000 C 
ENDBRANCH  16  20
BRANCH  17  22
ATOM     22  O   UNL     1       0.727  11.690  20.474  0.00  0.00    +0.000 OA
ATOM     23  C   UNL     1      -0.540  12.215  20.121  0.00  0.00    +0.000 C 
ENDBRANCH  17  22
ENDBRANCH   1  14
BRANCH   8  24
ATOM     24  C   UNL     1       6.448   6.015  16.383  0.00  0.00    +0.000 C 
BRANCH  24  25
ATOM     25  C   UNL     1       5.824   4.750  15.786  0.00  0.00    +0.000 C 
BRANCH  25  26
ATOM     26  C   UNL     1       6.330   4.524  14.377  0.00  0.00    +0.000 A 
ATOM     27  C   UNL     1       7.418   5.259  13.889  0.00  0.00    +0.000 A 
ATOM     28  C   UNL     1       7.848   5.091  12.572  0.00  0.00    +0.000 A 
ATOM     29  C   UNL     1       7.194   4.192  11.731  0.00  0.00    +0.000 A 
ATOM     30  C   UNL     1       6.112   3.456  12.207  0.00  0.00    +0.000 A 
ATOM     31  C   UNL     1       5.676   3.623  13.523  0.00  0.00    +0.000 A 
ENDBRANCH  25  26
ENDBRANCH  24  25
ENDBRANCH   8  24
TORSDOF 7
ENDMDL
MODEL 4
REMARK VINA RESULT:      -7.6      4.550      9.493
REMARK  Name = 
REMARK  10 active torsions:
REMARK  status: ('A' for Active; 'I' for Inactive)
REMARK    1  A    between atoms: C_1  and  O_2
REMARK    2  A    between atoms: O_2  and  C_3
REMARK    3  A    between atoms: C_5  and  C_6
REMARK    4  A    between atoms: N_13  and  C_14
REMARK    5  A    between atoms: C_14  and  C_15
REMARK    6  A    between atoms: C_15  and  C_16
REMARK    7  A    between atoms: C_25  and  O_26
REMARK    8  A    between atoms: O_26  and  C_27
REMARK    9  A    between atoms: C_28  and  O_29
REMARK   10  A    between atoms: O_29  and  C_30
REMARK                            x       y       z     vdW  Elec       q    Type
REMARK                         _______ _______ _______ _____ _____    ______ ____
ROOT
ATOM      1  C   UNL     1       1.315   8.802  20.951  0.00  0.00    +0.000 A 
ATOM      2  N   UNL     1       1.528   9.178  22.204  0.00  0.00    +0.000 NA
ATOM      3  N   UNL     1       0.820  10.336  22.442  0.00  0.00    +0.000 NA
ATOM      4  C   UNL     1       0.168  10.616  21.343  0.00  0.00    +0.000 A 
ATOM      5  N   UNL     1       0.418   9.688  20.363  0.00  0.00    +0.000 N 
ATOM      6  N   UNL     1      -0.070   9.629  19.078  0.00  0.00    +0.000 NA
ATOM      7  C   UNL     1      -1.131  10.345  18.807  0.00  0.00    +0.000 C 
ATOM      8  N   UNL     1      -1.548  10.320  17.490  0.00  0.00    +0.000 N 
ATOM      9  C   UNL     1      -1.958  11.087  19.862  0.00  0.00    +0.000 C 
ATOM     10  S   UNL     1      -0.898  11.935  21.050  0.00  0.00    +0.000 S 
ATOM     11  H   UNL     1      -0.872   9.833  16.902  0.00  0.00    +0.000 HD
ENDROOT
BRANCH   1  14
ATOM     12  C   UNL     1       1.662   5.148  20.135  0.00  0.00    +0.000 A 
ATOM     13  C   UNL     1       1.441   6.334  20.854  0.00  0.00    +0.000 A 
ATOM     14  C   UNL     1       1.790   7.573  20.316  0.00  0.00    +0.000 A 
ATOM     15  C   UNL     1       2.512   7.595  19.127  0.00  0.00    +0.000 A 
ATOM     16  C   UNL     1       2.811   6.424  18.422  0.00  0.00    +0.000 A 
ATOM     17  C   UNL     1       2.380   5.174  18.916  0.00  0.00    +0.000 A 
BRANCH  12  19
ATOM     18  C   UNL     1       2.011   3.315  21.599  0.00  0.00    +0.000 C 
ATOM     19  O   UNL     1       1.187   3.957  20.624  0.00  0.00    +0.000 OA
ENDBRANCH  12  19
BRANCH  16  20
ATOM     20  O   UNL     1       3.487   6.718  17.264  0.00  0.00    +0.000 OA
ATOM     21  C   UNL     1       4.904   6.741  17.262  0.00  0.00    +0.000 C 
ENDBRANCH  16  20
BRANCH  17  22
ATOM     22  O   UNL     1       2.710   4.093  18.149  0.00  0.00    +0.000 OA
ATOM     23  C   UNL     1       3.889   3.348  18.399  0.00  0.00    +0.000 C 
ENDBRANCH  17  22
ENDBRANCH   1  14
BRANCH   8  24
ATOM     24  C   UNL     1      -2.196  11.453  16.841  0.00  0.00    +0.000 C 
BRANCH  24  25
ATOM     25  C   UNL     1      -3.447  11.033  16.065  0.00  0.00    +0.000 C 
BRANCH  25  26
ATOM     26  C   UNL     1      -4.691  11.274  16.894  0.00  0.00    +0.000 A 
ATOM     27  C   UNL     1      -5.484  12.406  16.668  0.00  0.00    +0.000 A 
ATOM     28  C   UNL     1      -6.598  12.657  17.469  0.00  0.00    +0.000 A 
ATOM     29  C   UNL     1      -6.927  11.783  18.505  0.00  0.00    +0.000 A 
ATOM     30  C   UNL     1      -6.145  10.655  18.738  0.00  0.00    +0.000 A 
ATOM     31  C   UNL     1      -5.027  10.401  17.940  0.00  0.00    +0.000 A 
ENDBRANCH  25  26
ENDBRANCH  24  25
ENDBRANCH   8  24
TORSDOF 7
ENDMDL
MODEL 5
REMARK VINA RESULT:      -7.5      3.330      9.135
REMARK  Name = 
REMARK  10 active torsions:
REMARK  status: ('A' for Active; 'I' for Inactive)
REMARK    1  A    between atoms: C_1  and  O_2
REMARK    2  A    between atoms: O_2  and  C_3
REMARK    3  A    between atoms: C_5  and  C_6
REMARK    4  A    between atoms: N_13  and  C_14
REMARK    5  A    between atoms: C_14  and  C_15
REMARK    6  A    between atoms: C_15  and  C_16
REMARK    7  A    between atoms: C_25  and  O_26
REMARK    8  A    between atoms: O_26  and  C_27
REMARK    9  A    between atoms: C_28  and  O_29
REMARK   10  A    between atoms: O_29  and  C_30
REMARK                            x       y       z     vdW  Elec       q    Type
REMARK                         _______ _______ _______ _____ _____    ______ ____
ROOT
ATOM      1  C   UNL     1       4.349   3.471  17.566  0.00  0.00    +0.000 A 
ATOM      2  N   UNL     1       4.111   2.182  17.757  0.00  0.00    +0.000 NA
ATOM      3  N   UNL     1       3.155   2.052  18.742  0.00  0.00    +0.000 NA
ATOM      4  C   UNL     1       2.810   3.263  19.099  0.00  0.00    +0.000 A 
ATOM      5  N   UNL     1       3.509   4.210  18.393  0.00  0.00    +0.000 N 
ATOM      6  N   UNL     1       3.438   5.581  18.474  0.00  0.00    +0.000 NA
ATOM      7  C   UNL     1       2.384   6.093  19.058  0.00  0.00    +0.000 C 
ATOM      8  N   UNL     1       2.381   7.468  19.189  0.00  0.00    +0.000 N 
ATOM      9  C   UNL     1       1.159   5.278  19.484  0.00  0.00    +0.000 C 
ATOM     10  S   UNL     1       1.643   3.729  20.274  0.00  0.00    +0.000 S 
ATOM     11  H   UNL     1       3.281   7.863  18.912  0.00  0.00    +0.000 HD
ENDROOT
BRANCH   1  14
ATOM     12  C   UNL     1       7.027   5.586  15.987  0.00  0.00    +0.000 A 
ATOM     13  C   UNL     1       6.005   5.164  16.854  0.00  0.00    +0.000 A 
ATOM     14  C   UNL     1       5.217   4.056  16.544  0.00  0.00    +0.000 A 
ATOM     15  C   UNL     1       5.353   3.482  15.284  0.00  0.00    +0.000 A 
ATOM     16  C   UNL     1       6.313   3.928  14.368  0.00  0.00    +0.000 A 
ATOM     17  C   UNL     1       7.176   4.990  14.713  0.00  0.00    +0.000 A 
BRANCH  12  19
ATOM     18  C   UNL     1       7.462   7.347  17.516  0.00  0.00    +0.000 C 
ATOM     19  O   UNL     1       7.876   6.592  16.377  0.00  0.00    +0.000 OA
ENDBRANCH  12  19
BRANCH  16  20
ATOM     20  O   UNL     1       6.275   3.172  13.224  0.00  0.00    +0.000 OA
ATOM     21  C   UNL     1       5.209   3.339  12.304  0.00  0.00    +0.000 C 
ENDBRANCH  16  20
BRANCH  17  22
ATOM     22  O   UNL     1       8.087   5.342  13.757  0.00  0.00    +0.000 OA
ATOM     23  C   UNL     1       7.679   5.680  12.444  0.00  0.00    +0.000 C 
ENDBRANCH  17  22
ENDBRANCH   1  14
BRANCH   8  24
ATOM     24  C   UNL     1       1.746   8.159  20.304  0.00  0.00    +0.000 C 
BRANCH  24  25
ATOM     25  C   UNL     1       0.891   9.341  19.836  0.00  0.00    +0.000 C 
BRANCH  25  26
ATOM     26  C   UNL     1       0.094   9.908  20.991  0.00  0.00    +0.000 A 
ATOM     27  C   UNL     1      -0.475  11.185  20.900  0.00  0.00    +0.000 A 
ATOM     28  C   UNL     1      -1.161  11.730  21.985  0.00  0.00    +0.000 A 
ATOM     29  C   UNL     1      -1.282  11.008  23.171  0.00  0.00    +0.000 A 
ATOM     30  C   UNL     1      -0.720   9.739  23.273  0.00  0.00    +0.000 A 
ATOM     31  C   UNL     1      -0.030   9.189  22.191  0.00  0.00    +0.000 A 
ENDBRANCH  25  26
ENDBRANCH  24  25
ENDBRANCH   8  24
TORSDOF 7
ENDMDL
MODEL 6
REMARK VINA RESULT:      -7.5      3.836      8.587
REMARK  Name = 
REMARK  10 active torsions:
REMARK  status: ('A' for Active; 'I' for Inactive)
REMARK    1  A    between atoms: C_1  and  O_2
REMARK    2  A    between atoms: O_2  and  C_3
REMARK    3  A    between atoms: C_5  and  C_6
REMARK    4  A    between atoms: N_13  and  C_14
REMARK    5  A    between atoms: C_14  and  C_15
REMARK    6  A    between atoms: C_15  and  C_16
REMARK    7  A    between atoms: C_25  and  O_26
REMARK    8  A    between atoms: O_26  and  C_27
REMARK    9  A    between atoms: C_28  and  O_29
REMARK   10  A    between atoms: O_29  and  C_30
REMARK                            x       y       z     vdW  Elec       q    Type
REMARK                         _______ _______ _______ _____ _____    ______ ____
ROOT
ATOM      1  C   UNL     1       2.530   6.444  19.544  0.00  0.00    +0.000 A 
ATOM      2  N   UNL     1       1.989   5.752  20.535  0.00  0.00    +0.000 NA
ATOM      3  N   UNL     1       1.180   6.592  21.269  0.00  0.00    +0.000 NA
ATOM      4  C   UNL     1       1.221   7.763  20.687  0.00  0.00    +0.000 A 
ATOM      5  N   UNL     1       2.040   7.746  19.586  0.00  0.00    +0.000 N 
ATOM      6  N   UNL     1       2.346   8.765  18.715  0.00  0.00    +0.000 NA
ATOM      7  C   UNL     1       1.558   9.810  18.715  0.00  0.00    +0.000 C 
ATOM      8  N   UNL     1       1.938  10.846  17.884  0.00  0.00    +0.000 N 
ATOM      9  C   UNL     1       0.233   9.885  19.480  0.00  0.00    +0.000 C 
ATOM     10  S   UNL     1       0.395   9.203  21.142  0.00  0.00    +0.000 S 
ATOM     11  H   UNL     1       2.862  10.675  17.486  0.00  0.00    +0.000 HD
ENDROOT
BRANCH   1  14
ATOM     12  C   UNL     1       5.296   6.211  17.008  0.00  0.00    +0.000 A 
ATOM     13  C   UNL     1       4.309   6.745  17.854  0.00  0.00    +0.000 A 
ATOM     14  C   UNL     1       3.370   5.917  18.469  0.00  0.00    +0.000 A 
ATOM     15  C   UNL     1       3.328   4.578  18.096  0.00  0.00    +0.000 A 
ATOM     16  C   UNL     1       4.252   4.031  17.199  0.00  0.00    +0.000 A 
ATOM     17  C   UNL     1       5.262   4.844  16.643  0.00  0.00    +0.000 A 
BRANCH  12  19
ATOM     18  C   UNL     1       7.377   7.274  17.417  0.00  0.00    +0.000 C 
ATOM     19  O   UNL     1       6.290   7.025  16.524  0.00  0.00    +0.000 OA
ENDBRANCH  12  19
BRANCH  16  20
ATOM     20  O   UNL     1       4.025   2.687  17.033  0.00  0.00    +0.000 OA
ATOM     21  C   UNL     1       3.178   1.999  17.938  0.00  0.00    +0.000 C 
ENDBRANCH  16  20
BRANCH  17  22
ATOM     22  O   UNL     1       6.123   4.214  15.790  0.00  0.00    +0.000 OA
ATOM     23  C   UNL     1       5.899   4.212  14.391  0.00  0.00    +0.000 C 
ENDBRANCH  17  22
ENDBRANCH   1  14
BRANCH   8  24
ATOM     24  C   UNL     1       1.670  12.246  18.185  0.00  0.00    +0.000 C 
BRANCH  24  25
ATOM     25  C   UNL     1       2.941  13.099  18.135  0.00  0.00    +0.000 C 
BRANCH  25  26
ATOM     26  C   UNL     1       2.590  14.572  18.130  0.00  0.00    +0.000 A 
ATOM     27  C   UNL     1       1.431  15.026  18.772  0.00  0.00    +0.000 A 
ATOM     28  C   UNL     1       1.079  16.375  18.720  0.00  0.00    +0.000 A 
ATOM     29  C   UNL     1       1.878  17.281  18.023  0.00  0.00    +0.000 A 
ATOM     30  C   UNL     1       3.032  16.840  17.381  0.00  0.00    +0.000 A 
ATOM     31  C   UNL     1       3.387  15.490  17.428  0.00  0.00    +0.000 A 
ENDBRANCH  25  26
ENDBRANCH  24  25
ENDBRANCH   8  24
TORSDOF 7
ENDMDL
MODEL 7
REMARK VINA RESULT:      -7.5      3.262      8.900
REMARK  Name = 
REMARK  10 active torsions:
REMARK  status: ('A' for Active; 'I' for Inactive)
REMARK    1  A    between atoms: C_1  and  O_2
REMARK    2  A    between atoms: O_2  and  C_3
REMARK    3  A    between atoms: C_5  and  C_6
REMARK    4  A    between atoms: N_13  and  C_14
REMARK    5  A    between atoms: C_14  and  C_15
REMARK    6  A    between atoms: C_15  and  C_16
REMARK    7  A    between atoms: C_25  and  O_26
REMARK    8  A    between atoms: O_26  and  C_27
REMARK    9  A    between atoms: C_28  and  O_29
REMARK   10  A    between atoms: O_29  and  C_30
REMARK                            x       y       z     vdW  Elec       q    Type
REMARK                         _______ _______ _______ _____ _____    ______ ____
ROOT
ATOM      1  C   UNL     1       4.618   3.594  18.382  0.00  0.00    +0.000 A 
ATOM      2  N   UNL     1       4.558   2.340  18.805  0.00  0.00    +0.000 NA
ATOM      3  N   UNL     1       3.685   2.275  19.869  0.00  0.00    +0.000 NA
ATOM      4  C   UNL     1       3.209   3.481  20.044  0.00  0.00    +0.000 A 
ATOM      5  N   UNL     1       3.738   4.364  19.136  0.00  0.00    +0.000 N 
ATOM      6  N   UNL     1       3.497   5.711  18.991  0.00  0.00    +0.000 NA
ATOM      7  C   UNL     1       2.422   6.191  19.563  0.00  0.00    +0.000 C 
ATOM      8  N   UNL     1       2.250   7.557  19.461  0.00  0.00    +0.000 N 
ATOM      9  C   UNL     1       1.337   5.326  20.215  0.00  0.00    +0.000 C 
ATOM     10  S   UNL     1       2.061   4.008  21.212  0.00  0.00    +0.000 S 
ATOM     11  H   UNL     1       3.074   8.000  19.051  0.00  0.00    +0.000 HD
ENDROOT
BRANCH   1  14
ATOM     12  C   UNL     1       5.491   4.265  14.786  0.00  0.00    +0.000 A 
ATOM     13  C   UNL     1       4.997   3.630  15.938  0.00  0.00    +0.000 A 
ATOM     14  C   UNL     1       5.343   4.086  17.211  0.00  0.00    +0.000 A 
ATOM     15  C   UNL     1       6.317   5.074  17.314  0.00  0.00    +0.000 A 
ATOM     16  C   UNL     1       6.882   5.676  16.185  0.00  0.00    +0.000 A 
ATOM     17  C   UNL     1       6.469   5.282  14.895  0.00  0.00    +0.000 A 
BRANCH  12  19
ATOM     18  C   UNL     1       5.916   3.071  12.781  0.00  0.00    +0.000 C 
ATOM     19  O   UNL     1       5.030   3.887  13.550  0.00  0.00    +0.000 OA
ENDBRANCH  12  19
BRANCH  16  20
ATOM     20  O   UNL     1       7.779   6.647  16.555  0.00  0.00    +0.000 OA
ATOM     21  C   UNL     1       7.691   7.233  17.842  0.00  0.00    +0.000 C 
ENDBRANCH  16  20
BRANCH  17  22
ATOM     22  O   UNL     1       7.070   5.939  13.858  0.00  0.00    +0.000 OA
ATOM     23  C   UNL     1       8.190   5.386  13.191  0.00  0.00    +0.000 C 
ENDBRANCH  17  22
ENDBRANCH   1  14
BRANCH   8  24
ATOM     24  C   UNL     1       1.596   8.355  20.490  0.00  0.00    +0.000 C 
BRANCH  24  25
ATOM     25  C   UNL     1       0.786   9.510  19.895  0.00  0.00    +0.000 C 
BRANCH  25  26
ATOM     26  C   UNL     1       0.015  10.231  20.980  0.00  0.00    +0.000 A 
ATOM     27  C   UNL     1      -0.371  11.567  20.806  0.00  0.00    +0.000 A 
ATOM     28  C   UNL     1      -1.032  12.248  21.828  0.00  0.00    +0.000 A 
ATOM     29  C   UNL     1      -1.310  11.604  23.033  0.00  0.00    +0.000 A 
ATOM     30  C   UNL     1      -0.931  10.277  23.216  0.00  0.00    +0.000 A 
ATOM     31  C   UNL     1      -0.266   9.592  22.197  0.00  0.00    +0.000 A 
ENDBRANCH  25  26
ENDBRANCH  24  25
ENDBRANCH   8  24
TORSDOF 7
ENDMDL
MODEL 8
REMARK VINA RESULT:      -7.4      3.276      8.873
REMARK  Name = 
REMARK  10 active torsions:
REMARK  status: ('A' for Active; 'I' for Inactive)
REMARK    1  A    between atoms: C_1  and  O_2
REMARK    2  A    between atoms: O_2  and  C_3
REMARK    3  A    between atoms: C_5  and  C_6
REMARK    4  A    between atoms: N_13  and  C_14
REMARK    5  A    between atoms: C_14  and  C_15
REMARK    6  A    between atoms: C_15  and  C_16
REMARK    7  A    between atoms: C_25  and  O_26
REMARK    8  A    between atoms: O_26  and  C_27
REMARK    9  A    between atoms: C_28  and  O_29
REMARK   10  A    between atoms: O_29  and  C_30
REMARK                            x       y       z     vdW  Elec       q    Type
REMARK                         _______ _______ _______ _____ _____    ______ ____
ROOT
ATOM      1  C   UNL     1       4.370   3.143  17.657  0.00  0.00    +0.000 A 
ATOM      2  N   UNL     1       4.024   1.870  17.780  0.00  0.00    +0.000 NA
ATOM      3  N   UNL     1       2.974   1.783  18.670  0.00  0.00    +0.000 NA
ATOM      4  C   UNL     1       2.685   3.005  19.037  0.00  0.00    +0.000 A 
ATOM      5  N   UNL     1       3.512   3.918  18.431  0.00  0.00    +0.000 N 
ATOM      6  N   UNL     1       3.532   5.288  18.554  0.00  0.00    +0.000 NA
ATOM      7  C   UNL     1       2.468   5.859  19.059  0.00  0.00    +0.000 C 
ATOM      8  N   UNL     1       2.552   7.226  19.238  0.00  0.00    +0.000 N 
ATOM      9  C   UNL     1       1.154   5.126  19.344  0.00  0.00    +0.000 C 
ATOM     10  S   UNL     1       1.451   3.524  20.118  0.00  0.00    +0.000 S 
ATOM     11  H   UNL     1       3.499   7.562  19.057  0.00  0.00    +0.000 HD
ENDROOT
BRANCH   1  14
ATOM     12  C   UNL     1       6.206   3.881  14.460  0.00  0.00    +0.000 A 
ATOM     13  C   UNL     1       5.445   3.209  15.431  0.00  0.00    +0.000 A 
ATOM     14  C   UNL     1       5.367   3.690  16.738  0.00  0.00    +0.000 A 
ATOM     15  C   UNL     1       6.191   4.752  17.099  0.00  0.00    +0.000 A 
ATOM     16  C   UNL     1       7.016   5.396  16.171  0.00  0.00    +0.000 A 
ATOM     17  C   UNL     1       7.030   4.971  14.826  0.00  0.00    +0.000 A 
BRANCH  12  19
ATOM     18  C   UNL     1       4.862   3.476  12.547  0.00  0.00    +0.000 C 
ATOM     19  O   UNL     1       6.157   3.467  13.152  0.00  0.00    +0.000 OA
ENDBRANCH  12  19
BRANCH  16  20
ATOM     20  O   UNL     1       7.690   6.434  16.765  0.00  0.00    +0.000 OA
ATOM     21  C   UNL     1       6.967   7.445  17.445  0.00  0.00    +0.000 C 
ENDBRANCH  16  20
BRANCH  17  22
ATOM     22  O   UNL     1       7.858   5.673  13.995  0.00  0.00    +0.000 OA
ATOM     23  C   UNL     1       7.985   5.332  12.626  0.00  0.00    +0.000 C 
ENDBRANCH  17  22
ENDBRANCH   1  14
BRANCH   8  24
ATOM     24  C   UNL     1       1.867   7.931  20.314  0.00  0.00    +0.000 C 
BRANCH  24  25
ATOM     25  C   UNL     1       1.061   9.126  19.799  0.00  0.00    +0.000 C 
BRANCH  25  26
ATOM     26  C   UNL     1       0.356   9.823  20.943  0.00  0.00    +0.000 A 
ATOM     27  C   UNL     1       0.057   9.125  22.121  0.00  0.00    +0.000 A 
ATOM     28  C   UNL     1      -0.642   9.752  23.153  0.00  0.00    +0.000 A 
ATOM     29  C   UNL     1      -1.054  11.077  23.016  0.00  0.00    +0.000 A 
ATOM     30  C   UNL     1      -0.763  11.779  21.849  0.00  0.00    +0.000 A 
ATOM     31  C   UNL     1      -0.065  11.155  20.812  0.00  0.00    +0.000 A 
ENDBRANCH  25  26
ENDBRANCH  24  25
ENDBRANCH   8  24
TORSDOF 7
ENDMDL
MODEL 9
REMARK VINA RESULT:      -7.4      4.552      9.228
REMARK  Name = 
REMARK  10 active torsions:
REMARK  status: ('A' for Active; 'I' for Inactive)
REMARK    1  A    between atoms: C_1  and  O_2
REMARK    2  A    between atoms: O_2  and  C_3
REMARK    3  A    between atoms: C_5  and  C_6
REMARK    4  A    between atoms: N_13  and  C_14
REMARK    5  A    between atoms: C_14  and  C_15
REMARK    6  A    between atoms: C_15  and  C_16
REMARK    7  A    between atoms: C_25  and  O_26
REMARK    8  A    between atoms: O_26  and  C_27
REMARK    9  A    between atoms: C_28  and  O_29
REMARK   10  A    between atoms: O_29  and  C_30
REMARK                            x       y       z     vdW  Elec       q    Type
REMARK                         _______ _______ _______ _____ _____    ______ ____
ROOT
ATOM      1  C   UNL     1       1.429   8.518  20.898  0.00  0.00    +0.000 A 
ATOM      2  N   UNL     1       1.714   8.874  22.141  0.00  0.00    +0.000 NA
ATOM      3  N   UNL     1       1.091  10.074  22.409  0.00  0.00    +0.000 NA
ATOM      4  C   UNL     1       0.417  10.400  21.336  0.00  0.00    +0.000 A 
ATOM      5  N   UNL     1       0.569   9.462  20.346  0.00  0.00    +0.000 N 
ATOM      6  N   UNL     1       0.029   9.438  19.081  0.00  0.00    +0.000 NA
ATOM      7  C   UNL     1      -0.993  10.222  18.852  0.00  0.00    +0.000 C 
ATOM      8  N   UNL     1      -1.462  10.229  17.552  0.00  0.00    +0.000 N 
ATOM      9  C   UNL     1      -1.731  11.011  19.938  0.00  0.00    +0.000 C 
ATOM     10  S   UNL     1      -0.573  11.785  21.086  0.00  0.00    +0.000 S 
ATOM     11  H   UNL     1      -0.841   9.702  16.937  0.00  0.00    +0.000 HD
ENDROOT
BRANCH   1  14
ATOM     12  C   UNL     1       3.377   6.039  18.848  0.00  0.00    +0.000 A 
ATOM     13  C   UNL     1       2.829   7.251  19.300  0.00  0.00    +0.000 A 
ATOM     14  C   UNL     1       1.801   7.263  20.243  0.00  0.00    +0.000 A 
ATOM     15  C   UNL     1       1.219   6.051  20.599  0.00  0.00    +0.000 A 
ATOM     16  C   UNL     1       1.695   4.830  20.109  0.00  0.00    +0.000 A 
ATOM     17  C   UNL     1       2.794   4.806  19.226  0.00  0.00    +0.000 A 
BRANCH  12  19
ATOM     18  C   UNL     1       4.404   6.944  16.911  0.00  0.00    +0.000 C 
ATOM     19  O   UNL     1       4.476   6.054  18.027  0.00  0.00    +0.000 OA
ENDBRANCH  12  19
BRANCH  16  20
ATOM     20  O   UNL     1       0.983   3.786  20.645  0.00  0.00    +0.000 OA
ATOM     21  C   UNL     1       1.546   3.012  21.690  0.00  0.00    +0.000 C 
ENDBRANCH  16  20
BRANCH  17  22
ATOM     22  O   UNL     1       3.192   3.565  18.815  0.00  0.00    +0.000 OA
ATOM     23  C   UNL     1       4.333   2.938  19.373  0.00  0.00    +0.000 C 
ENDBRANCH  17  22
ENDBRANCH   1  14
BRANCH   8  24
ATOM     24  C   UNL     1      -2.060  11.403  16.929  0.00  0.00    +0.000 C 
BRANCH  24  25
ATOM     25  C   UNL     1      -3.319  11.053  16.131  0.00  0.00    +0.000 C 
BRANCH  25  26
ATOM     26  C   UNL     1      -4.559  11.297  16.963  0.00  0.00    +0.000 A 
ATOM     27  C   UNL     1      -4.910  10.408  17.989  0.00  0.00    +0.000 A 
ATOM     28  C   UNL     1      -6.083  10.603  18.718  0.00  0.00    +0.000 A 
ATOM     29  C   UNL     1      -6.918  11.681  18.428  0.00  0.00    +0.000 A 
ATOM     30  C   UNL     1      -6.579  12.569  17.411  0.00  0.00    +0.000 A 
ATOM     31  C   UNL     1      -5.407  12.378  16.676  0.00  0.00    +0.000 A 
ENDBRANCH  25  26
ENDBRANCH  24  25
ENDBRANCH   8  24
TORSDOF 7
ENDMDL
