MODEL 1
REMARK VINA RESULT:      -7.3      0.000      0.000
REMARK  Name = 
REMARK  10 active torsions:
REMARK  status: ('A' for Active; 'I' for Inactive)
REMARK    1  A    between atoms: C_1  and  C_2
REMARK    2  A    between atoms: C_2  and  C_3
REMARK    3  A    between atoms: C_2  and  C_4
REMARK    4  A    between atoms: N_6  and  C_7
REMARK    5  A    between atoms: C_9  and  C_10
REMARK    6  A    between atoms: C_10  and  C_11
REMARK    7  A    between atoms: C_10  and  C_12
REMARK    8  A    between atoms: C_10  and  C_13
REMARK    9  A    between atoms: C_13  and  O_14
REMARK   10  A    between atoms: C_19  and  N_20
REMARK                            x       y       z     vdW  Elec       q    Type
REMARK                         _______ _______ _______ _____ _____    ______ ____
ROOT
ATOM      1  C   UNL     1       4.524   5.183  15.944  0.00  0.00    +0.000 C 
ATOM      2  C   UNL     1       5.069   6.330  16.804  0.00  0.00    +0.000 C 
ATOM      3  C   UNL     1       6.598   6.399  16.992  0.00  0.00    +0.000 C 
ATOM      4  N   UNL     1       7.322   5.973  15.796  0.00  0.00    +0.000 N 
ATOM      5  C   UNL     1       6.753   5.271  14.756  0.00  0.00    +0.000 A 
ATOM      6  C   UNL     1       7.580   4.797  13.727  0.00  0.00    +0.000 A 
ATOM      7  C   UNL     1       7.085   3.958  12.724  0.00  0.00    +0.000 A 
ATOM      8  C   UNL     1       5.736   3.613  12.722  0.00  0.00    +0.000 A 
ATOM      9  C   UNL     1       4.885   4.096  13.721  0.00  0.00    +0.000 A 
ATOM     10  C   UNL     1       5.410   4.881  14.765  0.00  0.00    +0.000 A 
ATOM     11  H   UNL     1       8.160   6.506  15.573  0.00  0.00    +0.000 HD
ENDROOT
BRANCH   1  14
ATOM     12  C   UNL     1       3.137   3.666  17.358  0.00  0.00    +0.000 C 
ATOM     13  O   UNL     1       2.253   4.505  17.502  0.00  0.00    +0.000 OA
ATOM     14  N   UNL     1       4.290   3.929  16.660  0.00  0.00    +0.000 N 
ATOM     15  H   UNL     1       4.922   3.162  16.472  0.00  0.00    +0.000 HD
BRANCH  12  17
ATOM     16  C   UNL     1       4.100   1.955  19.015  0.00  0.00    +0.000 C 
ATOM     17  C   UNL     1       3.019   2.269  17.982  0.00  0.00    +0.000 C 
ATOM     18  C   UNL     1       1.633   2.030  18.570  0.00  0.00    +0.000 C 
ENDBRANCH  12  17
ENDBRANCH   1  14
BRANCH   3  19
ATOM     19  C   UNL     1       7.233   5.736  18.269  0.00  0.00    +0.000 C 
ATOM     20  C   UNL     1       6.114   5.361  19.274  0.00  0.00    +0.000 C 
ATOM     21  C   UNL     1       7.952   4.421  17.893  0.00  0.00    +0.000 C 
BRANCH  19  22
ATOM     22  C   UNL     1       8.234   6.675  18.959  0.00  0.00    +0.000 C 
BRANCH  22  23
ATOM     23  O   UNL     1       8.324   7.953  18.335  0.00  0.00    +0.000 OA
ATOM     24  H   UNL     1       8.018   8.616  18.978  0.00  0.00    +0.000 HD
ENDBRANCH  22  23
ENDBRANCH  19  22
ENDBRANCH   3  19
BRANCH   8  25
ATOM     25  N   UNL     1       5.206   2.675  11.731  0.00  0.00    +0.000 N 
ATOM     26  O   UNL     1       4.105   2.945  11.230  0.00  0.00    +0.000 OA
ATOM     27  O   UNL     1       5.889   1.684  11.445  0.00  0.00    +0.000 OA
ENDBRANCH   8  25
TORSDOF 6
ENDMDL
MODEL 2
REMARK VINA RESULT:      -7.2      1.064      1.389
REMARK  Name = 
REMARK  10 active torsions:
REMARK  status: ('A' for Active; 'I' for Inactive)
REMARK    1  A    between atoms: C_1  and  C_2
REMARK    2  A    between atoms: C_2  and  C_3
REMARK    3  A    between atoms: C_2  and  C_4
REMARK    4  A    between atoms: N_6  and  C_7
REMARK    5  A    between atoms: C_9  and  C_10
REMARK    6  A    between atoms: C_10  and  C_11
REMARK    7  A    between atoms: C_10  and  C_12
REMARK    8  A    between atoms: C_10  and  C_13
REMARK    9  A    between atoms: C_13  and  O_14
REMARK   10  A    between atoms: C_19  and  N_20
REMARK                            x       y       z     vdW  Elec       q    Type
REMARK                         _______ _______ _______ _____ _____    ______ ____
ROOT
ATOM      1  C   UNL     1       4.458   5.179  15.958  0.00  0.00    +0.000 C 
ATOM      2  C   UNL     1       5.025   6.304  16.833  0.00  0.00    +0.000 C 
ATOM      3  C   UNL     1       6.554   6.331  17.036  0.00  0.00    +0.000 C 
ATOM      4  N   UNL     1       7.278   5.897  15.842  0.00  0.00    +0.000 N 
ATOM      5  C   UNL     1       6.700   5.219  14.791  0.00  0.00    +0.000 A 
ATOM      6  C   UNL     1       7.524   4.732  13.765  0.00  0.00    +0.000 A 
ATOM      7  C   UNL     1       7.017   3.915  12.750  0.00  0.00    +0.000 A 
ATOM      8  C   UNL     1       5.659   3.606  12.733  0.00  0.00    +0.000 A 
ATOM      9  C   UNL     1       4.812   4.102  13.729  0.00  0.00    +0.000 A 
ATOM     10  C   UNL     1       5.348   4.864  14.784  0.00  0.00    +0.000 A 
ATOM     11  H   UNL     1       8.131   6.410  15.632  0.00  0.00    +0.000 HD
ENDROOT
BRANCH   1  14
ATOM     12  C   UNL     1       3.005   3.672  17.314  0.00  0.00    +0.000 C 
ATOM     13  O   UNL     1       2.124   4.519  17.428  0.00  0.00    +0.000 OA
ATOM     14  N   UNL     1       4.186   3.925  16.661  0.00  0.00    +0.000 N 
ATOM     15  H   UNL     1       4.816   3.153  16.494  0.00  0.00    +0.000 HD
BRANCH  12  17
ATOM     16  C   UNL     1       4.122   1.431  17.887  0.00  0.00    +0.000 C 
ATOM     17  C   UNL     1       2.849   2.275  17.929  0.00  0.00    +0.000 C 
ATOM     18  C   UNL     1       2.298   2.342  19.349  0.00  0.00    +0.000 C 
ENDBRANCH  12  17
ENDBRANCH   1  14
BRANCH   3  19
ATOM     19  C   UNL     1       7.160   5.640  18.312  0.00  0.00    +0.000 C 
ATOM     20  C   UNL     1       7.955   4.377  17.894  0.00  0.00    +0.000 C 
ATOM     21  C   UNL     1       8.160   6.586  19.014  0.00  0.00    +0.000 C 
BRANCH  19  22
ATOM     22  C   UNL     1       6.066   5.237  19.312  0.00  0.00    +0.000 C 
BRANCH  22  23
ATOM     23  O   UNL     1       5.816   3.834  19.333  0.00  0.00    +0.000 OA
ATOM     24  H   UNL     1       4.993   3.689  19.832  0.00  0.00    +0.000 HD
ENDBRANCH  22  23
ENDBRANCH  19  22
ENDBRANCH   3  19
BRANCH   8  25
ATOM     25  N   UNL     1       5.114   2.690  11.729  0.00  0.00    +0.000 N 
ATOM     26  O   UNL     1       4.025   2.993  11.222  0.00  0.00    +0.000 OA
ATOM     27  O   UNL     1       5.774   1.685  11.439  0.00  0.00    +0.000 OA
ENDBRANCH   8  25
TORSDOF 6
ENDMDL
MODEL 3
REMARK VINA RESULT:      -7.0      0.966      1.315
REMARK  Name = 
REMARK  10 active torsions:
REMARK  status: ('A' for Active; 'I' for Inactive)
REMARK    1  A    between atoms: C_1  and  C_2
REMARK    2  A    between atoms: C_2  and  C_3
REMARK    3  A    between atoms: C_2  and  C_4
REMARK    4  A    between atoms: N_6  and  C_7
REMARK    5  A    between atoms: C_9  and  C_10
REMARK    6  A    between atoms: C_10  and  C_11
REMARK    7  A    between atoms: C_10  and  C_12
REMARK    8  A    between atoms: C_10  and  C_13
REMARK    9  A    between atoms: C_13  and  O_14
REMARK   10  A    between atoms: C_19  and  N_20
REMARK                            x       y       z     vdW  Elec       q    Type
REMARK                         _______ _______ _______ _____ _____    ______ ____
ROOT
ATOM      1  C   UNL     1       4.554   5.268  15.934  0.00  0.00    +0.000 C 
ATOM      2  C   UNL     1       5.082   6.439  16.772  0.00  0.00    +0.000 C 
ATOM      3  C   UNL     1       6.609   6.526  16.971  0.00  0.00    +0.000 C 
ATOM      4  N   UNL     1       7.347   6.080  15.791  0.00  0.00    +0.000 N 
ATOM      5  C   UNL     1       6.792   5.350  14.762  0.00  0.00    +0.000 A 
ATOM      6  C   UNL     1       7.632   4.860  13.751  0.00  0.00    +0.000 A 
ATOM      7  C   UNL     1       7.152   3.994  12.763  0.00  0.00    +0.000 A 
ATOM      8  C   UNL     1       5.806   3.638  12.757  0.00  0.00    +0.000 A 
ATOM      9  C   UNL     1       4.943   4.135  13.739  0.00  0.00    +0.000 A 
ATOM     10  C   UNL     1       5.453   4.948  14.769  0.00  0.00    +0.000 A 
ATOM     11  H   UNL     1       8.181   6.615  15.563  0.00  0.00    +0.000 HD
ENDROOT
BRANCH   1  14
ATOM     12  C   UNL     1       3.224   3.821  17.470  0.00  0.00    +0.000 C 
ATOM     13  O   UNL     1       2.394   4.700  17.683  0.00  0.00    +0.000 OA
ATOM     14  N   UNL     1       4.325   4.029  16.676  0.00  0.00    +0.000 N 
ATOM     15  H   UNL     1       4.904   3.233  16.441  0.00  0.00    +0.000 HD
BRANCH  12  17
ATOM     16  C   UNL     1       4.027   2.210  19.303  0.00  0.00    +0.000 C 
ATOM     17  C   UNL     1       3.096   2.433  18.112  0.00  0.00    +0.000 C 
ATOM     18  C   UNL     1       1.654   2.120  18.494  0.00  0.00    +0.000 C 
ENDBRANCH  12  17
ENDBRANCH   1  14
BRANCH   3  19
ATOM     19  C   UNL     1       7.239   5.897  18.268  0.00  0.00    +0.000 C 
ATOM     20  C   UNL     1       8.244   6.896  18.897  0.00  0.00    +0.000 C 
ATOM     21  C   UNL     1       6.145   5.637  19.327  0.00  0.00    +0.000 C 
BRANCH  19  22
ATOM     22  C   UNL     1       7.966   4.578  17.963  0.00  0.00    +0.000 C 
BRANCH  22  23
ATOM     23  O   UNL     1       7.080   3.522  17.600  0.00  0.00    +0.000 OA
ATOM     24  H   UNL     1       7.621   2.792  17.249  0.00  0.00    +0.000 HD
ENDBRANCH  22  23
ENDBRANCH  19  22
ENDBRANCH   3  19
BRANCH   8  25
ATOM     25  N   UNL     1       5.293   2.673  11.784  0.00  0.00    +0.000 N 
ATOM     26  O   UNL     1       4.179   2.906  11.292  0.00  0.00    +0.000 OA
ATOM     27  O   UNL     1       6.000   1.698  11.502  0.00  0.00    +0.000 OA
ENDBRANCH   8  25
TORSDOF 6
ENDMDL
MODEL 4
REMARK VINA RESULT:      -6.9     10.331     13.043
REMARK  Name = 
REMARK  10 active torsions:
REMARK  status: ('A' for Active; 'I' for Inactive)
REMARK    1  A    between atoms: C_1  and  C_2
REMARK    2  A    between atoms: C_2  and  C_3
REMARK    3  A    between atoms: C_2  and  C_4
REMARK    4  A    between atoms: N_6  and  C_7
REMARK    5  A    between atoms: C_9  and  C_10
REMARK    6  A    between atoms: C_10  and  C_11
REMARK    7  A    between atoms: C_10  and  C_12
REMARK    8  A    between atoms: C_10  and  C_13
REMARK    9  A    between atoms: C_13  and  O_14
REMARK   10  A    between atoms: C_19  and  N_20
REMARK                            x       y       z     vdW  Elec       q    Type
REMARK                         _______ _______ _______ _____ _____    ______ ____
ROOT
ATOM      1  C   UNL     1      -1.357  12.375  20.065  0.00  0.00    +0.000 C 
ATOM      2  C   UNL     1      -1.250  12.440  18.536  0.00  0.00    +0.000 C 
ATOM      3  C   UNL     1      -2.422  11.849  17.725  0.00  0.00    +0.000 C 
ATOM      4  N   UNL     1      -3.711  12.068  18.378  0.00  0.00    +0.000 N 
ATOM      5  C   UNL     1      -3.857  12.434  19.699  0.00  0.00    +0.000 A 
ATOM      6  C   UNL     1      -5.147  12.479  20.250  0.00  0.00    +0.000 A 
ATOM      7  C   UNL     1      -5.347  12.701  21.616  0.00  0.00    +0.000 A 
ATOM      8  C   UNL     1      -4.249  12.921  22.443  0.00  0.00    +0.000 A 
ATOM      9  C   UNL     1      -2.955  12.910  21.913  0.00  0.00    +0.000 A 
ATOM     10  C   UNL     1      -2.763  12.614  20.550  0.00  0.00    +0.000 A 
ATOM     11  H   UNL     1      -4.487  12.296  17.760  0.00  0.00    +0.000 HD
ENDROOT
BRANCH   1  14
ATOM     12  C   UNL     1       0.300  11.032  21.358  0.00  0.00    +0.000 C 
ATOM     13  O   UNL     1       1.087  11.969  21.445  0.00  0.00    +0.000 OA
ATOM     14  N   UNL     1      -0.883  11.129  20.666  0.00  0.00    +0.000 N 
ATOM     15  H   UNL     1      -1.542  10.365  20.735  0.00  0.00    +0.000 HD
BRANCH  12  17
ATOM     16  C   UNL     1      -0.031   9.469  23.370  0.00  0.00    +0.000 C 
ATOM     17  C   UNL     1       0.608   9.671  21.997  0.00  0.00    +0.000 C 
ATOM     18  C   UNL     1       0.253   8.517  21.067  0.00  0.00    +0.000 C 
ENDBRANCH  12  17
ENDBRANCH   1  14
BRANCH   3  19
ATOM     19  C   UNL     1      -2.320  10.362  17.223  0.00  0.00    +0.000 C 
ATOM     20  C   UNL     1      -0.901   9.810  17.512  0.00  0.00    +0.000 C 
ATOM     21  C   UNL     1      -3.314   9.464  17.992  0.00  0.00    +0.000 C 
BRANCH  19  22
ATOM     22  C   UNL     1      -2.606  10.251  15.717  0.00  0.00    +0.000 C 
BRANCH  22  23
ATOM     23  O   UNL     1      -3.245  11.407  15.182  0.00  0.00    +0.000 OA
ATOM     24  H   UNL     1      -4.189  11.197  15.071  0.00  0.00    +0.000 HD
ENDBRANCH  22  23
ENDBRANCH  19  22
ENDBRANCH   3  19
BRANCH   8  25
ATOM     25  N   UNL     1      -4.421  13.079  23.888  0.00  0.00    +0.000 N 
ATOM     26  O   UNL     1      -4.755  12.072  24.530  0.00  0.00    +0.000 OA
ATOM     27  O   UNL     1      -4.212  14.193  24.381  0.00  0.00    +0.000 OA
ENDBRANCH   8  25
TORSDOF 6
ENDMDL
MODEL 5
REMARK VINA RESULT:      -6.4     10.402     13.119
REMARK  Name = 
REMARK  10 active torsions:
REMARK  status: ('A' for Active; 'I' for Inactive)
REMARK    1  A    between atoms: C_1  and  C_2
REMARK    2  A    between atoms: C_2  and  C_3
REMARK    3  A    between atoms: C_2  and  C_4
REMARK    4  A    between atoms: N_6  and  C_7
REMARK    5  A    between atoms: C_9  and  C_10
REMARK    6  A    between atoms: C_10  and  C_11
REMARK    7  A    between atoms: C_10  and  C_12
REMARK    8  A    between atoms: C_10  and  C_13
REMARK    9  A    between atoms: C_13  and  O_14
REMARK   10  A    between atoms: C_19  and  N_20
REMARK                            x       y       z     vdW  Elec       q    Type
REMARK                         _______ _______ _______ _____ _____    ______ ____
ROOT
ATOM      1  C   UNL     1      -1.626  12.237  19.937  0.00  0.00    +0.000 C 
ATOM      2  C   UNL     1      -1.434  12.329  18.417  0.00  0.00    +0.000 C 
ATOM      3  C   UNL     1      -2.587  11.809  17.533  0.00  0.00    +0.000 C 
ATOM      4  N   UNL     1      -3.898  12.072  18.123  0.00  0.00    +0.000 N 
ATOM      5  C   UNL     1      -4.097  12.417  19.443  0.00  0.00    +0.000 A 
ATOM      6  C   UNL     1      -5.411  12.508  19.926  0.00  0.00    +0.000 A 
ATOM      7  C   UNL     1      -5.674  12.711  21.285  0.00  0.00    +0.000 A 
ATOM      8  C   UNL     1      -4.612  12.863  22.173  0.00  0.00    +0.000 A 
ATOM      9  C   UNL     1      -3.294  12.805  21.711  0.00  0.00    +0.000 A 
ATOM     10  C   UNL     1      -3.043  12.529  20.353  0.00  0.00    +0.000 A 
ATOM     11  H   UNL     1      -4.628  12.348  17.471  0.00  0.00    +0.000 HD
ENDROOT
BRANCH   1  14
ATOM     12  C   UNL     1      -0.151  10.813  21.358  0.00  0.00    +0.000 C 
ATOM     13  O   UNL     1       0.629  11.734  21.583  0.00  0.00    +0.000 OA
ATOM     14  N   UNL     1      -1.239  10.958  20.533  0.00  0.00    +0.000 N 
ATOM     15  H   UNL     1      -1.908  10.202  20.485  0.00  0.00    +0.000 HD
BRANCH  12  17
ATOM     16  C   UNL     1       1.325   8.712  21.468  0.00  0.00    +0.000 C 
ATOM     17  C   UNL     1       0.066   9.421  21.966  0.00  0.00    +0.000 C 
ATOM     18  C   UNL     1       0.043   9.461  23.490  0.00  0.00    +0.000 C 
ENDBRANCH  12  17
ENDBRANCH   1  14
BRANCH   3  19
ATOM     19  C   UNL     1      -2.524  10.330  17.002  0.00  0.00    +0.000 C 
ATOM     20  C   UNL     1      -1.125   9.730  17.294  0.00  0.00    +0.000 C 
ATOM     21  C   UNL     1      -3.552   9.447  17.743  0.00  0.00    +0.000 C 
BRANCH  19  22
ATOM     22  C   UNL     1      -2.796  10.257  15.492  0.00  0.00    +0.000 C 
BRANCH  22  23
ATOM     23  O   UNL     1      -4.181  10.351  15.168  0.00  0.00    +0.000 OA
ATOM     24  H   UNL     1      -4.293  11.113  14.573  0.00  0.00    +0.000 HD
ENDBRANCH  22  23
ENDBRANCH  19  22
ENDBRANCH   3  19
BRANCH   8  25
ATOM     25  N   UNL     1      -4.854  12.998  23.611  0.00  0.00    +0.000 N 
ATOM     26  O   UNL     1      -4.161  13.822  24.225  0.00  0.00    +0.000 OA
ATOM     27  O   UNL     1      -5.738  12.299  24.120  0.00  0.00    +0.000 OA
ENDBRANCH   8  25
TORSDOF 6
ENDMDL
MODEL 6
REMARK VINA RESULT:      -5.8     10.337     13.011
REMARK  Name = 
REMARK  10 active torsions:
REMARK  status: ('A' for Active; 'I' for Inactive)
REMARK    1  A    between atoms: C_1  and  C_2
REMARK    2  A    between atoms: C_2  and  C_3
REMARK    3  A    between atoms: C_2  and  C_4
REMARK    4  A    between atoms: N_6  and  C_7
REMARK    5  A    between atoms: C_9  and  C_10
REMARK    6  A    between atoms: C_10  and  C_11
REMARK    7  A    between atoms: C_10  and  C_12
REMARK    8  A    between atoms: C_10  and  C_13
REMARK    9  A    between atoms: C_13  and  O_14
REMARK   10  A    between atoms: C_19  and  N_20
REMARK                            x       y       z     vdW  Elec       q    Type
REMARK                         _______ _______ _______ _____ _____    ______ ____
ROOT
ATOM      1  C   UNL     1      -1.412  12.449  20.279  0.00  0.00    +0.000 C 
ATOM      2  C   UNL     1      -1.332  12.501  18.748  0.00  0.00    +0.000 C 
ATOM      3  C   UNL     1      -2.508  11.885  17.963  0.00  0.00    +0.000 C 
ATOM      4  N   UNL     1      -3.789  12.089  18.636  0.00  0.00    +0.000 N 
ATOM      5  C   UNL     1      -3.918  12.466  19.956  0.00  0.00    +0.000 A 
ATOM      6  C   UNL     1      -5.199  12.495  20.528  0.00  0.00    +0.000 A 
ATOM      7  C   UNL     1      -5.380  12.727  21.895  0.00  0.00    +0.000 A 
ATOM      8  C   UNL     1      -4.271  12.972  22.701  0.00  0.00    +0.000 A 
ATOM      9  C   UNL     1      -2.986  12.976  22.149  0.00  0.00    +0.000 A 
ATOM     10  C   UNL     1      -2.813  12.670  20.786  0.00  0.00    +0.000 A 
ATOM     11  H   UNL     1      -4.578  12.299  18.030  0.00  0.00    +0.000 HD
ENDROOT
BRANCH   1  14
ATOM     12  C   UNL     1       0.377  11.080  21.351  0.00  0.00    +0.000 C 
ATOM     13  O   UNL     1       1.221  11.960  21.212  0.00  0.00    +0.000 OA
ATOM     14  N   UNL     1      -0.907  11.216  20.884  0.00  0.00    +0.000 N 
ATOM     15  H   UNL     1      -1.586  10.511  21.136  0.00  0.00    +0.000 HD
BRANCH  12  17
ATOM     16  C   UNL     1      -0.145   9.434  23.253  0.00  0.00    +0.000 C 
ATOM     17  C   UNL     1       0.719   9.748  22.032  0.00  0.00    +0.000 C 
ATOM     18  C   UNL     1       0.693   8.587  21.046  0.00  0.00    +0.000 C 
ENDBRANCH  12  17
ENDBRANCH   1  14
BRANCH   3  19
ATOM     19  C   UNL     1      -2.391  10.395  17.473  0.00  0.00    +0.000 C 
ATOM     20  C   UNL     1      -3.658   9.607  17.892  0.00  0.00    +0.000 C 
ATOM     21  C   UNL     1      -2.321  10.339  15.930  0.00  0.00    +0.000 C 
BRANCH  19  22
ATOM     22  C   UNL     1      -1.151   9.700  18.056  0.00  0.00    +0.000 C 
BRANCH  22  23
ATOM     23  O   UNL     1       0.060  10.081  17.409  0.00  0.00    +0.000 OA
ATOM     24  H   UNL     1      -0.151  10.800  16.788  0.00  0.00    +0.000 HD
ENDBRANCH  22  23
ENDBRANCH  19  22
ENDBRANCH   3  19
BRANCH   8  25
ATOM     25  N   UNL     1      -4.422  13.141  24.148  0.00  0.00    +0.000 N 
ATOM     26  O   UNL     1      -4.046  14.218  24.633  0.00  0.00    +0.000 OA
ATOM     27  O   UNL     1      -4.924  12.213  24.793  0.00  0.00    +0.000 OA
ENDBRANCH   8  25
TORSDOF 6
ENDMDL
MODEL 7
REMARK VINA RESULT:      -5.7     10.196     12.974
REMARK  Name = 
REMARK  10 active torsions:
REMARK  status: ('A' for Active; 'I' for Inactive)
REMARK    1  A    between atoms: C_1  and  C_2
REMARK    2  A    between atoms: C_2  and  C_3
REMARK    3  A    between atoms: C_2  and  C_4
REMARK    4  A    between atoms: N_6  and  C_7
REMARK    5  A    between atoms: C_9  and  C_10
REMARK    6  A    between atoms: C_10  and  C_11
REMARK    7  A    between atoms: C_10  and  C_12
REMARK    8  A    between atoms: C_10  and  C_13
REMARK    9  A    between atoms: C_13  and  O_14
REMARK   10  A    between atoms: C_19  and  N_20
REMARK                            x       y       z     vdW  Elec       q    Type
REMARK                         _______ _______ _______ _____ _____    ______ ____
ROOT
ATOM      1  C   UNL     1      -1.148  12.274  20.147  0.00  0.00    +0.000 C 
ATOM      2  C   UNL     1      -1.099  12.443  18.623  0.00  0.00    +0.000 C 
ATOM      3  C   UNL     1      -2.340  11.990  17.827  0.00  0.00    +0.000 C 
ATOM      4  N   UNL     1      -3.584  12.243  18.551  0.00  0.00    +0.000 N 
ATOM      5  C   UNL     1      -3.651  12.522  19.899  0.00  0.00    +0.000 A 
ATOM      6  C   UNL     1      -4.911  12.609  20.510  0.00  0.00    +0.000 A 
ATOM      7  C   UNL     1      -5.041  12.744  21.896  0.00  0.00    +0.000 A 
ATOM      8  C   UNL     1      -3.898  12.832  22.686  0.00  0.00    +0.000 A 
ATOM      9  C   UNL     1      -2.630  12.776  22.098  0.00  0.00    +0.000 A 
ATOM     10  C   UNL     1      -2.513  12.567  20.710  0.00  0.00    +0.000 A 
ATOM     11  H   UNL     1      -4.366  12.565  17.986  0.00  0.00    +0.000 HD
ENDROOT
BRANCH   1  14
ATOM     12  C   UNL     1       0.499  10.719  21.192  0.00  0.00    +0.000 C 
ATOM     13  O   UNL     1       1.377  11.575  21.234  0.00  0.00    +0.000 OA
ATOM     14  N   UNL     1      -0.735  10.960  20.638  0.00  0.00    +0.000 N 
ATOM     15  H   UNL     1      -1.453  10.257  20.744  0.00  0.00    +0.000 HD
BRANCH  12  17
ATOM     16  C   UNL     1       1.507   9.265  23.055  0.00  0.00    +0.000 C 
ATOM     17  C   UNL     1       0.741   9.304  21.733  0.00  0.00    +0.000 C 
ATOM     18  C   UNL     1      -0.558   8.513  21.845  0.00  0.00    +0.000 C 
ENDBRANCH  12  17
ENDBRANCH   1  14
BRANCH   3  19
ATOM     19  C   UNL     1      -2.359  10.540  17.218  0.00  0.00    +0.000 C 
ATOM     20  C   UNL     1      -2.637  10.618  15.695  0.00  0.00    +0.000 C 
ATOM     21  C   UNL     1      -0.979   9.866  17.385  0.00  0.00    +0.000 C 
BRANCH  19  22
ATOM     22  C   UNL     1      -3.430   9.660  17.880  0.00  0.00    +0.000 C 
BRANCH  22  23
ATOM     23  O   UNL     1      -4.753   9.967  17.448  0.00  0.00    +0.000 OA
ATOM     24  H   UNL     1      -4.889  10.923  17.575  0.00  0.00    +0.000 HD
ENDBRANCH  22  23
ENDBRANCH  19  22
ENDBRANCH   3  19
BRANCH   8  25
ATOM     25  N   UNL     1      -4.001  12.895  24.145  0.00  0.00    +0.000 N 
ATOM     26  O   UNL     1      -4.695  12.031  24.699  0.00  0.00    +0.000 OA
ATOM     27  O   UNL     1      -3.383  13.790  24.733  0.00  0.00    +0.000 OA
ENDBRANCH   8  25
TORSDOF 6
ENDMDL
MODEL 8
REMARK VINA RESULT:      -5.7     10.453     12.935
REMARK  Name = 
REMARK  10 active torsions:
REMARK  status: ('A' for Active; 'I' for Inactive)
REMARK    1  A    between atoms: C_1  and  C_2
REMARK    2  A    between atoms: C_2  and  C_3
REMARK    3  A    between atoms: C_2  and  C_4
REMARK    4  A    between atoms: N_6  and  C_7
REMARK    5  A    between atoms: C_9  and  C_10
REMARK    6  A    between atoms: C_10  and  C_11
REMARK    7  A    between atoms: C_10  and  C_12
REMARK    8  A    between atoms: C_10  and  C_13
REMARK    9  A    between atoms: C_13  and  O_14
REMARK   10  A    between atoms: C_19  and  N_20
REMARK                            x       y       z     vdW  Elec       q    Type
REMARK                         _______ _______ _______ _____ _____    ______ ____
ROOT
ATOM      1  C   UNL     1      -0.489  11.668  21.013  0.00  0.00    +0.000 C 
ATOM      2  C   UNL     1       1.001  11.919  20.747  0.00  0.00    +0.000 C 
ATOM      3  C   UNL     1       1.487  13.382  20.807  0.00  0.00    +0.000 C 
ATOM      4  N   UNL     1       0.786  14.155  21.830  0.00  0.00    +0.000 N 
ATOM      5  C   UNL     1      -0.390  13.759  22.430  0.00  0.00    +0.000 A 
ATOM      6  C   UNL     1      -1.041  14.650  23.295  0.00  0.00    +0.000 A 
ATOM      7  C   UNL     1      -2.306  14.363  23.818  0.00  0.00    +0.000 A 
ATOM      8  C   UNL     1      -2.918  13.152  23.505  0.00  0.00    +0.000 A 
ATOM      9  C   UNL     1      -2.276  12.234  22.667  0.00  0.00    +0.000 A 
ATOM     10  C   UNL     1      -1.036  12.567  22.090  0.00  0.00    +0.000 A 
ATOM     11  H   UNL     1       1.356  14.816  22.352  0.00  0.00    +0.000 HD
ENDROOT
BRANCH   1  14
ATOM     12  C   UNL     1      -1.355  10.893  18.806  0.00  0.00    +0.000 C 
ATOM     13  O   UNL     1      -0.557   9.962  18.748  0.00  0.00    +0.000 OA
ATOM     14  N   UNL     1      -1.357  11.794  19.842  0.00  0.00    +0.000 N 
ATOM     15  H   UNL     1      -2.113  12.463  19.895  0.00  0.00    +0.000 HD
BRANCH  12  17
ATOM     16  C   UNL     1      -2.533   9.956  16.724  0.00  0.00    +0.000 C 
ATOM     17  C   UNL     1      -2.387  11.127  17.694  0.00  0.00    +0.000 C 
ATOM     18  C   UNL     1      -3.745  11.525  18.261  0.00  0.00    +0.000 C 
ENDBRANCH  12  17
ENDBRANCH   1  14
BRANCH   3  19
ATOM     19  C   UNL     1       1.568  14.207  19.471  0.00  0.00    +0.000 C 
ATOM     20  C   UNL     1       2.815  15.127  19.500  0.00  0.00    +0.000 C 
ATOM     21  C   UNL     1       1.740  13.260  18.262  0.00  0.00    +0.000 C 
BRANCH  19  22
ATOM     22  C   UNL     1       0.313  15.068  19.258  0.00  0.00    +0.000 C 
BRANCH  22  23
ATOM     23  O   UNL     1      -0.742  14.368  18.605  0.00  0.00    +0.000 OA
ATOM     24  H   UNL     1      -1.183  13.812  19.271  0.00  0.00    +0.000 HD
ENDBRANCH  22  23
ENDBRANCH  19  22
ENDBRANCH   3  19
BRANCH   8  25
ATOM     25  N   UNL     1      -4.274  12.857  23.974  0.00  0.00    +0.000 N 
ATOM     26  O   UNL     1      -5.149  13.702  23.737  0.00  0.00    +0.000 OA
ATOM     27  O   UNL     1      -4.466  11.785  24.560  0.00  0.00    +0.000 OA
ENDBRANCH   8  25
TORSDOF 6
ENDMDL
MODEL 9
REMARK VINA RESULT:      -5.6     10.590     12.798
REMARK  Name = 
REMARK  10 active torsions:
REMARK  status: ('A' for Active; 'I' for Inactive)
REMARK    1  A    between atoms: C_1  and  C_2
REMARK    2  A    between atoms: C_2  and  C_3
REMARK    3  A    between atoms: C_2  and  C_4
REMARK    4  A    between atoms: N_6  and  C_7
REMARK    5  A    between atoms: C_9  and  C_10
REMARK    6  A    between atoms: C_10  and  C_11
REMARK    7  A    between atoms: C_10  and  C_12
REMARK    8  A    between atoms: C_10  and  C_13
REMARK    9  A    between atoms: C_13  and  O_14
REMARK   10  A    between atoms: C_19  and  N_20
REMARK                            x       y       z     vdW  Elec       q    Type
REMARK                         _______ _______ _______ _____ _____    ______ ____
ROOT
ATOM      1  C   UNL     1      -1.977  12.994  20.083  0.00  0.00    +0.000 C 
ATOM      2  C   UNL     1      -2.621  14.181  20.809  0.00  0.00    +0.000 C 
ATOM      3  C   UNL     1      -3.347  13.880  22.136  0.00  0.00    +0.000 C 
ATOM      4  N   UNL     1      -2.686  12.826  22.902  0.00  0.00    +0.000 N 
ATOM      5  C   UNL     1      -1.749  11.961  22.378  0.00  0.00    +0.000 A 
ATOM      6  C   UNL     1      -1.287  10.901  23.173  0.00  0.00    +0.000 A 
ATOM      7  C   UNL     1      -0.450   9.911  22.651  0.00  0.00    +0.000 A 
ATOM      8  C   UNL     1      -0.033   9.994  21.325  0.00  0.00    +0.000 A 
ATOM      9  C   UNL     1      -0.457  11.057  20.520  0.00  0.00    +0.000 A 
ATOM     10  C   UNL     1      -1.357  12.007  21.037  0.00  0.00    +0.000 A 
ATOM     11  H   UNL     1      -2.657  12.962  23.910  0.00  0.00    +0.000 HD
ENDROOT
BRANCH   1  14
ATOM     12  C   UNL     1      -2.510  11.850  17.931  0.00  0.00    +0.000 C 
ATOM     13  O   UNL     1      -1.435  12.160  17.426  0.00  0.00    +0.000 OA
ATOM     14  N   UNL     1      -2.871  12.253  19.193  0.00  0.00    +0.000 N 
ATOM     15  H   UNL     1      -3.712  11.864  19.598  0.00  0.00    +0.000 HD
BRANCH  12  17
ATOM     16  C   UNL     1      -4.971  11.529  17.266  0.00  0.00    +0.000 C 
ATOM     17  C   UNL     1      -3.538  11.010  17.161  0.00  0.00    +0.000 C 
ATOM     18  C   UNL     1      -3.139  10.831  15.701  0.00  0.00    +0.000 C 
ENDBRANCH  12  17
ENDBRANCH   1  14
BRANCH   3  19
ATOM     19  C   UNL     1      -4.900  13.630  22.108  0.00  0.00    +0.000 C 
ATOM     20  C   UNL     1      -5.605  14.811  21.394  0.00  0.00    +0.000 C 
ATOM     21  C   UNL     1      -5.227  12.358  21.295  0.00  0.00    +0.000 C 
BRANCH  19  22
ATOM     22  C   UNL     1      -5.477  13.483  23.524  0.00  0.00    +0.000 C 
BRANCH  22  23
ATOM     23  O   UNL     1      -5.253  12.193  24.088  0.00  0.00    +0.000 OA
ATOM     24  H   UNL     1      -5.542  11.532  23.435  0.00  0.00    +0.000 HD
ENDBRANCH  22  23
ENDBRANCH  19  22
ENDBRANCH   3  19
BRANCH   8  25
ATOM     25  N   UNL     1       0.779   8.932  20.728  0.00  0.00    +0.000 N 
ATOM     26  O   UNL     1       1.236   9.141  19.596  0.00  0.00    +0.000 OA
ATOM     27  O   UNL     1       0.970   7.905  21.390  0.00  0.00    +0.000 OA
ENDBRANCH   8  25
TORSDOF 6
ENDMDL
