MODEL 1
REMARK VINA RESULT:      -7.6      0.000      0.000
REMARK  Name = 
REMARK  11 active torsions:
REMARK  status: ('A' for Active; 'I' for Inactive)
REMARK    1  A    between atoms: C_1  and  C_2
REMARK    2  A    between atoms: C_2  and  N_3
REMARK    3  A    between atoms: N_3  and  C_4
REMARK    4  A    between atoms: N_3  and  C_6
REMARK    5  A    between atoms: C_4  and  C_5
REMARK    6  A    between atoms: C_9  and  C_10
REMARK    7  A    between atoms: C_10  and  C_22
REMARK    8  A    between atoms: N_15  and  C_16
REMARK    9  A    between atoms: N_15  and  C_18
REMARK   10  A    between atoms: C_16  and  C_17
REMARK   11  A    between atoms: C_18  and  C_19
REMARK                            x       y       z     vdW  Elec       q    Type
REMARK                         _______ _______ _______ _____ _____    ______ ____
ROOT
ATOM      1  C   UNL     1       0.029  11.072  19.067  0.00  0.00    +0.000 C 
ATOM      2  C   UNL     1       0.377  12.374  19.334  0.00  0.00    +0.000 C 
ATOM      3  C   UNL     1       1.511  12.778  20.162  0.00  0.00    +0.000 C 
ATOM      4  C   UNL     1       2.072  13.986  20.092  0.00  0.00    +0.000 C 
ATOM      5  C   UNL     1       1.523  15.001  19.153  0.00  0.00    +0.000 C 
ATOM      6  N   UNL     1       2.213  16.037  18.773  0.00  0.00    +0.000 N 
ATOM      7  C   UNL     1       0.100  14.739  18.733  0.00  0.00    +0.000 C 
ATOM      8  C   UNL     1      -0.426  13.506  18.845  0.00  0.00    +0.000 C 
ENDROOT
BRANCH   1  12
ATOM      9  C   UNL     1       2.130   7.284  19.704  0.00  0.00    +0.000 A 
ATOM     10  C   UNL     1       1.503   7.935  20.758  0.00  0.00    +0.000 A 
ATOM     11  C   UNL     1       0.822   9.140  20.583  0.00  0.00    +0.000 A 
ATOM     12  C   UNL     1       0.863   9.851  19.386  0.00  0.00    +0.000 A 
ATOM     13  C   UNL     1       1.684   9.305  18.389  0.00  0.00    +0.000 A 
ATOM     14  C   UNL     1       2.300   8.052  18.548  0.00  0.00    +0.000 A 
BRANCH   9  15
ATOM     15  N   UNL     1       2.455   5.941  19.782  0.00  0.00    +0.000 N 
BRANCH  15  17
ATOM     16  C   UNL     1       4.769   5.164  19.193  0.00  0.00    +0.000 C 
ATOM     17  C   UNL     1       3.312   5.302  18.760  0.00  0.00    +0.000 C 
ENDBRANCH  15  17
BRANCH  15  18
ATOM     18  C   UNL     1       1.834   5.055  20.772  0.00  0.00    +0.000 C 
ATOM     19  C   UNL     1       0.999   3.957  20.114  0.00  0.00    +0.000 C 
ENDBRANCH  15  18
ENDBRANCH   9  15
ENDBRANCH   1  12
BRANCH   1  20
ATOM     20  C   UNL     1      -1.309  10.851  18.411  0.00  0.00    +0.000 A 
ATOM     21  C   UNL     1      -1.466  10.053  17.269  0.00  0.00    +0.000 A 
ATOM     22  C   UNL     1      -2.718   9.943  16.655  0.00  0.00    +0.000 A 
ATOM     23  C   UNL     1      -3.819  10.622  17.180  0.00  0.00    +0.000 A 
ATOM     24  C   UNL     1      -3.677  11.394  18.332  0.00  0.00    +0.000 A 
ATOM     25  C   UNL     1      -2.431  11.503  18.948  0.00  0.00    +0.000 A 
ENDBRANCH   1  20
BRANCH   6  26
ATOM     26  C   UNL     1       3.700  16.182  19.046  0.00  0.00    +0.000 C 
ATOM     27  C   UNL     1       3.967  17.161  20.175  0.00  0.00    +0.000 C 
ENDBRANCH   6  26
BRANCH   6  28
ATOM     28  C   UNL     1       1.620  17.145  17.948  0.00  0.00    +0.000 C 
ATOM     29  C   UNL     1       2.464  17.394  16.712  0.00  0.00    +0.000 C 
ENDBRANCH   6  28
TORSDOF 7
ENDMDL
MODEL 2
REMARK VINA RESULT:      -7.5      0.290      1.528
REMARK  Name = 
REMARK  11 active torsions:
REMARK  status: ('A' for Active; 'I' for Inactive)
REMARK    1  A    between atoms: C_1  and  C_2
REMARK    2  A    between atoms: C_2  and  N_3
REMARK    3  A    between atoms: N_3  and  C_4
REMARK    4  A    between atoms: N_3  and  C_6
REMARK    5  A    between atoms: C_4  and  C_5
REMARK    6  A    between atoms: C_9  and  C_10
REMARK    7  A    between atoms: C_10  and  C_22
REMARK    8  A    between atoms: N_15  and  C_16
REMARK    9  A    between atoms: N_15  and  C_18
REMARK   10  A    between atoms: C_16  and  C_17
REMARK   11  A    between atoms: C_18  and  C_19
REMARK                            x       y       z     vdW  Elec       q    Type
REMARK                         _______ _______ _______ _____ _____    ______ ____
ROOT
ATOM      1  C   UNL     1       0.158  11.115  19.006  0.00  0.00    +0.000 C 
ATOM      2  C   UNL     1       0.554  12.400  19.289  0.00  0.00    +0.000 C 
ATOM      3  C   UNL     1       1.739  12.751  20.068  0.00  0.00    +0.000 C 
ATOM      4  C   UNL     1       2.327  13.947  20.001  0.00  0.00    +0.000 C 
ATOM      5  C   UNL     1       1.760  15.001  19.118  0.00  0.00    +0.000 C 
ATOM      6  N   UNL     1       2.458  16.029  18.732  0.00  0.00    +0.000 N 
ATOM      7  C   UNL     1       0.311  14.787  18.766  0.00  0.00    +0.000 C 
ATOM      8  C   UNL     1      -0.243  13.565  18.872  0.00  0.00    +0.000 C 
ENDROOT
BRANCH   1  12
ATOM      9  C   UNL     1       2.200   7.264  19.411  0.00  0.00    +0.000 A 
ATOM     10  C   UNL     1       1.589   7.863  20.505  0.00  0.00    +0.000 A 
ATOM     11  C   UNL     1       0.927   9.088  20.403  0.00  0.00    +0.000 A 
ATOM     12  C   UNL     1       0.973   9.865  19.249  0.00  0.00    +0.000 A 
ATOM     13  C   UNL     1       1.779   9.364  18.217  0.00  0.00    +0.000 A 
ATOM     14  C   UNL     1       2.376   8.095  18.301  0.00  0.00    +0.000 A 
BRANCH   9  15
ATOM     15  N   UNL     1       2.503   5.914  19.410  0.00  0.00    +0.000 N 
BRANCH  15  17
ATOM     16  C   UNL     1       1.004   4.124  20.333  0.00  0.00    +0.000 C 
ATOM     17  C   UNL     1       2.185   5.059  20.574  0.00  0.00    +0.000 C 
ENDBRANCH  15  17
BRANCH  15  18
ATOM     18  C   UNL     1       3.301   5.304  18.340  0.00  0.00    +0.000 C 
ATOM     19  C   UNL     1       4.456   4.471  18.891  0.00  0.00    +0.000 C 
ENDBRANCH  15  18
ENDBRANCH   9  15
ENDBRANCH   1  12
BRANCH   1  20
ATOM     20  C   UNL     1      -1.217  10.947  18.414  0.00  0.00    +0.000 A 
ATOM     21  C   UNL     1      -2.343  11.611  18.923  0.00  0.00    +0.000 A 
ATOM     22  C   UNL     1      -3.610  11.361  18.385  0.00  0.00    +0.000 A 
ATOM     23  C   UNL     1      -3.759  10.454  17.334  0.00  0.00    +0.000 A 
ATOM     24  C   UNL     1      -2.641   9.812  16.804  0.00  0.00    +0.000 A 
ATOM     25  C   UNL     1      -1.376  10.061  17.336  0.00  0.00    +0.000 A 
ENDBRANCH   1  20
BRANCH   6  26
ATOM     26  C   UNL     1       3.960  16.128  18.931  0.00  0.00    +0.000 C 
ATOM     27  C   UNL     1       4.313  17.136  20.009  0.00  0.00    +0.000 C 
ENDBRANCH   6  26
BRANCH   6  28
ATOM     28  C   UNL     1       1.853  17.175  17.968  0.00  0.00    +0.000 C 
ATOM     29  C   UNL     1       2.555  17.349  16.633  0.00  0.00    +0.000 C 
ENDBRANCH   6  28
TORSDOF 7
ENDMDL
MODEL 3
REMARK VINA RESULT:      -7.5      0.457      1.007
REMARK  Name = 
REMARK  11 active torsions:
REMARK  status: ('A' for Active; 'I' for Inactive)
REMARK    1  A    between atoms: C_1  and  C_2
REMARK    2  A    between atoms: C_2  and  N_3
REMARK    3  A    between atoms: N_3  and  C_4
REMARK    4  A    between atoms: N_3  and  C_6
REMARK    5  A    between atoms: C_4  and  C_5
REMARK    6  A    between atoms: C_9  and  C_10
REMARK    7  A    between atoms: C_10  and  C_22
REMARK    8  A    between atoms: N_15  and  C_16
REMARK    9  A    between atoms: N_15  and  C_18
REMARK   10  A    between atoms: C_16  and  C_17
REMARK   11  A    between atoms: C_18  and  C_19
REMARK                            x       y       z     vdW  Elec       q    Type
REMARK                         _______ _______ _______ _____ _____    ______ ____
ROOT
ATOM      1  C   UNL     1       0.203  11.105  19.011  0.00  0.00    +0.000 C 
ATOM      2  C   UNL     1       0.614  12.378  19.324  0.00  0.00    +0.000 C 
ATOM      3  C   UNL     1       1.806  12.699  20.105  0.00  0.00    +0.000 C 
ATOM      4  C   UNL     1       2.405  13.890  20.064  0.00  0.00    +0.000 C 
ATOM      5  C   UNL     1       1.843  14.971  19.212  0.00  0.00    +0.000 C 
ATOM      6  N   UNL     1       2.549  16.002  18.847  0.00  0.00    +0.000 N 
ATOM      7  C   UNL     1       0.390  14.780  18.862  0.00  0.00    +0.000 C 
ATOM      8  C   UNL     1      -0.174  13.561  18.941  0.00  0.00    +0.000 C 
ENDROOT
BRANCH   1  12
ATOM      9  C   UNL     1       2.201   7.222  19.322  0.00  0.00    +0.000 A 
ATOM     10  C   UNL     1       1.639   7.823  20.440  0.00  0.00    +0.000 A 
ATOM     11  C   UNL     1       0.992   9.058  20.369  0.00  0.00    +0.000 A 
ATOM     12  C   UNL     1       1.008   9.841  19.218  0.00  0.00    +0.000 A 
ATOM     13  C   UNL     1       1.769   9.335  18.155  0.00  0.00    +0.000 A 
ATOM     14  C   UNL     1       2.349   8.056  18.210  0.00  0.00    +0.000 A 
BRANCH   9  15
ATOM     15  N   UNL     1       2.484   5.867  19.303  0.00  0.00    +0.000 N 
BRANCH  15  17
ATOM     16  C   UNL     1       4.022   4.270  18.124  0.00  0.00    +0.000 C 
ATOM     17  C   UNL     1       2.792   5.169  18.036  0.00  0.00    +0.000 C 
ENDBRANCH  15  17
BRANCH  15  18
ATOM     18  C   UNL     1       2.325   5.030  20.497  0.00  0.00    +0.000 C 
ATOM     19  C   UNL     1       1.071   4.160  20.424  0.00  0.00    +0.000 C 
ENDBRANCH  15  18
ENDBRANCH   9  15
ENDBRANCH   1  12
BRANCH   1  20
ATOM     20  C   UNL     1      -1.176  10.965  18.423  0.00  0.00    +0.000 A 
ATOM     21  C   UNL     1      -2.293  11.629  18.952  0.00  0.00    +0.000 A 
ATOM     22  C   UNL     1      -3.564  11.405  18.416  0.00  0.00    +0.000 A 
ATOM     23  C   UNL     1      -3.729  10.523  17.346  0.00  0.00    +0.000 A 
ATOM     24  C   UNL     1      -2.621   9.881  16.796  0.00  0.00    +0.000 A 
ATOM     25  C   UNL     1      -1.351  10.105  17.326  0.00  0.00    +0.000 A 
ENDBRANCH   1  20
BRANCH   6  26
ATOM     26  C   UNL     1       4.052  16.082  19.040  0.00  0.00    +0.000 C 
ATOM     27  C   UNL     1       4.437  17.233  19.952  0.00  0.00    +0.000 C 
ENDBRANCH   6  26
BRANCH   6  28
ATOM     28  C   UNL     1       1.950  17.172  18.115  0.00  0.00    +0.000 C 
ATOM     29  C   UNL     1       2.541  17.281  16.722  0.00  0.00    +0.000 C 
ENDBRANCH   6  28
TORSDOF 7
ENDMDL
MODEL 4
REMARK VINA RESULT:      -7.5      2.273      5.529
REMARK  Name = 
REMARK  11 active torsions:
REMARK  status: ('A' for Active; 'I' for Inactive)
REMARK    1  A    between atoms: C_1  and  C_2
REMARK    2  A    between atoms: C_2  and  N_3
REMARK    3  A    between atoms: N_3  and  C_4
REMARK    4  A    between atoms: N_3  and  C_6
REMARK    5  A    between atoms: C_4  and  C_5
REMARK    6  A    between atoms: C_9  and  C_10
REMARK    7  A    between atoms: C_10  and  C_22
REMARK    8  A    between atoms: N_15  and  C_16
REMARK    9  A    between atoms: N_15  and  C_18
REMARK   10  A    between atoms: C_16  and  C_17
REMARK   11  A    between atoms: C_18  and  C_19
REMARK                            x       y       z     vdW  Elec       q    Type
REMARK                         _______ _______ _______ _____ _____    ______ ____
ROOT
ATOM      1  C   UNL     1       0.653  10.710  18.838  0.00  0.00    +0.000 C 
ATOM      2  C   UNL     1      -0.611  10.871  18.325  0.00  0.00    +0.000 C 
ATOM      3  C   UNL     1      -1.416   9.798  17.748  0.00  0.00    +0.000 C 
ATOM      4  C   UNL     1      -2.743   9.865  17.628  0.00  0.00    +0.000 C 
ATOM      5  C   UNL     1      -3.463  11.089  18.073  0.00  0.00    +0.000 C 
ATOM      6  N   UNL     1      -4.741  11.088  18.321  0.00  0.00    +0.000 N 
ATOM      7  C   UNL     1      -2.591  12.314  18.157  0.00  0.00    +0.000 C 
ATOM      8  C   UNL     1      -1.254  12.193  18.253  0.00  0.00    +0.000 C 
ENDROOT
BRANCH   1  12
ATOM      9  C   UNL     1       2.279   6.674  19.326  0.00  0.00    +0.000 A 
ATOM     10  C   UNL     1       1.807   7.388  20.420  0.00  0.00    +0.000 A 
ATOM     11  C   UNL     1       1.279   8.674  20.293  0.00  0.00    +0.000 A 
ATOM     12  C   UNL     1       1.339   9.388  19.099  0.00  0.00    +0.000 A 
ATOM     13  C   UNL     1       2.019   8.752  18.050  0.00  0.00    +0.000 A 
ATOM     14  C   UNL     1       2.475   7.428  18.165  0.00  0.00    +0.000 A 
BRANCH   9  15
ATOM     15  N   UNL     1       2.430   5.299  19.378  0.00  0.00    +0.000 N 
BRANCH  15  17
ATOM     16  C   UNL     1       4.036   4.064  17.896  0.00  0.00    +0.000 C 
ATOM     17  C   UNL     1       2.596   4.503  18.143  0.00  0.00    +0.000 C 
ENDBRANCH  15  17
BRANCH  15  18
ATOM     18  C   UNL     1       2.262   4.553  20.630  0.00  0.00    +0.000 C 
ATOM     19  C   UNL     1       1.114   3.549  20.549  0.00  0.00    +0.000 C 
ENDBRANCH  15  18
ENDBRANCH   9  15
ENDBRANCH   1  12
BRANCH   1  20
ATOM     20  C   UNL     1       1.421  11.968  19.151  0.00  0.00    +0.000 A 
ATOM     21  C   UNL     1       2.219  12.621  18.200  0.00  0.00    +0.000 A 
ATOM     22  C   UNL     1       2.971  13.743  18.564  0.00  0.00    +0.000 A 
ATOM     23  C   UNL     1       2.926  14.222  19.874  0.00  0.00    +0.000 A 
ATOM     24  C   UNL     1       2.113  13.597  20.817  0.00  0.00    +0.000 A 
ATOM     25  C   UNL     1       1.359  12.480  20.457  0.00  0.00    +0.000 A 
ENDBRANCH   1  20
BRANCH   6  26
ATOM     26  C   UNL     1      -5.560   9.814  18.422  0.00  0.00    +0.000 C 
ATOM     27  C   UNL     1      -6.797  10.014  19.280  0.00  0.00    +0.000 C 
ENDBRANCH   6  26
BRANCH   6  28
ATOM     28  C   UNL     1      -5.506  12.348  18.622  0.00  0.00    +0.000 C 
ATOM     29  C   UNL     1      -6.145  12.892  17.357  0.00  0.00    +0.000 C 
ENDBRANCH   6  28
TORSDOF 7
ENDMDL
MODEL 5
REMARK VINA RESULT:      -7.5      0.376      1.133
REMARK  Name = 
REMARK  11 active torsions:
REMARK  status: ('A' for Active; 'I' for Inactive)
REMARK    1  A    between atoms: C_1  and  C_2
REMARK    2  A    between atoms: C_2  and  N_3
REMARK    3  A    between atoms: N_3  and  C_4
REMARK    4  A    between atoms: N_3  and  C_6
REMARK    5  A    between atoms: C_4  and  C_5
REMARK    6  A    between atoms: C_9  and  C_10
REMARK    7  A    between atoms: C_10  and  C_22
REMARK    8  A    between atoms: N_15  and  C_16
REMARK    9  A    between atoms: N_15  and  C_18
REMARK   10  A    between atoms: C_16  and  C_17
REMARK   11  A    between atoms: C_18  and  C_19
REMARK                            x       y       z     vdW  Elec       q    Type
REMARK                         _______ _______ _______ _____ _____    ______ ____
ROOT
ATOM      1  C   UNL     1       0.088  11.021  19.090  0.00  0.00    +0.000 C 
ATOM      2  C   UNL     1       0.455  12.316  19.370  0.00  0.00    +0.000 C 
ATOM      3  C   UNL     1       1.591  12.695  20.206  0.00  0.00    +0.000 C 
ATOM      4  C   UNL     1       2.170  13.895  20.148  0.00  0.00    +0.000 C 
ATOM      5  C   UNL     1       1.641  14.926  19.215  0.00  0.00    +0.000 C 
ATOM      6  N   UNL     1       2.348  15.955  18.848  0.00  0.00    +0.000 N 
ATOM      7  C   UNL     1       0.216  14.689  18.788  0.00  0.00    +0.000 C 
ATOM      8  C   UNL     1      -0.330  13.464  18.888  0.00  0.00    +0.000 C 
ENDROOT
BRANCH   1  12
ATOM      9  C   UNL     1       2.127   7.196  19.703  0.00  0.00    +0.000 A 
ATOM     10  C   UNL     1       1.509   7.849  20.761  0.00  0.00    +0.000 A 
ATOM     11  C   UNL     1       0.847   9.067  20.593  0.00  0.00    +0.000 A 
ATOM     12  C   UNL     1       0.901   9.785  19.402  0.00  0.00    +0.000 A 
ATOM     13  C   UNL     1       1.715   9.234  18.402  0.00  0.00    +0.000 A 
ATOM     14  C   UNL     1       2.310   7.970  18.553  0.00  0.00    +0.000 A 
BRANCH   9  15
ATOM     15  N   UNL     1       2.431   5.848  19.772  0.00  0.00    +0.000 N 
BRANCH  15  17
ATOM     16  C   UNL     1       2.177   3.941  21.386  0.00  0.00    +0.000 C 
ATOM     17  C   UNL     1       1.498   4.887  20.399  0.00  0.00    +0.000 C 
ENDBRANCH  15  17
BRANCH  15  18
ATOM     18  C   UNL     1       3.750   5.334  19.386  0.00  0.00    +0.000 C 
ATOM     19  C   UNL     1       3.710   4.604  18.045  0.00  0.00    +0.000 C 
ENDBRANCH  15  18
ENDBRANCH   9  15
ENDBRANCH   1  12
BRANCH   1  20
ATOM     20  C   UNL     1      -1.251  10.827  18.428  0.00  0.00    +0.000 A 
ATOM     21  C   UNL     1      -1.418  10.032  17.284  0.00  0.00    +0.000 A 
ATOM     22  C   UNL     1      -2.669   9.946  16.664  0.00  0.00    +0.000 A 
ATOM     23  C   UNL     1      -3.759  10.646  17.184  0.00  0.00    +0.000 A 
ATOM     24  C   UNL     1      -3.608  11.415  18.336  0.00  0.00    +0.000 A 
ATOM     25  C   UNL     1      -2.363  11.500  18.959  0.00  0.00    +0.000 A 
ENDBRANCH   1  20
BRANCH   6  26
ATOM     26  C   UNL     1       3.836  16.075  19.127  0.00  0.00    +0.000 C 
ATOM     27  C   UNL     1       4.123  17.139  20.170  0.00  0.00    +0.000 C 
ENDBRANCH   6  26
BRANCH   6  28
ATOM     28  C   UNL     1       1.774  17.079  18.030  0.00  0.00    +0.000 C 
ATOM     29  C   UNL     1       2.572  17.262  16.751  0.00  0.00    +0.000 C 
ENDBRANCH   6  28
TORSDOF 7
ENDMDL
MODEL 6
REMARK VINA RESULT:      -7.4      2.229      5.690
REMARK  Name = 
REMARK  11 active torsions:
REMARK  status: ('A' for Active; 'I' for Inactive)
REMARK    1  A    between atoms: C_1  and  C_2
REMARK    2  A    between atoms: C_2  and  N_3
REMARK    3  A    between atoms: N_3  and  C_4
REMARK    4  A    between atoms: N_3  and  C_6
REMARK    5  A    between atoms: C_4  and  C_5
REMARK    6  A    between atoms: C_9  and  C_10
REMARK    7  A    between atoms: C_10  and  C_22
REMARK    8  A    between atoms: N_15  and  C_16
REMARK    9  A    between atoms: N_15  and  C_18
REMARK   10  A    between atoms: C_16  and  C_17
REMARK   11  A    between atoms: C_18  and  C_19
REMARK                            x       y       z     vdW  Elec       q    Type
REMARK                         _______ _______ _______ _____ _____    ______ ____
ROOT
ATOM      1  C   UNL     1       0.670  10.673  18.888  0.00  0.00    +0.000 C 
ATOM      2  C   UNL     1      -0.587  10.840  18.361  0.00  0.00    +0.000 C 
ATOM      3  C   UNL     1      -1.391   9.771  17.773  0.00  0.00    +0.000 C 
ATOM      4  C   UNL     1      -2.716   9.844  17.639  0.00  0.00    +0.000 C 
ATOM      5  C   UNL     1      -3.436  11.070  18.076  0.00  0.00    +0.000 C 
ATOM      6  N   UNL     1      -4.716  11.074  18.310  0.00  0.00    +0.000 N 
ATOM      7  C   UNL     1      -2.559  12.292  18.172  0.00  0.00    +0.000 C 
ATOM      8  C   UNL     1      -1.225  12.165  18.283  0.00  0.00    +0.000 C 
ENDROOT
BRANCH   1  12
ATOM      9  C   UNL     1       2.278   6.631  19.383  0.00  0.00    +0.000 A 
ATOM     10  C   UNL     1       1.779   7.336  20.471  0.00  0.00    +0.000 A 
ATOM     11  C   UNL     1       1.256   8.624  20.341  0.00  0.00    +0.000 A 
ATOM     12  C   UNL     1       1.347   9.348  19.155  0.00  0.00    +0.000 A 
ATOM     13  C   UNL     1       2.053   8.720  18.119  0.00  0.00    +0.000 A 
ATOM     14  C   UNL     1       2.505   7.395  18.235  0.00  0.00    +0.000 A 
BRANCH   9  15
ATOM     15  N   UNL     1       2.426   5.256  19.428  0.00  0.00    +0.000 N 
BRANCH  15  17
ATOM     16  C   UNL     1       1.019   3.480  20.509  0.00  0.00    +0.000 C 
ATOM     17  C   UNL     1       2.145   4.498  20.665  0.00  0.00    +0.000 C 
ENDBRANCH  15  17
BRANCH  15  18
ATOM     18  C   UNL     1       3.026   4.510  18.316  0.00  0.00    +0.000 C 
ATOM     19  C   UNL     1       4.357   3.871  18.708  0.00  0.00    +0.000 C 
ENDBRANCH  15  18
ENDBRANCH   9  15
ENDBRANCH   1  12
BRANCH   1  20
ATOM     20  C   UNL     1       1.439  11.928  19.211  0.00  0.00    +0.000 A 
ATOM     21  C   UNL     1       1.346  12.570  20.455  0.00  0.00    +0.000 A 
ATOM     22  C   UNL     1       2.022  13.774  20.677  0.00  0.00    +0.000 A 
ATOM     23  C   UNL     1       2.799  14.339  19.664  0.00  0.00    +0.000 A 
ATOM     24  C   UNL     1       2.920  13.693  18.435  0.00  0.00    +0.000 A 
ATOM     25  C   UNL     1       2.250  12.490  18.211  0.00  0.00    +0.000 A 
ENDBRANCH   1  20
BRANCH   6  26
ATOM     26  C   UNL     1      -5.542   9.804  18.401  0.00  0.00    +0.000 C 
ATOM     27  C   UNL     1      -6.789  10.009  19.241  0.00  0.00    +0.000 C 
ENDBRANCH   6  26
BRANCH   6  28
ATOM     28  C   UNL     1      -5.480  12.337  18.604  0.00  0.00    +0.000 C 
ATOM     29  C   UNL     1      -6.106  12.882  17.333  0.00  0.00    +0.000 C 
ENDBRANCH   6  28
TORSDOF 7
ENDMDL
MODEL 7
REMARK VINA RESULT:      -7.4      0.777      1.398
REMARK  Name = 
REMARK  11 active torsions:
REMARK  status: ('A' for Active; 'I' for Inactive)
REMARK    1  A    between atoms: C_1  and  C_2
REMARK    2  A    between atoms: C_2  and  N_3
REMARK    3  A    between atoms: N_3  and  C_4
REMARK    4  A    between atoms: N_3  and  C_6
REMARK    5  A    between atoms: C_4  and  C_5
REMARK    6  A    between atoms: C_9  and  C_10
REMARK    7  A    between atoms: C_10  and  C_22
REMARK    8  A    between atoms: N_15  and  C_16
REMARK    9  A    between atoms: N_15  and  C_18
REMARK   10  A    between atoms: C_16  and  C_17
REMARK   11  A    between atoms: C_18  and  C_19
REMARK                            x       y       z     vdW  Elec       q    Type
REMARK                         _______ _______ _______ _____ _____    ______ ____
ROOT
ATOM      1  C   UNL     1       0.154  11.105  18.875  0.00  0.00    +0.000 C 
ATOM      2  C   UNL     1       0.536  12.387  19.189  0.00  0.00    +0.000 C 
ATOM      3  C   UNL     1       1.753  12.737  19.917  0.00  0.00    +0.000 C 
ATOM      4  C   UNL     1       2.310  13.948  19.867  0.00  0.00    +0.000 C 
ATOM      5  C   UNL     1       1.671  15.022  19.060  0.00  0.00    +0.000 C 
ATOM      6  N   UNL     1       2.323  16.081  18.679  0.00  0.00    +0.000 N 
ATOM      7  C   UNL     1       0.210  14.786  18.777  0.00  0.00    +0.000 C 
ATOM      8  C   UNL     1      -0.309  13.547  18.863  0.00  0.00    +0.000 C 
ENDROOT
BRANCH   1  12
ATOM      9  C   UNL     1       2.308   7.296  19.006  0.00  0.00    +0.000 A 
ATOM     10  C   UNL     1       1.725   7.822  20.151  0.00  0.00    +0.000 A 
ATOM     11  C   UNL     1       1.028   9.031  20.137  0.00  0.00    +0.000 A 
ATOM     12  C   UNL     1       1.010   9.867  19.023  0.00  0.00    +0.000 A 
ATOM     13  C   UNL     1       1.788   9.441  17.937  0.00  0.00    +0.000 A 
ATOM     14  C   UNL     1       2.419   8.185  17.933  0.00  0.00    +0.000 A 
BRANCH   9  15
ATOM     15  N   UNL     1       2.645   5.956  18.924  0.00  0.00    +0.000 N 
BRANCH  15  17
ATOM     16  C   UNL     1       5.059   5.289  19.102  0.00  0.00    +0.000 C 
ATOM     17  C   UNL     1       3.699   5.380  19.787  0.00  0.00    +0.000 C 
ENDBRANCH  15  17
BRANCH  15  18
ATOM     18  C   UNL     1       2.103   5.088  17.873  0.00  0.00    +0.000 C 
ATOM     19  C   UNL     1       1.492   3.809  18.444  0.00  0.00    +0.000 C 
ENDBRANCH  15  18
ENDBRANCH   9  15
ENDBRANCH   1  12
BRANCH   1  20
ATOM     20  C   UNL     1      -1.247  10.926  18.352  0.00  0.00    +0.000 A 
ATOM     21  C   UNL     1      -2.353  11.574  18.920  0.00  0.00    +0.000 A 
ATOM     22  C   UNL     1      -3.642  11.314  18.444  0.00  0.00    +0.000 A 
ATOM     23  C   UNL     1      -3.834  10.413  17.396  0.00  0.00    +0.000 A 
ATOM     24  C   UNL     1      -2.738   9.787  16.806  0.00  0.00    +0.000 A 
ATOM     25  C   UNL     1      -1.450  10.046  17.276  0.00  0.00    +0.000 A 
ENDBRANCH   1  20
BRANCH   6  26
ATOM     26  C   UNL     1       3.831  16.210  18.801  0.00  0.00    +0.000 C 
ATOM     27  C   UNL     1       4.546  15.459  17.693  0.00  0.00    +0.000 C 
ENDBRANCH   6  26
BRANCH   6  28
ATOM     28  C   UNL     1       1.652  17.241  17.995  0.00  0.00    +0.000 C 
ATOM     29  C   UNL     1       1.226  18.280  19.016  0.00  0.00    +0.000 C 
ENDBRANCH   6  28
TORSDOF 7
ENDMDL
MODEL 8
REMARK VINA RESULT:      -7.2      2.239      5.615
REMARK  Name = 
REMARK  11 active torsions:
REMARK  status: ('A' for Active; 'I' for Inactive)
REMARK    1  A    between atoms: C_1  and  C_2
REMARK    2  A    between atoms: C_2  and  N_3
REMARK    3  A    between atoms: N_3  and  C_4
REMARK    4  A    between atoms: N_3  and  C_6
REMARK    5  A    between atoms: C_4  and  C_5
REMARK    6  A    between atoms: C_9  and  C_10
REMARK    7  A    between atoms: C_10  and  C_22
REMARK    8  A    between atoms: N_15  and  C_16
REMARK    9  A    between atoms: N_15  and  C_18
REMARK   10  A    between atoms: C_16  and  C_17
REMARK   11  A    between atoms: C_18  and  C_19
REMARK                            x       y       z     vdW  Elec       q    Type
REMARK                         _______ _______ _______ _____ _____    ______ ____
ROOT
ATOM      1  C   UNL     1       0.780  10.804  18.833  0.00  0.00    +0.000 C 
ATOM      2  C   UNL     1      -0.505  11.016  18.396  0.00  0.00    +0.000 C 
ATOM      3  C   UNL     1      -1.374   9.983  17.837  0.00  0.00    +0.000 C 
ATOM      4  C   UNL     1      -2.703  10.092  17.795  0.00  0.00    +0.000 C 
ATOM      5  C   UNL     1      -3.360  11.322  18.312  0.00  0.00    +0.000 C 
ATOM      6  N   UNL     1      -4.621  11.351  18.632  0.00  0.00    +0.000 N 
ATOM      7  C   UNL     1      -2.447  12.519  18.379  0.00  0.00    +0.000 C 
ATOM      8  C   UNL     1      -1.112  12.357  18.396  0.00  0.00    +0.000 C 
ENDROOT
BRANCH   1  12
ATOM      9  C   UNL     1       2.318   6.714  19.103  0.00  0.00    +0.000 A 
ATOM     10  C   UNL     1       1.883   7.387  20.238  0.00  0.00    +0.000 A 
ATOM     11  C   UNL     1       1.384   8.689  20.180  0.00  0.00    +0.000 A 
ATOM     12  C   UNL     1       1.439   9.456  19.019  0.00  0.00    +0.000 A 
ATOM     13  C   UNL     1       2.084   8.855  17.929  0.00  0.00    +0.000 A 
ATOM     14  C   UNL     1       2.511   7.517  17.975  0.00  0.00    +0.000 A 
BRANCH   9  15
ATOM     15  N   UNL     1       2.438   5.336  19.088  0.00  0.00    +0.000 N 
BRANCH  15  17
ATOM     16  C   UNL     1       1.128   3.607  20.353  0.00  0.00    +0.000 C 
ATOM     17  C   UNL     1       2.329   4.547  20.335  0.00  0.00    +0.000 C 
ENDBRANCH  15  17
BRANCH  15  18
ATOM     18  C   UNL     1       2.844   4.611  17.880  0.00  0.00    +0.000 C 
ATOM     19  C   UNL     1       4.302   4.157  17.948  0.00  0.00    +0.000 C 
ENDBRANCH  15  18
ENDBRANCH   9  15
ENDBRANCH   1  12
BRANCH   1  20
ATOM     20  C   UNL     1       1.601  12.030  19.135  0.00  0.00    +0.000 A 
ATOM     21  C   UNL     1       2.376  12.678  18.162  0.00  0.00    +0.000 A 
ATOM     22  C   UNL     1       3.180  13.767  18.513  0.00  0.00    +0.000 A 
ATOM     23  C   UNL     1       3.210  14.220  19.833  0.00  0.00    +0.000 A 
ATOM     24  C   UNL     1       2.421  13.600  20.801  0.00  0.00    +0.000 A 
ATOM     25  C   UNL     1       1.616  12.516  20.453  0.00  0.00    +0.000 A 
ENDBRANCH   1  20
BRANCH   6  26
ATOM     26  C   UNL     1      -5.472  10.099  18.745  0.00  0.00    +0.000 C 
ATOM     27  C   UNL     1      -6.953  10.429  18.736  0.00  0.00    +0.000 C 
ENDBRANCH   6  26
BRANCH   6  28
ATOM     28  C   UNL     1      -5.330  12.623  19.009  0.00  0.00    +0.000 C 
ATOM     29  C   UNL     1      -5.196  12.880  20.499  0.00  0.00    +0.000 C 
ENDBRANCH   6  28
TORSDOF 7
ENDMDL
MODEL 9
REMARK VINA RESULT:      -7.2      2.268      5.573
REMARK  Name = 
REMARK  11 active torsions:
REMARK  status: ('A' for Active; 'I' for Inactive)
REMARK    1  A    between atoms: C_1  and  C_2
REMARK    2  A    between atoms: C_2  and  N_3
REMARK    3  A    between atoms: N_3  and  C_4
REMARK    4  A    between atoms: N_3  and  C_6
REMARK    5  A    between atoms: C_4  and  C_5
REMARK    6  A    between atoms: C_9  and  C_10
REMARK    7  A    between atoms: C_10  and  C_22
REMARK    8  A    between atoms: N_15  and  C_16
REMARK    9  A    between atoms: N_15  and  C_18
REMARK   10  A    between atoms: C_16  and  C_17
REMARK   11  A    between atoms: C_18  and  C_19
REMARK                            x       y       z     vdW  Elec       q    Type
REMARK                         _______ _______ _______ _____ _____    ______ ____
ROOT
ATOM      1  C   UNL     1       0.811  10.736  18.805  0.00  0.00    +0.000 C 
ATOM      2  C   UNL     1      -0.466  10.944  18.342  0.00  0.00    +0.000 C 
ATOM      3  C   UNL     1      -1.295   9.924  17.705  0.00  0.00    +0.000 C 
ATOM      4  C   UNL     1      -2.625  10.008  17.629  0.00  0.00    +0.000 C 
ATOM      5  C   UNL     1      -3.323  11.196  18.188  0.00  0.00    +0.000 C 
ATOM      6  N   UNL     1      -4.592  11.183  18.471  0.00  0.00    +0.000 N 
ATOM      7  C   UNL     1      -2.439  12.407  18.344  0.00  0.00    +0.000 C 
ATOM      8  C   UNL     1      -1.101  12.271  18.392  0.00  0.00    +0.000 C 
ENDROOT
BRANCH   1  12
ATOM      9  C   UNL     1       2.434   6.672  18.905  0.00  0.00    +0.000 A 
ATOM     10  C   UNL     1       1.932   7.264  20.056  0.00  0.00    +0.000 A 
ATOM     11  C   UNL     1       1.404   8.556  20.052  0.00  0.00    +0.000 A 
ATOM     12  C   UNL     1       1.493   9.394  18.943  0.00  0.00    +0.000 A 
ATOM     13  C   UNL     1       2.202   8.874  17.851  0.00  0.00    +0.000 A 
ATOM     14  C   UNL     1       2.659   7.545  17.837  0.00  0.00    +0.000 A 
BRANCH   9  15
ATOM     15  N   UNL     1       2.588   5.299  18.814  0.00  0.00    +0.000 N 
BRANCH  15  17
ATOM     16  C   UNL     1       5.056   5.108  19.235  0.00  0.00    +0.000 C 
ATOM     17  C   UNL     1       3.655   4.600  19.562  0.00  0.00    +0.000 C 
ENDBRANCH  15  17
BRANCH  15  18
ATOM     18  C   UNL     1       1.822   4.500  17.851  0.00  0.00    +0.000 C 
ATOM     19  C   UNL     1       1.190   3.271  18.502  0.00  0.00    +0.000 C 
ENDBRANCH  15  18
ENDBRANCH   9  15
ENDBRANCH   1  12
BRANCH   1  20
ATOM     20  C   UNL     1       1.596  11.961  19.195  0.00  0.00    +0.000 A 
ATOM     21  C   UNL     1       1.546  12.511  20.484  0.00  0.00    +0.000 A 
ATOM     22  C   UNL     1       2.236  13.693  20.772  0.00  0.00    +0.000 A 
ATOM     23  C   UNL     1       2.982  14.329  19.778  0.00  0.00    +0.000 A 
ATOM     24  C   UNL     1       3.060  13.775  18.502  0.00  0.00    +0.000 A 
ATOM     25  C   UNL     1       2.376  12.594  18.213  0.00  0.00    +0.000 A 
ENDBRANCH   1  20
BRANCH   6  26
ATOM     26  C   UNL     1      -5.419   9.910  18.495  0.00  0.00    +0.000 C 
ATOM     27  C   UNL     1      -6.842  10.177  18.950  0.00  0.00    +0.000 C 
ENDBRANCH   6  26
BRANCH   6  28
ATOM     28  C   UNL     1      -5.340  12.419  18.891  0.00  0.00    +0.000 C 
ATOM     29  C   UNL     1      -5.049  12.743  20.345  0.00  0.00    +0.000 C 
ENDBRANCH   6  28
TORSDOF 7
ENDMDL
