MODEL 1
REMARK VINA RESULT:      -7.4      0.000      0.000
REMARK  Name = 
REMARK  4 active torsions:
REMARK  status: ('A' for Active; 'I' for Inactive)
REMARK    1  A    between atoms: C_1  and  C_2
REMARK    2  A    between atoms: C_7  and  O_8
REMARK    3  A    between atoms: O_8  and  C_9
REMARK    4  A    between atoms: C_15  and  C_16
REMARK                            x       y       z     vdW  Elec       q    Type
REMARK                         _______ _______ _______ _____ _____    ______ ____
ROOT
ATOM      1  C   UNL     1       0.325  10.379  21.100  0.00  0.00    +0.000 C 
ATOM      2  C   UNL     1       0.964   9.240  20.365  0.00  0.00    +0.000 A 
ATOM      3  C   UNL     1       1.478   9.409  19.079  0.00  0.00    +0.000 A 
ATOM      4  C   UNL     1       2.101   8.342  18.425  0.00  0.00    +0.000 A 
ATOM      5  C   UNL     1       2.231   7.101  19.025  0.00  0.00    +0.000 A 
ATOM      6  N   UNL     1       2.846   6.116  18.357  0.00  0.00    +0.000 NA
ATOM      7  C   UNL     1       2.950   4.898  18.942  0.00  0.00    +0.000 A 
ATOM      8  C   UNL     1       2.505   4.641  20.232  0.00  0.00    +0.000 A 
ATOM      9  C   UNL     1       1.856   5.666  20.921  0.00  0.00    +0.000 A 
ATOM     10  C   UNL     1       1.707   6.921  20.320  0.00  0.00    +0.000 A 
ATOM     11  C   UNL     1       1.069   7.985  20.978  0.00  0.00    +0.000 A 
ENDROOT
BRANCH   8  12
ATOM     12  C   UNL     1       2.705   3.339  20.890  0.00  0.00    +0.000 C 
ATOM     13  O   UNL     1       2.248   3.108  22.002  0.00  0.00    +0.000 OA
ENDBRANCH   8  12
BRANCH   7  14
ATOM     14  O   UNL     1       3.550   3.876  18.216  0.00  0.00    +0.000 OA
BRANCH  14  15
ATOM     15  C   UNL     1       4.812   4.103  17.700  0.00  0.00    +0.000 A 
ATOM     16  C   UNL     1       4.970   3.933  16.322  0.00  0.00    +0.000 A 
ATOM     17  C   UNL     1       6.203   4.195  15.719  0.00  0.00    +0.000 A 
ATOM     18  C   UNL     1       7.280   4.635  16.489  0.00  0.00    +0.000 A 
ATOM     19  C   UNL     1       7.125   4.815  17.862  0.00  0.00    +0.000 A 
ATOM     20  C   UNL     1       5.889   4.567  18.464  0.00  0.00    +0.000 A 
ENDBRANCH  14  15
ENDBRANCH   7  14
TORSDOF 3
ENDMDL
MODEL 2
REMARK VINA RESULT:      -7.3      1.226      1.403
REMARK  Name = 
REMARK  4 active torsions:
REMARK  status: ('A' for Active; 'I' for Inactive)
REMARK    1  A    between atoms: C_1  and  C_2
REMARK    2  A    between atoms: C_7  and  O_8
REMARK    3  A    between atoms: O_8  and  C_9
REMARK    4  A    between atoms: C_15  and  C_16
REMARK                            x       y       z     vdW  Elec       q    Type
REMARK                         _______ _______ _______ _____ _____    ______ ____
ROOT
ATOM      1  C   UNL     1       0.847   9.311  21.376  0.00  0.00    +0.000 C 
ATOM      2  C   UNL     1       1.426   8.348  20.384  0.00  0.00    +0.000 A 
ATOM      3  C   UNL     1       1.674   8.733  19.066  0.00  0.00    +0.000 A 
ATOM      4  C   UNL     1       2.247   7.829  18.166  0.00  0.00    +0.000 A 
ATOM      5  C   UNL     1       2.587   6.543  18.550  0.00  0.00    +0.000 A 
ATOM      6  N   UNL     1       3.143   5.721  17.649  0.00  0.00    +0.000 NA
ATOM      7  C   UNL     1       3.453   4.456  18.026  0.00  0.00    +0.000 A 
ATOM      8  C   UNL     1       3.282   3.993  19.323  0.00  0.00    +0.000 A 
ATOM      9  C   UNL     1       2.693   4.848  20.256  0.00  0.00    +0.000 A 
ATOM     10  C   UNL     1       2.333   6.145  19.877  0.00  0.00    +0.000 A 
ATOM     11  C   UNL     1       1.746   7.045  20.782  0.00  0.00    +0.000 A 
ENDROOT
BRANCH   8  12
ATOM     12  C   UNL     1       3.707   2.647  19.743  0.00  0.00    +0.000 C 
ATOM     13  O   UNL     1       4.834   2.436  20.173  0.00  0.00    +0.000 OA
ENDBRANCH   8  12
BRANCH   7  14
ATOM     14  O   UNL     1       3.987   3.603  17.067  0.00  0.00    +0.000 OA
BRANCH  14  15
ATOM     15  C   UNL     1       5.146   3.995  16.425  0.00  0.00    +0.000 A 
ATOM     16  C   UNL     1       5.109   4.041  15.029  0.00  0.00    +0.000 A 
ATOM     17  C   UNL     1       6.226   4.479  14.310  0.00  0.00    +0.000 A 
ATOM     18  C   UNL     1       7.380   4.878  14.985  0.00  0.00    +0.000 A 
ATOM     19  C   UNL     1       7.418   4.844  16.377  0.00  0.00    +0.000 A 
ATOM     20  C   UNL     1       6.298   4.420  17.097  0.00  0.00    +0.000 A 
ENDBRANCH  14  15
ENDBRANCH   7  14
TORSDOF 3
ENDMDL
MODEL 3
REMARK VINA RESULT:      -7.3      3.374      4.621
REMARK  Name = 
REMARK  4 active torsions:
REMARK  status: ('A' for Active; 'I' for Inactive)
REMARK    1  A    between atoms: C_1  and  C_2
REMARK    2  A    between atoms: C_7  and  O_8
REMARK    3  A    between atoms: O_8  and  C_9
REMARK    4  A    between atoms: C_15  and  C_16
REMARK                            x       y       z     vdW  Elec       q    Type
REMARK                         _______ _______ _______ _____ _____    ______ ____
ROOT
ATOM      1  C   UNL     1       1.401   3.223  21.341  0.00  0.00    +0.000 C 
ATOM      2  C   UNL     1       2.114   3.791  20.152  0.00  0.00    +0.000 A 
ATOM      3  C   UNL     1       1.407   4.348  19.085  0.00  0.00    +0.000 A 
ATOM      4  C   UNL     1       2.093   4.904  18.001  0.00  0.00    +0.000 A 
ATOM      5  C   UNL     1       3.476   4.926  17.953  0.00  0.00    +0.000 A 
ATOM      6  N   UNL     1       4.082   5.480  16.895  0.00  0.00    +0.000 NA
ATOM      7  C   UNL     1       5.437   5.478  16.844  0.00  0.00    +0.000 A 
ATOM      8  C   UNL     1       6.228   4.985  17.873  0.00  0.00    +0.000 A 
ATOM      9  C   UNL     1       5.594   4.398  18.969  0.00  0.00    +0.000 A 
ATOM     10  C   UNL     1       4.196   4.358  19.022  0.00  0.00    +0.000 A 
ATOM     11  C   UNL     1       3.514   3.787  20.109  0.00  0.00    +0.000 A 
ENDROOT
BRANCH   8  12
ATOM     12  C   UNL     1       7.698   5.070  17.848  0.00  0.00    +0.000 C 
ATOM     13  O   UNL     1       8.396   4.067  17.762  0.00  0.00    +0.000 OA
ENDBRANCH   8  12
BRANCH   7  14
ATOM     14  O   UNL     1       6.048   6.017  15.718  0.00  0.00    +0.000 OA
BRANCH  14  15
ATOM     15  C   UNL     1       6.238   5.191  14.627  0.00  0.00    +0.000 A 
ATOM     16  C   UNL     1       5.174   4.358  14.274  0.00  0.00    +0.000 A 
ATOM     17  C   UNL     1       5.271   3.532  13.150  0.00  0.00    +0.000 A 
ATOM     18  C   UNL     1       6.429   3.542  12.372  0.00  0.00    +0.000 A 
ATOM     19  C   UNL     1       7.489   4.379  12.714  0.00  0.00    +0.000 A 
ATOM     20  C   UNL     1       7.388   5.214  13.829  0.00  0.00    +0.000 A 
ENDBRANCH  14  15
ENDBRANCH   7  14
TORSDOF 3
ENDMDL
MODEL 4
REMARK VINA RESULT:      -7.3      3.734      4.801
REMARK  Name = 
REMARK  4 active torsions:
REMARK  status: ('A' for Active; 'I' for Inactive)
REMARK    1  A    between atoms: C_1  and  C_2
REMARK    2  A    between atoms: C_7  and  O_8
REMARK    3  A    between atoms: O_8  and  C_9
REMARK    4  A    between atoms: C_15  and  C_16
REMARK                            x       y       z     vdW  Elec       q    Type
REMARK                         _______ _______ _______ _____ _____    ______ ____
ROOT
ATOM      1  C   UNL     1       1.166   2.726  20.721  0.00  0.00    +0.000 C 
ATOM      2  C   UNL     1       2.014   3.316  19.636  0.00  0.00    +0.000 A 
ATOM      3  C   UNL     1       1.463   3.679  18.406  0.00  0.00    +0.000 A 
ATOM      4  C   UNL     1       2.265   4.260  17.420  0.00  0.00    +0.000 A 
ATOM      5  C   UNL     1       3.613   4.496  17.630  0.00  0.00    +0.000 A 
ATOM      6  N   UNL     1       4.334   5.065  16.654  0.00  0.00    +0.000 NA
ATOM      7  C   UNL     1       5.659   5.273  16.858  0.00  0.00    +0.000 A 
ATOM      8  C   UNL     1       6.290   4.982  18.060  0.00  0.00    +0.000 A 
ATOM      9  C   UNL     1       5.539   4.380  19.070  0.00  0.00    +0.000 A 
ATOM     10  C   UNL     1       4.178   4.125  18.865  0.00  0.00    +0.000 A 
ATOM     11  C   UNL     1       3.380   3.529  19.856  0.00  0.00    +0.000 A 
ENDROOT
BRANCH   8  12
ATOM     12  C   UNL     1       7.708   5.296  18.302  0.00  0.00    +0.000 C 
ATOM     13  O   UNL     1       8.188   5.263  19.428  0.00  0.00    +0.000 OA
ENDBRANCH   8  12
BRANCH   7  14
ATOM     14  O   UNL     1       6.399   5.822  15.819  0.00  0.00    +0.000 OA
BRANCH  14  15
ATOM     15  C   UNL     1       6.444   5.134  14.621  0.00  0.00    +0.000 A 
ATOM     16  C   UNL     1       7.508   5.427  13.765  0.00  0.00    +0.000 A 
ATOM     17  C   UNL     1       7.651   4.735  12.559  0.00  0.00    +0.000 A 
ATOM     18  C   UNL     1       6.734   3.743  12.208  0.00  0.00    +0.000 A 
ATOM     19  C   UNL     1       5.677   3.441  13.063  0.00  0.00    +0.000 A 
ATOM     20  C   UNL     1       5.541   4.122  14.275  0.00  0.00    +0.000 A 
ENDBRANCH  14  15
ENDBRANCH   7  14
TORSDOF 3
ENDMDL
MODEL 5
REMARK VINA RESULT:      -7.3      2.967      4.780
REMARK  Name = 
REMARK  4 active torsions:
REMARK  status: ('A' for Active; 'I' for Inactive)
REMARK    1  A    between atoms: C_1  and  C_2
REMARK    2  A    between atoms: C_7  and  O_8
REMARK    3  A    between atoms: O_8  and  C_9
REMARK    4  A    between atoms: C_15  and  C_16
REMARK                            x       y       z     vdW  Elec       q    Type
REMARK                         _______ _______ _______ _____ _____    ______ ____
ROOT
ATOM      1  C   UNL     1      -2.158  12.433  22.565  0.00  0.00    +0.000 C 
ATOM      2  C   UNL     1      -1.227  11.302  22.247  0.00  0.00    +0.000 A 
ATOM      3  C   UNL     1      -0.883  10.357  23.215  0.00  0.00    +0.000 A 
ATOM      4  C   UNL     1      -0.041   9.291  22.887  0.00  0.00    +0.000 A 
ATOM      5  C   UNL     1       0.467   9.136  21.609  0.00  0.00    +0.000 A 
ATOM      6  N   UNL     1       1.262   8.089  21.347  0.00  0.00    +0.000 NA
ATOM      7  C   UNL     1       1.775   7.956  20.099  0.00  0.00    +0.000 A 
ATOM      8  C   UNL     1       1.460   8.820  19.059  0.00  0.00    +0.000 A 
ATOM      9  C   UNL     1       0.641   9.915  19.338  0.00  0.00    +0.000 A 
ATOM     10  C   UNL     1       0.131  10.090  20.629  0.00  0.00    +0.000 A 
ATOM     11  C   UNL     1      -0.705  11.171  20.955  0.00  0.00    +0.000 A 
ENDROOT
BRANCH   8  12
ATOM     12  C   UNL     1       1.950   8.613  17.686  0.00  0.00    +0.000 C 
ATOM     13  O   UNL     1       3.134   8.743  17.402  0.00  0.00    +0.000 OA
ENDBRANCH   8  12
BRANCH   7  14
ATOM     14  O   UNL     1       2.633   6.890  19.858  0.00  0.00    +0.000 OA
BRANCH  14  15
ATOM     15  C   UNL     1       2.073   5.649  19.620  0.00  0.00    +0.000 A 
ATOM     16  C   UNL     1       2.152   5.162  18.312  0.00  0.00    +0.000 A 
ATOM     17  C   UNL     1       1.656   3.892  18.004  0.00  0.00    +0.000 A 
ATOM     18  C   UNL     1       1.086   3.101  19.004  0.00  0.00    +0.000 A 
ATOM     19  C   UNL     1       1.015   3.579  20.311  0.00  0.00    +0.000 A 
ATOM     20  C   UNL     1       1.522   4.842  20.622  0.00  0.00    +0.000 A 
ENDBRANCH  14  15
ENDBRANCH   7  14
TORSDOF 3
ENDMDL
MODEL 6
REMARK VINA RESULT:      -7.2      0.538      1.211
REMARK  Name = 
REMARK  4 active torsions:
REMARK  status: ('A' for Active; 'I' for Inactive)
REMARK    1  A    between atoms: C_1  and  C_2
REMARK    2  A    between atoms: C_7  and  O_8
REMARK    3  A    between atoms: O_8  and  C_9
REMARK    4  A    between atoms: C_15  and  C_16
REMARK                            x       y       z     vdW  Elec       q    Type
REMARK                         _______ _______ _______ _____ _____    ______ ____
ROOT
ATOM      1  C   UNL     1       0.418  10.960  20.244  0.00  0.00    +0.000 C 
ATOM      2  C   UNL     1       1.050   9.730  19.667  0.00  0.00    +0.000 A 
ATOM      3  C   UNL     1       1.582   9.730  18.377  0.00  0.00    +0.000 A 
ATOM      4  C   UNL     1       2.198   8.582  17.871  0.00  0.00    +0.000 A 
ATOM      5  C   UNL     1       2.304   7.425  18.624  0.00  0.00    +0.000 A 
ATOM      6  N   UNL     1       2.913   6.356  18.093  0.00  0.00    +0.000 NA
ATOM      7  C   UNL     1       2.994   5.220  18.828  0.00  0.00    +0.000 A 
ATOM      8  C   UNL     1       2.531   5.133  20.134  0.00  0.00    +0.000 A 
ATOM      9  C   UNL     1       1.888   6.244  20.680  0.00  0.00    +0.000 A 
ATOM     10  C   UNL     1       1.763   7.415  19.924  0.00  0.00    +0.000 A 
ATOM     11  C   UNL     1       1.131   8.561  20.434  0.00  0.00    +0.000 A 
ENDROOT
BRANCH   8  12
ATOM     12  C   UNL     1       2.706   3.922  20.954  0.00  0.00    +0.000 C 
ATOM     13  O   UNL     1       1.765   3.409  21.546  0.00  0.00    +0.000 OA
ENDBRANCH   8  12
BRANCH   7  14
ATOM     14  O   UNL     1       3.590   4.108  18.245  0.00  0.00    +0.000 OA
BRANCH  14  15
ATOM     15  C   UNL     1       4.796   4.285  17.596  0.00  0.00    +0.000 A 
ATOM     16  C   UNL     1       5.899   4.608  18.392  0.00  0.00    +0.000 A 
ATOM     17  C   UNL     1       7.164   4.751  17.815  0.00  0.00    +0.000 A 
ATOM     18  C   UNL     1       7.333   4.565  16.442  0.00  0.00    +0.000 A 
ATOM     19  C   UNL     1       6.239   4.233  15.646  0.00  0.00    +0.000 A 
ATOM     20  C   UNL     1       4.976   4.076  16.223  0.00  0.00    +0.000 A 
ENDBRANCH  14  15
ENDBRANCH   7  14
TORSDOF 3
ENDMDL
MODEL 7
REMARK VINA RESULT:      -7.2      3.002      4.886
REMARK  Name = 
REMARK  4 active torsions:
REMARK  status: ('A' for Active; 'I' for Inactive)
REMARK    1  A    between atoms: C_1  and  C_2
REMARK    2  A    between atoms: C_7  and  O_8
REMARK    3  A    between atoms: O_8  and  C_9
REMARK    4  A    between atoms: C_15  and  C_16
REMARK                            x       y       z     vdW  Elec       q    Type
REMARK                         _______ _______ _______ _____ _____    ______ ____
ROOT
ATOM      1  C   UNL     1      -2.150  12.354  22.550  0.00  0.00    +0.000 C 
ATOM      2  C   UNL     1      -1.200  11.239  22.234  0.00  0.00    +0.000 A 
ATOM      3  C   UNL     1      -0.809  10.325  23.214  0.00  0.00    +0.000 A 
ATOM      4  C   UNL     1       0.051   9.272  22.889  0.00  0.00    +0.000 A 
ATOM      5  C   UNL     1       0.532   9.100  21.602  0.00  0.00    +0.000 A 
ATOM      6  N   UNL     1       1.346   8.068  21.344  0.00  0.00    +0.000 NA
ATOM      7  C   UNL     1       1.831   7.919  20.086  0.00  0.00    +0.000 A 
ATOM      8  C   UNL     1       1.469   8.751  19.036  0.00  0.00    +0.000 A 
ATOM      9  C   UNL     1       0.630   9.832  19.311  0.00  0.00    +0.000 A 
ATOM     10  C   UNL     1       0.148  10.024  20.610  0.00  0.00    +0.000 A 
ATOM     11  C   UNL     1      -0.706  11.091  20.933  0.00  0.00    +0.000 A 
ENDROOT
BRANCH   8  12
ATOM     12  C   UNL     1       1.930   8.525  17.656  0.00  0.00    +0.000 C 
ATOM     13  O   UNL     1       3.056   8.846  17.296  0.00  0.00    +0.000 OA
ENDBRANCH   8  12
BRANCH   7  14
ATOM     14  O   UNL     1       2.709   6.868  19.848  0.00  0.00    +0.000 OA
BRANCH  14  15
ATOM     15  C   UNL     1       2.173   5.616  19.617  0.00  0.00    +0.000 A 
ATOM     16  C   UNL     1       1.685   4.924  20.728  0.00  0.00    +0.000 A 
ATOM     17  C   UNL     1       1.081   3.674  20.568  0.00  0.00    +0.000 A 
ATOM     18  C   UNL     1       0.955   3.114  19.296  0.00  0.00    +0.000 A 
ATOM     19  C   UNL     1       1.431   3.805  18.184  0.00  0.00    +0.000 A 
ATOM     20  C   UNL     1       2.023   5.060  18.341  0.00  0.00    +0.000 A 
ENDBRANCH  14  15
ENDBRANCH   7  14
TORSDOF 3
ENDMDL
MODEL 8
REMARK VINA RESULT:      -7.2      0.603      1.228
REMARK  Name = 
REMARK  4 active torsions:
REMARK  status: ('A' for Active; 'I' for Inactive)
REMARK    1  A    between atoms: C_1  and  C_2
REMARK    2  A    between atoms: C_7  and  O_8
REMARK    3  A    between atoms: O_8  and  C_9
REMARK    4  A    between atoms: C_15  and  C_16
REMARK                            x       y       z     vdW  Elec       q    Type
REMARK                         _______ _______ _______ _____ _____    ______ ____
ROOT
ATOM      1  C   UNL     1       0.414   9.722  21.597  0.00  0.00    +0.000 C 
ATOM      2  C   UNL     1       1.045   8.709  20.692  0.00  0.00    +0.000 A 
ATOM      3  C   UNL     1       1.510   9.063  19.425  0.00  0.00    +0.000 A 
ATOM      4  C   UNL     1       2.128   8.110  18.611  0.00  0.00    +0.000 A 
ATOM      5  C   UNL     1       2.301   6.802  19.031  0.00  0.00    +0.000 A 
ATOM      6  N   UNL     1       2.909   5.931  18.213  0.00  0.00    +0.000 NA
ATOM      7  C   UNL     1       3.056   4.647  18.622  0.00  0.00    +0.000 A 
ATOM      8  C   UNL     1       2.663   4.207  19.879  0.00  0.00    +0.000 A 
ATOM      9  C   UNL     1       2.021   5.113  20.724  0.00  0.00    +0.000 A 
ATOM     10  C   UNL     1       1.828   6.435  20.305  0.00  0.00    +0.000 A 
ATOM     11  C   UNL     1       1.195   7.385  21.124  0.00  0.00    +0.000 A 
ENDROOT
BRANCH   8  12
ATOM     12  C   UNL     1       2.910   2.832  20.346  0.00  0.00    +0.000 C 
ATOM     13  O   UNL     1       3.258   2.600  21.497  0.00  0.00    +0.000 OA
ENDBRANCH   8  12
BRANCH   7  14
ATOM     14  O   UNL     1       3.648   3.747  17.744  0.00  0.00    +0.000 OA
BRANCH  14  15
ATOM     15  C   UNL     1       4.831   4.120  17.135  0.00  0.00    +0.000 A 
ATOM     16  C   UNL     1       5.922   4.361  17.973  0.00  0.00    +0.000 A 
ATOM     17  C   UNL     1       7.167   4.691  17.429  0.00  0.00    +0.000 A 
ATOM     18  C   UNL     1       7.326   4.773  16.045  0.00  0.00    +0.000 A 
ATOM     19  C   UNL     1       6.243   4.523  15.205  0.00  0.00    +0.000 A 
ATOM     20  C   UNL     1       5.003   4.181  15.747  0.00  0.00    +0.000 A 
ENDBRANCH  14  15
ENDBRANCH   7  14
TORSDOF 3
ENDMDL
MODEL 9
REMARK VINA RESULT:      -7.2      2.115      6.175
REMARK  Name = 
REMARK  4 active torsions:
REMARK  status: ('A' for Active; 'I' for Inactive)
REMARK    1  A    between atoms: C_1  and  C_2
REMARK    2  A    between atoms: C_7  and  O_8
REMARK    3  A    between atoms: O_8  and  C_9
REMARK    4  A    between atoms: C_15  and  C_16
REMARK                            x       y       z     vdW  Elec       q    Type
REMARK                         _______ _______ _______ _____ _____    ______ ____
ROOT
ATOM      1  C   UNL     1       7.474   5.132  13.756  0.00  0.00    +0.000 C 
ATOM      2  C   UNL     1       6.671   5.133  15.022  0.00  0.00    +0.000 A 
ATOM      3  C   UNL     1       6.901   4.189  16.023  0.00  0.00    +0.000 A 
ATOM      4  C   UNL     1       6.165   4.229  17.210  0.00  0.00    +0.000 A 
ATOM      5  C   UNL     1       5.200   5.198  17.431  0.00  0.00    +0.000 A 
ATOM      6  N   UNL     1       4.530   5.196  18.591  0.00  0.00    +0.000 NA
ATOM      7  C   UNL     1       3.571   6.134  18.792  0.00  0.00    +0.000 A 
ATOM      8  C   UNL     1       3.297   7.138  17.874  0.00  0.00    +0.000 A 
ATOM      9  C   UNL     1       3.989   7.131  16.662  0.00  0.00    +0.000 A 
ATOM     10  C   UNL     1       4.957   6.149  16.422  0.00  0.00    +0.000 A 
ATOM     11  C   UNL     1       5.685   6.107  15.222  0.00  0.00    +0.000 A 
ENDROOT
BRANCH   8  12
ATOM     12  C   UNL     1       2.317   8.205  18.142  0.00  0.00    +0.000 C 
ATOM     13  O   UNL     1       2.135   9.120  17.349  0.00  0.00    +0.000 OA
ENDBRANCH   8  12
BRANCH   7  14
ATOM     14  O   UNL     1       2.856   6.089  19.983  0.00  0.00    +0.000 OA
BRANCH  14  15
ATOM     15  C   UNL     1       2.263   4.892  20.337  0.00  0.00    +0.000 A 
ATOM     16  C   UNL     1       1.412   4.307  19.396  0.00  0.00    +0.000 A 
ATOM     17  C   UNL     1       0.817   3.070  19.661  0.00  0.00    +0.000 A 
ATOM     18  C   UNL     1       1.075   2.411  20.864  0.00  0.00    +0.000 A 
ATOM     19  C   UNL     1       1.931   2.987  21.800  0.00  0.00    +0.000 A 
ATOM     20  C   UNL     1       2.537   4.216  21.532  0.00  0.00    +0.000 A 
ENDBRANCH  14  15
ENDBRANCH   7  14
TORSDOF 3
ENDMDL
