MODEL 1
REMARK VINA RESULT:      -8.6      0.000      0.000
REMARK  Name = 
REMARK  9 active torsions:
REMARK  status: ('A' for Active; 'I' for Inactive)
REMARK    1  A    between atoms: C_1  and  C_2
REMARK    2  A    between atoms: C_2  and  N_3
REMARK    3  A    between atoms: N_3  and  C_4
REMARK    4  A    between atoms: C_4  and  C_5
REMARK    5  A    between atoms: C_7  and  O_8
REMARK    6  A    between atoms: C_17  and  C_19
REMARK    7  A    between atoms: C_22  and  C_23
REMARK    8  A    between atoms: C_24  and  N_25
REMARK    9  A    between atoms: C_26  and  C_28
REMARK                            x       y       z     vdW  Elec       q    Type
REMARK                         _______ _______ _______ _____ _____    ______ ____
ROOT
ATOM      1  N   UNL     1       3.596   4.081  19.530  0.00  0.00    +0.000 N 
ATOM      2  C   UNL     1       2.349   4.709  19.388  0.00  0.00    +0.000 C 
ATOM      3  O   UNL     1       1.287   4.104  19.542  0.00  0.00    +0.000 OA
ENDROOT
BRANCH   2   4
ATOM      4  C   UNL     1       2.252   6.158  19.065  0.00  0.00    +0.000 A 
ATOM      5  C   UNL     1       2.749   6.661  17.861  0.00  0.00    +0.000 A 
ATOM      6  C   UNL     1       2.700   8.026  17.592  0.00  0.00    +0.000 A 
ATOM      7  C   UNL     1       2.062   8.903  18.477  0.00  0.00    +0.000 A 
ATOM      8  C   UNL     1       2.126  10.383  18.212  0.00  0.00    +0.000 C 
ATOM      9  C   UNL     1       1.451   8.385  19.634  0.00  0.00    +0.000 A 
ATOM     10  C   UNL     1       1.570   7.021  19.939  0.00  0.00    +0.000 A 
BRANCH   9  11
ATOM     11  N   UNL     1       0.679   9.254  20.427  0.00  0.00    +0.000 N 
ATOM     12  C   UNL     1       0.980   9.651  21.716  0.00  0.00    +0.000 C 
ATOM     13  O   UNL     1       1.978   9.296  22.336  0.00  0.00    +0.000 OA
ATOM     14  H   UNL     1      -0.016   9.827  19.964  0.00  0.00    +0.000 HD
BRANCH  12  15
ATOM     15  C   UNL     1       0.029  10.621  22.235  0.00  0.00    +0.000 A 
ATOM     16  C   UNL     1      -1.076  10.473  23.051  0.00  0.00    +0.000 A 
ATOM     17  C   UNL     1      -1.635  11.763  23.223  0.00  0.00    +0.000 A 
ATOM     18  C   UNL     1      -0.838  12.624  22.507  0.00  0.00    +0.000 A 
ATOM     19  O   UNL     1       0.183  11.949  21.918  0.00  0.00    +0.000 OA
ENDBRANCH  12  15
ENDBRANCH   9  11
ENDBRANCH   2   4
BRANCH   1  21
ATOM     20  C   UNL     1       3.411   1.754  18.653  0.00  0.00    +0.000 C 
ATOM     21  C   UNL     1       3.589   2.656  19.870  0.00  0.00    +0.000 C 
ENDBRANCH   1  21
BRANCH   1  22
ATOM     22  C   UNL     1       4.900   4.772  19.629  0.00  0.00    +0.000 C 
BRANCH  22  23
ATOM     23  C   UNL     1       5.665   4.990  18.320  0.00  0.00    +0.000 A 
ATOM     24  N   UNL     1       6.544   6.004  18.216  0.00  0.00    +0.000 NA
ATOM     25  C   UNL     1       7.080   6.180  16.997  0.00  0.00    +0.000 A 
ATOM     26  C   UNL     1       6.795   5.432  15.862  0.00  0.00    +0.000 A 
ATOM     27  C   UNL     1       7.343   5.659  14.574  0.00  0.00    +0.000 A 
ATOM     28  C   UNL     1       6.958   4.861  13.502  0.00  0.00    +0.000 A 
ATOM     29  C   UNL     1       6.048   3.833  13.721  0.00  0.00    +0.000 A 
ATOM     30 CL   UNL     1       5.542   2.847  12.405  0.00  0.00    +0.000 Cl
ATOM     31  C   UNL     1       5.531   3.602  14.999  0.00  0.00    +0.000 A 
ATOM     32  C   UNL     1       5.883   4.400  16.082  0.00  0.00    +0.000 A 
ATOM     33  N   UNL     1       5.334   4.177  17.288  0.00  0.00    +0.000 NA
BRANCH  25  34
ATOM     34  O   UNL     1       7.966   7.211  16.943  0.00  0.00    +0.000 OA
ATOM     35  H   UNL     1       8.703   6.790  16.472  0.00  0.00    +0.000 HD
ENDBRANCH  25  34
ENDBRANCH  22  23
ENDBRANCH   1  22
TORSDOF 7
ENDMDL
MODEL 2
REMARK VINA RESULT:      -8.6      3.462      7.767
REMARK  Name = 
REMARK  9 active torsions:
REMARK  status: ('A' for Active; 'I' for Inactive)
REMARK    1  A    between atoms: C_1  and  C_2
REMARK    2  A    between atoms: C_2  and  N_3
REMARK    3  A    between atoms: N_3  and  C_4
REMARK    4  A    between atoms: C_4  and  C_5
REMARK    5  A    between atoms: C_7  and  O_8
REMARK    6  A    between atoms: C_17  and  C_19
REMARK    7  A    between atoms: C_22  and  C_23
REMARK    8  A    between atoms: C_24  and  N_25
REMARK    9  A    between atoms: C_26  and  C_28
REMARK                            x       y       z     vdW  Elec       q    Type
REMARK                         _______ _______ _______ _____ _____    ______ ____
ROOT
ATOM      1  N   UNL     1       2.346   4.548  19.371  0.00  0.00    +0.000 N 
ATOM      2  C   UNL     1       2.664   3.911  18.161  0.00  0.00    +0.000 C 
ATOM      3  O   UNL     1       1.950   3.034  17.674  0.00  0.00    +0.000 OA
ENDROOT
BRANCH   2   4
ATOM      4  C   UNL     1       3.880   4.289  17.393  0.00  0.00    +0.000 A 
ATOM      5  C   UNL     1       4.231   3.610  16.223  0.00  0.00    +0.000 A 
ATOM      6  C   UNL     1       5.399   3.938  15.540  0.00  0.00    +0.000 A 
ATOM      7  C   UNL     1       6.187   5.017  15.955  0.00  0.00    +0.000 A 
ATOM      8  C   UNL     1       7.499   5.273  15.265  0.00  0.00    +0.000 C 
ATOM      9  C   UNL     1       5.773   5.782  17.062  0.00  0.00    +0.000 A 
ATOM     10  C   UNL     1       4.638   5.401  17.793  0.00  0.00    +0.000 A 
BRANCH   9  11
ATOM     11  N   UNL     1       6.489   6.954  17.368  0.00  0.00    +0.000 N 
ATOM     12  C   UNL     1       7.572   7.039  18.222  0.00  0.00    +0.000 C 
ATOM     13  O   UNL     1       8.059   6.086  18.821  0.00  0.00    +0.000 OA
ATOM     14  H   UNL     1       6.376   7.753  16.754  0.00  0.00    +0.000 HD
BRANCH  12  15
ATOM     15  C   UNL     1       8.145   8.375  18.261  0.00  0.00    +0.000 A 
ATOM     16  C   UNL     1       7.987   9.464  17.424  0.00  0.00    +0.000 A 
ATOM     17  C   UNL     1       8.797  10.503  17.944  0.00  0.00    +0.000 A 
ATOM     18  C   UNL     1       9.398   9.993  19.069  0.00  0.00    +0.000 A 
ATOM     19  O   UNL     1       9.000   8.711  19.283  0.00  0.00    +0.000 OA
ENDBRANCH  12  15
ENDBRANCH   9  11
ENDBRANCH   2   4
BRANCH   1  21
ATOM     20  C   UNL     1       1.359   3.063  21.115  0.00  0.00    +0.000 C 
ATOM     21  C   UNL     1       1.117   4.123  20.045  0.00  0.00    +0.000 C 
ENDBRANCH   1  21
BRANCH   1  22
ATOM     22  C   UNL     1       2.986   5.777  19.890  0.00  0.00    +0.000 C 
BRANCH  22  23
ATOM     23  C   UNL     1       2.207   7.084  19.718  0.00  0.00    +0.000 A 
ATOM     24  N   UNL     1       2.339   7.801  18.586  0.00  0.00    +0.000 NA
ATOM     25  C   UNL     1       1.703   8.985  18.576  0.00  0.00    +0.000 A 
ATOM     26  C   UNL     1       0.955   9.521  19.616  0.00  0.00    +0.000 A 
ATOM     27  C   UNL     1       0.324  10.790  19.600  0.00  0.00    +0.000 A 
ATOM     28  C   UNL     1      -0.375  11.236  20.716  0.00  0.00    +0.000 A 
ATOM     29  C   UNL     1      -0.457  10.411  21.832  0.00  0.00    +0.000 A 
ATOM     30 CL   UNL     1      -1.299  10.951  23.232  0.00  0.00    +0.000 Cl
ATOM     31  C   UNL     1       0.149   9.151  21.830  0.00  0.00    +0.000 A 
ATOM     32  C   UNL     1       0.872   8.693  20.735  0.00  0.00    +0.000 A 
ATOM     33  N   UNL     1       1.478   7.494  20.784  0.00  0.00    +0.000 NA
BRANCH  25  34
ATOM     34  O   UNL     1       1.860   9.668  17.410  0.00  0.00    +0.000 OA
ATOM     35  H   UNL     1       1.907  10.579  17.741  0.00  0.00    +0.000 HD
ENDBRANCH  25  34
ENDBRANCH  22  23
ENDBRANCH   1  22
TORSDOF 7
ENDMDL
MODEL 3
REMARK VINA RESULT:      -7.5      3.620      9.334
REMARK  Name = 
REMARK  9 active torsions:
REMARK  status: ('A' for Active; 'I' for Inactive)
REMARK    1  A    between atoms: C_1  and  C_2
REMARK    2  A    between atoms: C_2  and  N_3
REMARK    3  A    between atoms: N_3  and  C_4
REMARK    4  A    between atoms: C_4  and  C_5
REMARK    5  A    between atoms: C_7  and  O_8
REMARK    6  A    between atoms: C_17  and  C_19
REMARK    7  A    between atoms: C_22  and  C_23
REMARK    8  A    between atoms: C_24  and  N_25
REMARK    9  A    between atoms: C_26  and  C_28
REMARK                            x       y       z     vdW  Elec       q    Type
REMARK                         _______ _______ _______ _____ _____    ______ ____
ROOT
ATOM      1  N   UNL     1       2.354   4.326  19.846  0.00  0.00    +0.000 N 
ATOM      2  C   UNL     1       2.778   3.654  18.689  0.00  0.00    +0.000 C 
ATOM      3  O   UNL     1       2.115   2.753  18.174  0.00  0.00    +0.000 OA
ENDROOT
BRANCH   2   4
ATOM      4  C   UNL     1       4.050   4.021  18.011  0.00  0.00    +0.000 A 
ATOM      5  C   UNL     1       5.027   4.769  18.672  0.00  0.00    +0.000 A 
ATOM      6  C   UNL     1       6.191   5.151  18.010  0.00  0.00    +0.000 A 
ATOM      7  C   UNL     1       6.447   4.707  16.708  0.00  0.00    +0.000 A 
ATOM      8  C   UNL     1       7.657   5.229  15.983  0.00  0.00    +0.000 C 
ATOM      9  C   UNL     1       5.522   3.852  16.081  0.00  0.00    +0.000 A 
ATOM     10  C   UNL     1       4.315   3.533  16.721  0.00  0.00    +0.000 A 
BRANCH   9  11
ATOM     11  N   UNL     1       5.869   3.290  14.838  0.00  0.00    +0.000 N 
ATOM     12  C   UNL     1       5.671   3.877  13.603  0.00  0.00    +0.000 C 
ATOM     13  O   UNL     1       5.168   4.983  13.434  0.00  0.00    +0.000 OA
ATOM     14  H   UNL     1       6.524   2.516  14.834  0.00  0.00    +0.000 HD
BRANCH  12  15
ATOM     15  C   UNL     1       6.215   3.080  12.516  0.00  0.00    +0.000 A 
ATOM     16  C   UNL     1       7.405   3.175  11.817  0.00  0.00    +0.000 A 
ATOM     17  C   UNL     1       7.400   2.136  10.855  0.00  0.00    +0.000 A 
ATOM     18  C   UNL     1       6.214   1.463  11.024  0.00  0.00    +0.000 A 
ATOM     19  O   UNL     1       5.494   2.013  12.036  0.00  0.00    +0.000 OA
ENDBRANCH  12  15
ENDBRANCH   9  11
ENDBRANCH   2   4
BRANCH   1  21
ATOM     20  C   UNL     1       1.231   2.808  21.474  0.00  0.00    +0.000 C 
ATOM     21  C   UNL     1       1.077   3.909  20.430  0.00  0.00    +0.000 C 
ENDBRANCH   1  21
BRANCH   1  22
ATOM     22  C   UNL     1       2.937   5.580  20.374  0.00  0.00    +0.000 C 
BRANCH  22  23
ATOM     23  C   UNL     1       2.211   6.881  20.017  0.00  0.00    +0.000 A 
ATOM     24  N   UNL     1       2.405   7.449  18.812  0.00  0.00    +0.000 NA
ATOM     25  C   UNL     1       1.814   8.642  18.636  0.00  0.00    +0.000 A 
ATOM     26  C   UNL     1       1.053   9.325  19.577  0.00  0.00    +0.000 A 
ATOM     27  C   UNL     1       0.469  10.603  19.384  0.00  0.00    +0.000 A 
ATOM     28  C   UNL     1      -0.248  11.205  20.412  0.00  0.00    +0.000 A 
ATOM     29  C   UNL     1      -0.394  10.525  21.616  0.00  0.00    +0.000 A 
ATOM     30 CL   UNL     1      -1.260  11.260  22.910  0.00  0.00    +0.000 Cl
ATOM     31  C   UNL     1       0.165   9.256  21.789  0.00  0.00    +0.000 A 
ATOM     32  C   UNL     1       0.905   8.644  20.783  0.00  0.00    +0.000 A 
ATOM     33  N   UNL     1       1.465   7.441  20.999  0.00  0.00    +0.000 NA
BRANCH  25  34
ATOM     34  O   UNL     1       2.032   9.173  17.402  0.00  0.00    +0.000 OA
ATOM     35  H   UNL     1       2.878   8.757  17.175  0.00  0.00    +0.000 HD
ENDBRANCH  25  34
ENDBRANCH  22  23
ENDBRANCH   1  22
TORSDOF 7
ENDMDL
MODEL 4
REMARK VINA RESULT:      -7.5      3.824      9.380
REMARK  Name = 
REMARK  9 active torsions:
REMARK  status: ('A' for Active; 'I' for Inactive)
REMARK    1  A    between atoms: C_1  and  C_2
REMARK    2  A    between atoms: C_2  and  N_3
REMARK    3  A    between atoms: N_3  and  C_4
REMARK    4  A    between atoms: C_4  and  C_5
REMARK    5  A    between atoms: C_7  and  O_8
REMARK    6  A    between atoms: C_17  and  C_19
REMARK    7  A    between atoms: C_22  and  C_23
REMARK    8  A    between atoms: C_24  and  N_25
REMARK    9  A    between atoms: C_26  and  C_28
REMARK                            x       y       z     vdW  Elec       q    Type
REMARK                         _______ _______ _______ _____ _____    ______ ____
ROOT
ATOM      1  N   UNL     1      -0.605  11.383  22.057  0.00  0.00    +0.000 N 
ATOM      2  C   UNL     1      -0.173  10.048  22.090  0.00  0.00    +0.000 C 
ATOM      3  O   UNL     1      -0.437   9.295  23.029  0.00  0.00    +0.000 OA
ENDROOT
BRANCH   2   4
ATOM      4  C   UNL     1       0.613   9.467  20.969  0.00  0.00    +0.000 A 
ATOM      5  C   UNL     1       0.926  10.229  19.841  0.00  0.00    +0.000 A 
ATOM      6  C   UNL     1       1.618   9.660  18.775  0.00  0.00    +0.000 A 
ATOM      7  C   UNL     1       2.098   8.348  18.857  0.00  0.00    +0.000 A 
ATOM      8  C   UNL     1       2.741   7.728  17.647  0.00  0.00    +0.000 C 
ATOM      9  C   UNL     1       1.892   7.616  20.041  0.00  0.00    +0.000 A 
ATOM     10  C   UNL     1       1.129   8.166  21.082  0.00  0.00    +0.000 A 
BRANCH   9  11
ATOM     11  N   UNL     1       2.517   6.362  20.168  0.00  0.00    +0.000 N 
ATOM     12  C   UNL     1       1.872   5.153  20.351  0.00  0.00    +0.000 C 
ATOM     13  O   UNL     1       0.654   5.021  20.418  0.00  0.00    +0.000 OA
ATOM     14  H   UNL     1       3.482   6.280  19.869  0.00  0.00    +0.000 HD
BRANCH  12  15
ATOM     15  C   UNL     1       2.793   4.028  20.359  0.00  0.00    +0.000 A 
ATOM     16  C   UNL     1       2.825   2.877  21.125  0.00  0.00    +0.000 A 
ATOM     17  C   UNL     1       3.958   2.138  20.706  0.00  0.00    +0.000 A 
ATOM     18  C   UNL     1       4.550   2.874  19.708  0.00  0.00    +0.000 A 
ATOM     19  O   UNL     1       3.846   4.013  19.476  0.00  0.00    +0.000 OA
ENDBRANCH  12  15
ENDBRANCH   9  11
ENDBRANCH   2   4
BRANCH   1  21
ATOM     20  C   UNL     1      -1.324  13.371  23.379  0.00  0.00    +0.000 C 
ATOM     21  C   UNL     1      -1.391  11.858  23.197  0.00  0.00    +0.000 C 
ENDBRANCH   1  21
BRANCH   1  22
ATOM     22  C   UNL     1      -0.568  12.268  20.872  0.00  0.00    +0.000 C 
BRANCH  22  23
ATOM     23  C   UNL     1      -1.758  12.183  19.911  0.00  0.00    +0.000 A 
ATOM     24  N   UNL     1      -2.996  12.481  20.348  0.00  0.00    +0.000 NA
ATOM     25  C   UNL     1      -3.986  12.268  19.464  0.00  0.00    +0.000 A 
ATOM     26  C   UNL     1      -3.840  11.764  18.178  0.00  0.00    +0.000 A 
ATOM     27  C   UNL     1      -4.903  11.510  17.274  0.00  0.00    +0.000 A 
ATOM     28  C   UNL     1      -4.637  10.973  16.019  0.00  0.00    +0.000 A 
ATOM     29  C   UNL     1      -3.319  10.710  15.665  0.00  0.00    +0.000 A 
ATOM     30 CL   UNL     1      -2.969  10.025  14.126  0.00  0.00    +0.000 Cl
ATOM     31  C   UNL     1      -2.276  10.985  16.554  0.00  0.00    +0.000 A 
ATOM     32  C   UNL     1      -2.518  11.501  17.823  0.00  0.00    +0.000 A 
ATOM     33  N   UNL     1      -1.495  11.713  18.668  0.00  0.00    +0.000 NA
BRANCH  25  34
ATOM     34  O   UNL     1      -5.216  12.590  19.948  0.00  0.00    +0.000 OA
ATOM     35  H   UNL     1      -5.104  12.370  20.886  0.00  0.00    +0.000 HD
ENDBRANCH  25  34
ENDBRANCH  22  23
ENDBRANCH   1  22
TORSDOF 7
ENDMDL
MODEL 5
REMARK VINA RESULT:      -7.5      4.996      6.874
REMARK  Name = 
REMARK  9 active torsions:
REMARK  status: ('A' for Active; 'I' for Inactive)
REMARK    1  A    between atoms: C_1  and  C_2
REMARK    2  A    between atoms: C_2  and  N_3
REMARK    3  A    between atoms: N_3  and  C_4
REMARK    4  A    between atoms: C_4  and  C_5
REMARK    5  A    between atoms: C_7  and  O_8
REMARK    6  A    between atoms: C_17  and  C_19
REMARK    7  A    between atoms: C_22  and  C_23
REMARK    8  A    between atoms: C_24  and  N_25
REMARK    9  A    between atoms: C_26  and  C_28
REMARK                            x       y       z     vdW  Elec       q    Type
REMARK                         _______ _______ _______ _____ _____    ______ ____
ROOT
ATOM      1  N   UNL     1       0.723   9.931  19.956  0.00  0.00    +0.000 N 
ATOM      2  C   UNL     1      -0.562  10.494  19.966  0.00  0.00    +0.000 C 
ATOM      3  O   UNL     1      -1.049  11.001  20.978  0.00  0.00    +0.000 OA
ENDROOT
BRANCH   2   4
ATOM      4  C   UNL     1      -1.396  10.525  18.735  0.00  0.00    +0.000 A 
ATOM      5  C   UNL     1      -1.220   9.578  17.723  0.00  0.00    +0.000 A 
ATOM      6  C   UNL     1      -1.971   9.648  16.553  0.00  0.00    +0.000 A 
ATOM      7  C   UNL     1      -2.982  10.606  16.412  0.00  0.00    +0.000 A 
ATOM      8  C   UNL     1      -3.695  10.727  15.093  0.00  0.00    +0.000 C 
ATOM      9  C   UNL     1      -3.246  11.485  17.478  0.00  0.00    +0.000 A 
ATOM     10  C   UNL     1      -2.437  11.462  18.624  0.00  0.00    +0.000 A 
BRANCH   9  11
ATOM     11  N   UNL     1      -4.366  12.332  17.383  0.00  0.00    +0.000 N 
ATOM     12  C   UNL     1      -5.654  12.013  17.769  0.00  0.00    +0.000 C 
ATOM     13  O   UNL     1      -5.985  10.938  18.260  0.00  0.00    +0.000 OA
ATOM     14  H   UNL     1      -4.202  13.323  17.251  0.00  0.00    +0.000 HD
BRANCH  12  15
ATOM     15  C   UNL     1      -6.571  13.132  17.622  0.00  0.00    +0.000 A 
ATOM     16  C   UNL     1      -7.044  13.786  16.499  0.00  0.00    +0.000 A 
ATOM     17  C   UNL     1      -7.907  14.812  16.955  0.00  0.00    +0.000 A 
ATOM     18  C   UNL     1      -7.916  14.723  18.326  0.00  0.00    +0.000 A 
ATOM     19  O   UNL     1      -7.125  13.700  18.743  0.00  0.00    +0.000 OA
ENDBRANCH  12  15
ENDBRANCH   9  11
ENDBRANCH   2   4
BRANCH   1  21
ATOM     20  C   UNL     1       0.924   9.011  22.265  0.00  0.00    +0.000 C 
ATOM     21  C   UNL     1       1.477   9.966  21.212  0.00  0.00    +0.000 C 
ENDBRANCH   1  21
BRANCH   1  22
ATOM     22  C   UNL     1       1.484   9.548  18.746  0.00  0.00    +0.000 C 
BRANCH  22  23
ATOM     23  C   UNL     1       2.201   8.195  18.783  0.00  0.00    +0.000 A 
ATOM     24  N   UNL     1       3.144   7.910  17.865  0.00  0.00    +0.000 NA
ATOM     25  C   UNL     1       3.634   6.660  17.912  0.00  0.00    +0.000 A 
ATOM     26  C   UNL     1       3.245   5.661  18.796  0.00  0.00    +0.000 A 
ATOM     27  C   UNL     1       3.748   4.335  18.804  0.00  0.00    +0.000 A 
ATOM     28  C   UNL     1       3.259   3.409  19.719  0.00  0.00    +0.000 A 
ATOM     29  C   UNL     1       2.290   3.812  20.631  0.00  0.00    +0.000 A 
ATOM     30 CL   UNL     1       1.655   2.678  21.759  0.00  0.00    +0.000 Cl
ATOM     31  C   UNL     1       1.817   5.128  20.631  0.00  0.00    +0.000 A 
ATOM     32  C   UNL     1       2.274   6.065  19.711  0.00  0.00    +0.000 A 
ATOM     33  N   UNL     1       1.766   7.310  19.711  0.00  0.00    +0.000 NA
BRANCH  25  34
ATOM     34  O   UNL     1       4.588   6.421  16.971  0.00  0.00    +0.000 OA
ATOM     35  H   UNL     1       4.341   5.526  16.689  0.00  0.00    +0.000 HD
ENDBRANCH  25  34
ENDBRANCH  22  23
ENDBRANCH   1  22
TORSDOF 7
ENDMDL
MODEL 6
REMARK VINA RESULT:      -7.4      6.044      9.621
REMARK  Name = 
REMARK  9 active torsions:
REMARK  status: ('A' for Active; 'I' for Inactive)
REMARK    1  A    between atoms: C_1  and  C_2
REMARK    2  A    between atoms: C_2  and  N_3
REMARK    3  A    between atoms: N_3  and  C_4
REMARK    4  A    between atoms: C_4  and  C_5
REMARK    5  A    between atoms: C_7  and  O_8
REMARK    6  A    between atoms: C_17  and  C_19
REMARK    7  A    between atoms: C_22  and  C_23
REMARK    8  A    between atoms: C_24  and  N_25
REMARK    9  A    between atoms: C_26  and  C_28
REMARK                            x       y       z     vdW  Elec       q    Type
REMARK                         _______ _______ _______ _____ _____    ______ ____
ROOT
ATOM      1  N   UNL     1       0.506  10.294  19.970  0.00  0.00    +0.000 N 
ATOM      2  C   UNL     1       0.538  10.782  21.285  0.00  0.00    +0.000 C 
ATOM      3  O   UNL     1       1.074  10.160  22.204  0.00  0.00    +0.000 OA
ENDROOT
BRANCH   2   4
ATOM      4  C   UNL     1      -0.063  12.098  21.630  0.00  0.00    +0.000 A 
ATOM      5  C   UNL     1       0.670  13.280  21.496  0.00  0.00    +0.000 A 
ATOM      6  C   UNL     1       0.116  14.501  21.870  0.00  0.00    +0.000 A 
ATOM      7  C   UNL     1      -1.216  14.578  22.291  0.00  0.00    +0.000 A 
ATOM      8  C   UNL     1      -1.749  15.891  22.795  0.00  0.00    +0.000 C 
ATOM      9  C   UNL     1      -1.998  13.407  22.311  0.00  0.00    +0.000 A 
ATOM     10  C   UNL     1      -1.414  12.169  22.008  0.00  0.00    +0.000 A 
BRANCH   9  11
ATOM     11  N   UNL     1      -3.373  13.528  22.583  0.00  0.00    +0.000 N 
ATOM     12  C   UNL     1      -4.093  12.747  23.466  0.00  0.00    +0.000 C 
ATOM     13  O   UNL     1      -3.613  11.842  24.142  0.00  0.00    +0.000 OA
ATOM     14  H   UNL     1      -3.838  14.386  22.308  0.00  0.00    +0.000 HD
BRANCH  12  15
ATOM     15  C   UNL     1      -5.477  13.176  23.587  0.00  0.00    +0.000 A 
ATOM     16  C   UNL     1      -6.045  14.436  23.626  0.00  0.00    +0.000 A 
ATOM     17  C   UNL     1      -7.442  14.253  23.763  0.00  0.00    +0.000 A 
ATOM     18  C   UNL     1      -7.649  12.895  23.796  0.00  0.00    +0.000 A 
ATOM     19  O   UNL     1      -6.470  12.230  23.673  0.00  0.00    +0.000 OA
ENDBRANCH  12  15
ENDBRANCH   9  11
ENDBRANCH   2   4
BRANCH   1  21
ATOM     20  C   UNL     1       1.765   8.894  18.335  0.00  0.00    +0.000 C 
ATOM     21  C   UNL     1       1.143   8.998  19.724  0.00  0.00    +0.000 C 
ENDBRANCH   1  21
BRANCH   1  22
ATOM     22  C   UNL     1       0.130  11.077  18.772  0.00  0.00    +0.000 C 
BRANCH  22  23
ATOM     23  C   UNL     1      -1.330  10.985  18.320  0.00  0.00    +0.000 A 
ATOM     24  N   UNL     1      -1.640  10.349  17.175  0.00  0.00    +0.000 NA
ATOM     25  C   UNL     1      -2.931  10.418  16.808  0.00  0.00    +0.000 A 
ATOM     26  C   UNL     1      -3.940  11.089  17.487  0.00  0.00    +0.000 A 
ATOM     27  C   UNL     1      -5.289  11.182  17.062  0.00  0.00    +0.000 A 
ATOM     28  C   UNL     1      -6.207  11.910  17.811  0.00  0.00    +0.000 A 
ATOM     29  C   UNL     1      -5.783  12.522  18.984  0.00  0.00    +0.000 A 
ATOM     30 CL   UNL     1      -6.898  13.445  19.916  0.00  0.00    +0.000 Cl
ATOM     31  C   UNL     1      -4.456  12.405  19.408  0.00  0.00    +0.000 A 
ATOM     32  C   UNL     1      -3.515  11.702  18.665  0.00  0.00    +0.000 A 
ATOM     33  N   UNL     1      -2.237  11.646  19.079  0.00  0.00    +0.000 NA
BRANCH  25  34
ATOM     34  O   UNL     1      -3.196   9.755  15.649  0.00  0.00    +0.000 OA
ATOM     35  H   UNL     1      -2.310   9.717  15.257  0.00  0.00    +0.000 HD
ENDBRANCH  25  34
ENDBRANCH  22  23
ENDBRANCH   1  22
TORSDOF 7
ENDMDL
MODEL 7
REMARK VINA RESULT:      -7.4      8.285     10.036
REMARK  Name = 
REMARK  9 active torsions:
REMARK  status: ('A' for Active; 'I' for Inactive)
REMARK    1  A    between atoms: C_1  and  C_2
REMARK    2  A    between atoms: C_2  and  N_3
REMARK    3  A    between atoms: N_3  and  C_4
REMARK    4  A    between atoms: C_4  and  C_5
REMARK    5  A    between atoms: C_7  and  O_8
REMARK    6  A    between atoms: C_17  and  C_19
REMARK    7  A    between atoms: C_22  and  C_23
REMARK    8  A    between atoms: C_24  and  N_25
REMARK    9  A    between atoms: C_26  and  C_28
REMARK                            x       y       z     vdW  Elec       q    Type
REMARK                         _______ _______ _______ _____ _____    ______ ____
ROOT
ATOM      1  N   UNL     1      -3.490  11.375  17.486  0.00  0.00    +0.000 N 
ATOM      2  C   UNL     1      -4.776  11.894  17.705  0.00  0.00    +0.000 C 
ATOM      3  O   UNL     1      -5.519  12.219  16.778  0.00  0.00    +0.000 OA
ENDROOT
BRANCH   2   4
ATOM      4  C   UNL     1      -5.313  12.055  19.082  0.00  0.00    +0.000 A 
ATOM      5  C   UNL     1      -6.461  11.371  19.490  0.00  0.00    +0.000 A 
ATOM      6  C   UNL     1      -6.984  11.569  20.765  0.00  0.00    +0.000 A 
ATOM      7  C   UNL     1      -6.315  12.377  21.692  0.00  0.00    +0.000 A 
ATOM      8  C   UNL     1      -6.965  12.660  23.019  0.00  0.00    +0.000 C 
ATOM      9  C   UNL     1      -5.093  12.971  21.326  0.00  0.00    +0.000 A 
ATOM     10  C   UNL     1      -4.609  12.832  20.017  0.00  0.00    +0.000 A 
BRANCH   9  11
ATOM     11  N   UNL     1      -4.357  13.646  22.317  0.00  0.00    +0.000 N 
ATOM     12  C   UNL     1      -3.480  13.061  23.211  0.00  0.00    +0.000 C 
ATOM     13  O   UNL     1      -3.224  11.862  23.246  0.00  0.00    +0.000 OA
ATOM     14  H   UNL     1      -4.261  14.652  22.235  0.00  0.00    +0.000 HD
BRANCH  12  15
ATOM     15  C   UNL     1      -2.811  14.039  24.054  0.00  0.00    +0.000 A 
ATOM     16  C   UNL     1      -3.288  14.861  25.058  0.00  0.00    +0.000 A 
ATOM     17  C   UNL     1      -2.186  15.617  25.527  0.00  0.00    +0.000 A 
ATOM     18  C   UNL     1      -1.101  15.212  24.788  0.00  0.00    +0.000 A 
ATOM     19  O   UNL     1      -1.461  14.246  23.903  0.00  0.00    +0.000 OA
ENDBRANCH  12  15
ENDBRANCH   9  11
ENDBRANCH   2   4
BRANCH   1  21
ATOM     20  C   UNL     1      -2.925   9.779  15.655  0.00  0.00    +0.000 C 
ATOM     21  C   UNL     1      -3.057  11.234  16.093  0.00  0.00    +0.000 C 
ENDBRANCH   1  21
BRANCH   1  22
ATOM     22  C   UNL     1      -2.643  10.718  18.506  0.00  0.00    +0.000 C 
BRANCH  22  23
ATOM     23  C   UNL     1      -1.635  11.606  19.240  0.00  0.00    +0.000 A 
ATOM     24  N   UNL     1      -1.315  11.342  20.521  0.00  0.00    +0.000 NA
ATOM     25  C   UNL     1      -0.510  12.241  21.111  0.00  0.00    +0.000 A 
ATOM     26  C   UNL     1      -0.009  13.398  20.528  0.00  0.00    +0.000 A 
ATOM     27  C   UNL     1       0.808  14.355  21.181  0.00  0.00    +0.000 A 
ATOM     28  C   UNL     1       1.225  15.496  20.503  0.00  0.00    +0.000 A 
ATOM     29  C   UNL     1       0.843  15.667  19.178  0.00  0.00    +0.000 A 
ATOM     30 CL   UNL     1       1.330  17.081  18.326  0.00  0.00    +0.000 Cl
ATOM     31  C   UNL     1       0.057  14.707  18.535  0.00  0.00    +0.000 A 
ATOM     32  C   UNL     1      -0.391  13.570  19.198  0.00  0.00    +0.000 A 
ATOM     33  N   UNL     1      -1.182  12.688  18.562  0.00  0.00    +0.000 NA
BRANCH  25  34
ATOM     34  O   UNL     1      -0.208  11.927  22.400  0.00  0.00    +0.000 OA
ATOM     35  H   UNL     1       0.758  12.011  22.384  0.00  0.00    +0.000 HD
ENDBRANCH  25  34
ENDBRANCH  22  23
ENDBRANCH   1  22
TORSDOF 7
ENDMDL
MODEL 8
REMARK VINA RESULT:      -7.3      3.419      7.374
REMARK  Name = 
REMARK  9 active torsions:
REMARK  status: ('A' for Active; 'I' for Inactive)
REMARK    1  A    between atoms: C_1  and  C_2
REMARK    2  A    between atoms: C_2  and  N_3
REMARK    3  A    between atoms: N_3  and  C_4
REMARK    4  A    between atoms: C_4  and  C_5
REMARK    5  A    between atoms: C_7  and  O_8
REMARK    6  A    between atoms: C_17  and  C_19
REMARK    7  A    between atoms: C_22  and  C_23
REMARK    8  A    between atoms: C_24  and  N_25
REMARK    9  A    between atoms: C_26  and  C_28
REMARK                            x       y       z     vdW  Elec       q    Type
REMARK                         _______ _______ _______ _____ _____    ______ ____
ROOT
ATOM      1  N   UNL     1       3.048   3.196  20.007  0.00  0.00    +0.000 N 
ATOM      2  C   UNL     1       4.400   3.064  19.652  0.00  0.00    +0.000 C 
ATOM      3  O   UNL     1       5.174   2.337  20.276  0.00  0.00    +0.000 OA
ENDROOT
BRANCH   2   4
ATOM      4  C   UNL     1       4.959   3.787  18.478  0.00  0.00    +0.000 A 
ATOM      5  C   UNL     1       4.723   3.336  17.178  0.00  0.00    +0.000 A 
ATOM      6  C   UNL     1       5.294   3.991  16.089  0.00  0.00    +0.000 A 
ATOM      7  C   UNL     1       6.029   5.167  16.273  0.00  0.00    +0.000 A 
ATOM      8  C   UNL     1       6.726   5.785  15.091  0.00  0.00    +0.000 C 
ATOM      9  C   UNL     1       6.167   5.695  17.570  0.00  0.00    +0.000 A 
ATOM     10  C   UNL     1       5.656   4.991  18.671  0.00  0.00    +0.000 A 
BRANCH   9  11
ATOM     11  N   UNL     1       6.770   6.957  17.717  0.00  0.00    +0.000 N 
ATOM     12  C   UNL     1       7.883   7.236  18.487  0.00  0.00    +0.000 C 
ATOM     13  O   UNL     1       8.499   6.401  19.142  0.00  0.00    +0.000 OA
ATOM     14  H   UNL     1       6.541   7.675  17.039  0.00  0.00    +0.000 HD
BRANCH  12  15
ATOM     15  C   UNL     1       8.313   8.619  18.363  0.00  0.00    +0.000 A 
ATOM     16  C   UNL     1       8.022   9.587  17.419  0.00  0.00    +0.000 A 
ATOM     17  C   UNL     1       8.730  10.754  17.796  0.00  0.00    +0.000 A 
ATOM     18  C   UNL     1       9.407  10.436  18.949  0.00  0.00    +0.000 A 
ATOM     19  O   UNL     1       9.151   9.152  19.313  0.00  0.00    +0.000 OA
ENDBRANCH  12  15
ENDBRANCH   9  11
ENDBRANCH   2   4
BRANCH   1  21
ATOM     20  C   UNL     1       1.161   2.780  21.582  0.00  0.00    +0.000 C 
ATOM     21  C   UNL     1       2.585   2.428  21.165  0.00  0.00    +0.000 C 
ENDBRANCH   1  21
BRANCH   1  22
ATOM     22  C   UNL     1       1.998   3.823  19.173  0.00  0.00    +0.000 C 
BRANCH  22  23
ATOM     23  C   UNL     1       1.866   5.346  19.262  0.00  0.00    +0.000 A 
ATOM     24  N   UNL     1       2.424   6.125  18.317  0.00  0.00    +0.000 NA
ATOM     25  C   UNL     1       2.350   7.448  18.542  0.00  0.00    +0.000 A 
ATOM     26  C   UNL     1       1.775   8.058  19.649  0.00  0.00    +0.000 A 
ATOM     27  C   UNL     1       1.741   9.456  19.887  0.00  0.00    +0.000 A 
ATOM     28  C   UNL     1       1.163   9.952  21.051  0.00  0.00    +0.000 A 
ATOM     29  C   UNL     1       0.607   9.058  21.959  0.00  0.00    +0.000 A 
ATOM     30 CL   UNL     1      -0.095   9.648  23.415  0.00  0.00    +0.000 Cl
ATOM     31  C   UNL     1       0.624   7.683  21.705  0.00  0.00    +0.000 A 
ATOM     32  C   UNL     1       1.216   7.162  20.559  0.00  0.00    +0.000 A 
ATOM     33  N   UNL     1       1.252   5.832  20.368  0.00  0.00    +0.000 NA
BRANCH  25  34
ATOM     34  O   UNL     1       2.920   8.193  17.557  0.00  0.00    +0.000 OA
ATOM     35  H   UNL     1       2.140   8.416  17.026  0.00  0.00    +0.000 HD
ENDBRANCH  25  34
ENDBRANCH  22  23
ENDBRANCH   1  22
TORSDOF 7
ENDMDL
MODEL 9
REMARK VINA RESULT:      -7.1      4.852     11.479
REMARK  Name = 
REMARK  9 active torsions:
REMARK  status: ('A' for Active; 'I' for Inactive)
REMARK    1  A    between atoms: C_1  and  C_2
REMARK    2  A    between atoms: C_2  and  N_3
REMARK    3  A    between atoms: N_3  and  C_4
REMARK    4  A    between atoms: C_4  and  C_5
REMARK    5  A    between atoms: C_7  and  O_8
REMARK    6  A    between atoms: C_17  and  C_19
REMARK    7  A    between atoms: C_22  and  C_23
REMARK    8  A    between atoms: C_24  and  N_25
REMARK    9  A    between atoms: C_26  and  C_28
REMARK                            x       y       z     vdW  Elec       q    Type
REMARK                         _______ _______ _______ _____ _____    ______ ____
ROOT
ATOM      1  N   UNL     1      -0.530  13.996  22.142  0.00  0.00    +0.000 N 
ATOM      2  C   UNL     1      -0.039  13.974  20.827  0.00  0.00    +0.000 C 
ATOM      3  O   UNL     1       0.727  14.838  20.397  0.00  0.00    +0.000 OA
ENDROOT
BRANCH   2   4
ATOM      4  C   UNL     1      -0.408  12.880  19.889  0.00  0.00    +0.000 A 
ATOM      5  C   UNL     1      -1.371  13.077  18.897  0.00  0.00    +0.000 A 
ATOM      6  C   UNL     1      -1.745  12.031  18.058  0.00  0.00    +0.000 A 
ATOM      7  C   UNL     1      -1.092  10.795  18.128  0.00  0.00    +0.000 A 
ATOM      8  C   UNL     1      -1.596   9.654  17.287  0.00  0.00    +0.000 C 
ATOM      9  C   UNL     1      -0.036  10.628  19.042  0.00  0.00    +0.000 A 
ATOM     10  C   UNL     1       0.286  11.659  19.938  0.00  0.00    +0.000 A 
BRANCH   9  11
ATOM     11  N   UNL     1       0.712   9.438  18.988  0.00  0.00    +0.000 N 
ATOM     12  C   UNL     1       1.854   9.236  18.237  0.00  0.00    +0.000 C 
ATOM     13  O   UNL     1       2.372  10.086  17.520  0.00  0.00    +0.000 OA
ATOM     14  H   UNL     1       0.564   8.751  19.718  0.00  0.00    +0.000 HD
BRANCH  12  15
ATOM     15  C   UNL     1       2.442   7.925  18.462  0.00  0.00    +0.000 A 
ATOM     16  C   UNL     1       3.281   7.151  17.681  0.00  0.00    +0.000 A 
ATOM     17  C   UNL     1       3.526   5.957  18.401  0.00  0.00    +0.000 A 
ATOM     18  C   UNL     1       2.830   6.070  19.580  0.00  0.00    +0.000 A 
ATOM     19  O   UNL     1       2.182   7.263  19.638  0.00  0.00    +0.000 OA
ENDBRANCH  12  15
ENDBRANCH   9  11
ENDBRANCH   2   4
BRANCH   1  21
ATOM     20  C   UNL     1      -1.114  16.232  23.077  0.00  0.00    +0.000 C 
ATOM     21  C   UNL     1      -0.093  15.102  22.997  0.00  0.00    +0.000 C 
ENDBRANCH   1  21
BRANCH   1  22
ATOM     22  C   UNL     1      -1.225  12.879  22.819  0.00  0.00    +0.000 C 
BRANCH  22  23
ATOM     23  C   UNL     1      -2.756  12.931  22.838  0.00  0.00    +0.000 A 
ATOM     24  N   UNL     1      -3.417  12.820  24.005  0.00  0.00    +0.000 NA
ATOM     25  C   UNL     1      -4.756  12.766  23.906  0.00  0.00    +0.000 A 
ATOM     26  C   UNL     1      -5.491  12.796  22.727  0.00  0.00    +0.000 A 
ATOM     27  C   UNL     1      -6.903  12.698  22.642  0.00  0.00    +0.000 A 
ATOM     28  C   UNL     1      -7.529  12.709  21.400  0.00  0.00    +0.000 A 
ATOM     29  C   UNL     1      -6.750  12.836  20.256  0.00  0.00    +0.000 A 
ATOM     30 CL   UNL     1      -7.502  12.831  18.708  0.00  0.00    +0.000 Cl
ATOM     31  C   UNL     1      -5.361  12.956  20.351  0.00  0.00    +0.000 A 
ATOM     32  C   UNL     1      -4.710  12.925  21.580  0.00  0.00    +0.000 A 
ATOM     33  N   UNL     1      -3.369  12.999  21.632  0.00  0.00    +0.000 NA
BRANCH  25  34
ATOM     34  O   UNL     1      -5.380  12.661  25.110  0.00  0.00    +0.000 OA
ATOM     35  H   UNL     1      -4.636  12.824  25.712  0.00  0.00    +0.000 HD
ENDBRANCH  25  34
ENDBRANCH  22  23
ENDBRANCH   1  22
TORSDOF 7
ENDMDL
