MODEL 1
REMARK VINA RESULT:      -7.7      0.000      0.000
REMARK  Name = 
REMARK  12 active torsions:
REMARK  status: ('A' for Active; 'I' for Inactive)
REMARK    1  A    between atoms: C_1  and  C_2
REMARK    2  A    between atoms: C_2  and  C_3
REMARK    3  A    between atoms: C_3  and  N_4
REMARK    4  A    between atoms: N_4  and  C_5
REMARK    5  A    between atoms: C_5  and  N_7
REMARK    6  A    between atoms: N_7  and  C_8
REMARK    7  A    between atoms: C_16  and  N_17
REMARK    8  A    between atoms: N_17  and  C_18
REMARK    9  A    between atoms: C_18  and  N_20
REMARK   10  A    between atoms: N_20  and  C_21
REMARK   11  A    between atoms: C_21  and  C_22
REMARK   12  A    between atoms: C_22  and  C_23
REMARK                            x       y       z     vdW  Elec       q    Type
REMARK                         _______ _______ _______ _____ _____    ______ ____
ROOT
ATOM      1  C   UNL     1       4.613   4.254  17.560  0.00  0.00    +0.000 A 
ATOM      2  C   UNL     1       4.477   3.709  18.855  0.00  0.00    +0.000 A 
ATOM      3  C   UNL     1       3.736   4.363  19.829  0.00  0.00    +0.000 A 
ATOM      4  C   UNL     1       3.126   5.581  19.540  0.00  0.00    +0.000 A 
ATOM      5  C   UNL     1       2.364   6.235  20.510  0.00  0.00    +0.000 A 
ATOM      6  C   UNL     1       1.779   7.464  20.214  0.00  0.00    +0.000 A 
ATOM      7  C   UNL     1       1.027   8.149  21.172  0.00  0.00    +0.000 A 
ATOM      8  C   UNL     1       0.490   9.401  20.873  0.00  0.00    +0.000 A 
ATOM      9  C   UNL     1       0.700   9.996  19.616  0.00  0.00    +0.000 A 
ATOM     10  C   UNL     1       1.414   9.266  18.636  0.00  0.00    +0.000 A 
ATOM     11  C   UNL     1       1.961   8.021  18.933  0.00  0.00    +0.000 A 
ATOM     12  N   UNL     1       2.691   7.358  17.993  0.00  0.00    +0.000 NA
ATOM     13  C   UNL     1       3.276   6.159  18.265  0.00  0.00    +0.000 A 
ATOM     14  C   UNL     1       4.029   5.500  17.282  0.00  0.00    +0.000 A 
ENDROOT
BRANCH   1  15
ATOM     15  N   UNL     1       5.329   3.570  16.525  0.00  0.00    +0.000 N 
ATOM     16  H   UNL     1       5.233   2.543  16.482  0.00  0.00    +0.000 HD
BRANCH  15  17
ATOM     17  C   UNL     1       6.372   4.135  15.709  0.00  0.00    +0.000 C 
ATOM     18  S   UNL     1       6.322   4.058  14.262  0.00  0.00    +0.000 S 
BRANCH  17  19
ATOM     19  N   UNL     1       7.343   4.971  16.341  0.00  0.00    +0.000 N 
ATOM     20  H   UNL     1       8.104   4.529  16.878  0.00  0.00    +0.000 HD
BRANCH  19  21
ATOM     21  C   UNL     1       7.228   6.417  16.391  0.00  0.00    +0.000 C 
BRANCH  21  23
ATOM     22  C   UNL     1       8.030   8.313  17.874  0.00  0.00    +0.000 C 
ATOM     23  C   UNL     1       7.514   6.885  17.829  0.00  0.00    +0.000 C 
ENDBRANCH  21  23
ENDBRANCH  19  21
ENDBRANCH  17  19
ENDBRANCH  15  17
ENDBRANCH   1  15
BRANCH   9  24
ATOM     24  N   UNL     1       0.173  11.311  19.393  0.00  0.00    +0.000 N 
ATOM     25  H   UNL     1       0.742  12.101  19.737  0.00  0.00    +0.000 HD
BRANCH  24  26
ATOM     26  C   UNL     1      -1.032  11.666  18.697  0.00  0.00    +0.000 C 
ATOM     27  S   UNL     1      -2.146  12.302  19.370  0.00  0.00    +0.000 S 
BRANCH  26  28
ATOM     28  N   UNL     1      -1.193  11.221  17.345  0.00  0.00    +0.000 N 
ATOM     29  H   UNL     1      -0.633  11.669  16.604  0.00  0.00    +0.000 HD
BRANCH  28  30
ATOM     30  C   UNL     1      -2.186  10.239  16.944  0.00  0.00    +0.000 C 
BRANCH  30  31
ATOM     31  C   UNL     1      -3.107  10.862  15.883  0.00  0.00    +0.000 C 
ATOM     32  C   UNL     1      -3.040  10.109  14.564  0.00  0.00    +0.000 C 
ENDBRANCH  30  31
ENDBRANCH  28  30
ENDBRANCH  26  28
ENDBRANCH  24  26
ENDBRANCH   9  24
TORSDOF 10
ENDMDL
MODEL 2
REMARK VINA RESULT:      -7.6      1.049      8.509
REMARK  Name = 
REMARK  12 active torsions:
REMARK  status: ('A' for Active; 'I' for Inactive)
REMARK    1  A    between atoms: C_1  and  C_2
REMARK    2  A    between atoms: C_2  and  C_3
REMARK    3  A    between atoms: C_3  and  N_4
REMARK    4  A    between atoms: N_4  and  C_5
REMARK    5  A    between atoms: C_5  and  N_7
REMARK    6  A    between atoms: N_7  and  C_8
REMARK    7  A    between atoms: C_16  and  N_17
REMARK    8  A    between atoms: N_17  and  C_18
REMARK    9  A    between atoms: C_18  and  N_20
REMARK   10  A    between atoms: N_20  and  C_21
REMARK   11  A    between atoms: C_21  and  C_22
REMARK   12  A    between atoms: C_22  and  C_23
REMARK                            x       y       z     vdW  Elec       q    Type
REMARK                         _______ _______ _______ _____ _____    ______ ____
ROOT
ATOM      1  C   UNL     1       0.551  10.147  20.210  0.00  0.00    +0.000 A 
ATOM      2  C   UNL     1       0.193   9.358  21.325  0.00  0.00    +0.000 A 
ATOM      3  C   UNL     1       0.659   8.057  21.456  0.00  0.00    +0.000 A 
ATOM      4  C   UNL     1       1.481   7.509  20.474  0.00  0.00    +0.000 A 
ATOM      5  C   UNL     1       1.969   6.208  20.609  0.00  0.00    +0.000 A 
ATOM      6  C   UNL     1       2.770   5.665  19.607  0.00  0.00    +0.000 A 
ATOM      7  C   UNL     1       3.256   4.359  19.709  0.00  0.00    +0.000 A 
ATOM      8  C   UNL     1       4.017   3.816  18.673  0.00  0.00    +0.000 A 
ATOM      9  C   UNL     1       4.300   4.563  17.515  0.00  0.00    +0.000 A 
ATOM     10  C   UNL     1       3.851   5.903  17.452  0.00  0.00    +0.000 A 
ATOM     11  C   UNL     1       3.083   6.446  18.478  0.00  0.00    +0.000 A 
ATOM     12  N   UNL     1       2.614   7.721  18.374  0.00  0.00    +0.000 NA
ATOM     13  C   UNL     1       1.823   8.268  19.338  0.00  0.00    +0.000 A 
ATOM     14  C   UNL     1       1.347   9.580  19.203  0.00  0.00    +0.000 A 
ENDROOT
BRANCH   1  15
ATOM     15  N   UNL     1       0.123  11.508  20.082  0.00  0.00    +0.000 N 
ATOM     16  H   UNL     1      -0.445  11.901  20.849  0.00  0.00    +0.000 HD
BRANCH  15  17
ATOM     17  C   UNL     1       0.180  12.297  18.879  0.00  0.00    +0.000 C 
ATOM     18  S   UNL     1       1.262  13.233  18.642  0.00  0.00    +0.000 S 
BRANCH  17  19
ATOM     19  N   UNL     1      -0.727  11.979  17.822  0.00  0.00    +0.000 N 
ATOM     20  H   UNL     1      -0.549  12.367  16.883  0.00  0.00    +0.000 HD
BRANCH  19  21
ATOM     21  C   UNL     1      -1.969  11.260  18.037  0.00  0.00    +0.000 C 
BRANCH  21  23
ATOM     22  C   UNL     1      -2.731  10.324  15.804  0.00  0.00    +0.000 C 
ATOM     23  C   UNL     1      -1.997  10.037  17.103  0.00  0.00    +0.000 C 
ENDBRANCH  21  23
ENDBRANCH  19  21
ENDBRANCH  17  19
ENDBRANCH  15  17
ENDBRANCH   1  15
BRANCH   9  24
ATOM     24  N   UNL     1       5.035   3.925  16.462  0.00  0.00    +0.000 N 
ATOM     25  H   UNL     1       4.691   3.003  16.151  0.00  0.00    +0.000 HD
BRANCH  24  26
ATOM     26  C   UNL     1       6.168   4.442  15.746  0.00  0.00    +0.000 C 
ATOM     27  S   UNL     1       6.357   4.196  14.332  0.00  0.00    +0.000 S 
BRANCH  26  28
ATOM     28  N   UNL     1       7.217   5.071  16.493  0.00  0.00    +0.000 N 
ATOM     29  H   UNL     1       7.660   5.919  16.110  0.00  0.00    +0.000 HD
BRANCH  28  30
ATOM     30  C   UNL     1       7.762   4.514  17.719  0.00  0.00    +0.000 C 
BRANCH  30  31
ATOM     31  C   UNL     1       7.821   5.617  18.787  0.00  0.00    +0.000 C 
ATOM     32  C   UNL     1       7.833   7.005  18.166  0.00  0.00    +0.000 C 
ENDBRANCH  30  31
ENDBRANCH  28  30
ENDBRANCH  26  28
ENDBRANCH  24  26
ENDBRANCH   9  24
TORSDOF 10
ENDMDL
MODEL 3
REMARK VINA RESULT:      -7.5      1.505      2.405
REMARK  Name = 
REMARK  12 active torsions:
REMARK  status: ('A' for Active; 'I' for Inactive)
REMARK    1  A    between atoms: C_1  and  C_2
REMARK    2  A    between atoms: C_2  and  C_3
REMARK    3  A    between atoms: C_3  and  N_4
REMARK    4  A    between atoms: N_4  and  C_5
REMARK    5  A    between atoms: C_5  and  N_7
REMARK    6  A    between atoms: N_7  and  C_8
REMARK    7  A    between atoms: C_16  and  N_17
REMARK    8  A    between atoms: N_17  and  C_18
REMARK    9  A    between atoms: C_18  and  N_20
REMARK   10  A    between atoms: N_20  and  C_21
REMARK   11  A    between atoms: C_21  and  C_22
REMARK   12  A    between atoms: C_22  and  C_23
REMARK                            x       y       z     vdW  Elec       q    Type
REMARK                         _______ _______ _______ _____ _____    ______ ____
ROOT
ATOM      1  C   UNL     1       4.278   4.282  17.647  0.00  0.00    +0.000 A 
ATOM      2  C   UNL     1       4.038   3.706  18.913  0.00  0.00    +0.000 A 
ATOM      3  C   UNL     1       3.306   4.384  19.878  0.00  0.00    +0.000 A 
ATOM      4  C   UNL     1       2.810   5.657  19.608  0.00  0.00    +0.000 A 
ATOM      5  C   UNL     1       2.057   6.337  20.567  0.00  0.00    +0.000 A 
ATOM      6  C   UNL     1       1.586   7.620  20.292  0.00  0.00    +0.000 A 
ATOM      7  C   UNL     1       0.847   8.330  21.241  0.00  0.00    +0.000 A 
ATOM      8  C   UNL     1       0.426   9.632  20.965  0.00  0.00    +0.000 A 
ATOM      9  C   UNL     1       0.742  10.249  19.742  0.00  0.00    +0.000 A 
ATOM     10  C   UNL     1       1.441   9.498  18.768  0.00  0.00    +0.000 A 
ATOM     11  C   UNL     1       1.872   8.203  19.042  0.00  0.00    +0.000 A 
ATOM     12  N   UNL     1       2.591   7.515  18.111  0.00  0.00    +0.000 NA
ATOM     13  C   UNL     1       3.066   6.264  18.363  0.00  0.00    +0.000 A 
ATOM     14  C   UNL     1       3.809   5.580  17.391  0.00  0.00    +0.000 A 
ENDROOT
BRANCH   1  15
ATOM     15  N   UNL     1       4.985   3.578  16.620  0.00  0.00    +0.000 N 
ATOM     16  H   UNL     1       4.710   2.599  16.440  0.00  0.00    +0.000 HD
BRANCH  15  17
ATOM     17  C   UNL     1       6.211   4.006  15.998  0.00  0.00    +0.000 C 
ATOM     18  S   UNL     1       7.242   4.688  16.755  0.00  0.00    +0.000 S 
BRANCH  17  19
ATOM     19  N   UNL     1       6.491   3.547  14.674  0.00  0.00    +0.000 N 
ATOM     20  H   UNL     1       7.339   2.985  14.513  0.00  0.00    +0.000 HD
BRANCH  19  21
ATOM     21  C   UNL     1       5.719   3.960  13.517  0.00  0.00    +0.000 C 
BRANCH  21  23
ATOM     22  C   UNL     1       5.521   2.317  11.592  0.00  0.00    +0.000 C 
ATOM     23  C   UNL     1       6.380   3.382  12.252  0.00  0.00    +0.000 C 
ENDBRANCH  21  23
ENDBRANCH  19  21
ENDBRANCH  17  19
ENDBRANCH  15  17
ENDBRANCH   1  15
BRANCH   9  24
ATOM     24  N   UNL     1       0.332  11.610  19.546  0.00  0.00    +0.000 N 
ATOM     25  H   UNL     1       1.034  12.338  19.753  0.00  0.00    +0.000 HD
BRANCH  24  26
ATOM     26  C   UNL     1      -0.927  12.082  19.042  0.00  0.00    +0.000 C 
ATOM     27  S   UNL     1      -1.917  12.692  19.904  0.00  0.00    +0.000 S 
BRANCH  26  28
ATOM     28  N   UNL     1      -1.271  11.782  17.683  0.00  0.00    +0.000 N 
ATOM     29  H   UNL     1      -0.601  12.021  16.937  0.00  0.00    +0.000 HD
BRANCH  28  30
ATOM     30  C   UNL     1      -2.565  11.253  17.290  0.00  0.00    +0.000 C 
BRANCH  30  31
ATOM     31  C   UNL     1      -2.351  10.032  16.381  0.00  0.00    +0.000 C 
ATOM     32  C   UNL     1      -3.057  10.193  15.044  0.00  0.00    +0.000 C 
ENDBRANCH  30  31
ENDBRANCH  28  30
ENDBRANCH  26  28
ENDBRANCH  24  26
ENDBRANCH   9  24
TORSDOF 10
ENDMDL
MODEL 4
REMARK VINA RESULT:      -7.5      1.744      2.525
REMARK  Name = 
REMARK  12 active torsions:
REMARK  status: ('A' for Active; 'I' for Inactive)
REMARK    1  A    between atoms: C_1  and  C_2
REMARK    2  A    between atoms: C_2  and  C_3
REMARK    3  A    between atoms: C_3  and  N_4
REMARK    4  A    between atoms: N_4  and  C_5
REMARK    5  A    between atoms: C_5  and  N_7
REMARK    6  A    between atoms: N_7  and  C_8
REMARK    7  A    between atoms: C_16  and  N_17
REMARK    8  A    between atoms: N_17  and  C_18
REMARK    9  A    between atoms: C_18  and  N_20
REMARK   10  A    between atoms: N_20  and  C_21
REMARK   11  A    between atoms: C_21  and  C_22
REMARK   12  A    between atoms: C_22  and  C_23
REMARK                            x       y       z     vdW  Elec       q    Type
REMARK                         _______ _______ _______ _____ _____    ______ ____
ROOT
ATOM      1  C   UNL     1       4.533   4.499  17.712  0.00  0.00    +0.000 A 
ATOM      2  C   UNL     1       4.245   4.101  19.035  0.00  0.00    +0.000 A 
ATOM      3  C   UNL     1       3.472   4.899  19.867  0.00  0.00    +0.000 A 
ATOM      4  C   UNL     1       2.981   6.117  19.404  0.00  0.00    +0.000 A 
ATOM      5  C   UNL     1       2.187   6.916  20.229  0.00  0.00    +0.000 A 
ATOM      6  C   UNL     1       1.723   8.143  19.761  0.00  0.00    +0.000 A 
ATOM      7  C   UNL     1       0.942   8.970  20.573  0.00  0.00    +0.000 A 
ATOM      8  C   UNL     1       0.528  10.217  20.103  0.00  0.00    +0.000 A 
ATOM      9  C   UNL     1       0.889  10.663  18.820  0.00  0.00    +0.000 A 
ATOM     10  C   UNL     1       1.630   9.791  17.987  0.00  0.00    +0.000 A 
ATOM     11  C   UNL     1       2.056   8.551  18.455  0.00  0.00    +0.000 A 
ATOM     12  N   UNL     1       2.814   7.748  17.657  0.00  0.00    +0.000 NA
ATOM     13  C   UNL     1       3.284   6.549  18.098  0.00  0.00    +0.000 A 
ATOM     14  C   UNL     1       4.069   5.744  17.260  0.00  0.00    +0.000 A 
ENDROOT
BRANCH   1  15
ATOM     15  N   UNL     1       5.284   3.666  16.820  0.00  0.00    +0.000 N 
ATOM     16  H   UNL     1       5.194   2.644  16.937  0.00  0.00    +0.000 HD
BRANCH  15  17
ATOM     17  C   UNL     1       6.350   4.105  15.958  0.00  0.00    +0.000 C 
ATOM     18  S   UNL     1       6.214   4.072  14.515  0.00  0.00    +0.000 S 
BRANCH  17  19
ATOM     19  N   UNL     1       7.460   4.783  16.550  0.00  0.00    +0.000 N 
ATOM     20  H   UNL     1       8.077   5.346  15.945  0.00  0.00    +0.000 HD
BRANCH  19  21
ATOM     21  C   UNL     1       7.849   4.599  17.935  0.00  0.00    +0.000 C 
BRANCH  21  23
ATOM     22  C   UNL     1       7.549   7.107  17.695  0.00  0.00    +0.000 C 
ATOM     23  C   UNL     1       7.737   5.951  18.662  0.00  0.00    +0.000 C 
ENDBRANCH  21  23
ENDBRANCH  19  21
ENDBRANCH  17  19
ENDBRANCH  15  17
ENDBRANCH   1  15
BRANCH   9  24
ATOM     24  N   UNL     1       0.481  11.979  18.421  0.00  0.00    +0.000 N 
ATOM     25  H   UNL     1       1.196  12.565  17.961  0.00  0.00    +0.000 HD
BRANCH  24  26
ATOM     26  C   UNL     1      -0.825  12.564  18.537  0.00  0.00    +0.000 C 
ATOM     27  S   UNL     1      -2.011  11.891  18.050  0.00  0.00    +0.000 S 
BRANCH  26  28
ATOM     28  N   UNL     1      -0.927  13.920  18.991  0.00  0.00    +0.000 N 
ATOM     29  H   UNL     1      -1.824  14.248  19.379  0.00  0.00    +0.000 HD
BRANCH  28  30
ATOM     30  C   UNL     1       0.141  14.892  18.835  0.00  0.00    +0.000 C 
BRANCH  30  31
ATOM     31  C   UNL     1      -0.475  16.288  18.655  0.00  0.00    +0.000 C 
ATOM     32  C   UNL     1      -1.435  16.631  19.782  0.00  0.00    +0.000 C 
ENDBRANCH  30  31
ENDBRANCH  28  30
ENDBRANCH  26  28
ENDBRANCH  24  26
ENDBRANCH   9  24
TORSDOF 10
ENDMDL
MODEL 5
REMARK VINA RESULT:      -7.5      1.531      8.757
REMARK  Name = 
REMARK  12 active torsions:
REMARK  status: ('A' for Active; 'I' for Inactive)
REMARK    1  A    between atoms: C_1  and  C_2
REMARK    2  A    between atoms: C_2  and  C_3
REMARK    3  A    between atoms: C_3  and  N_4
REMARK    4  A    between atoms: N_4  and  C_5
REMARK    5  A    between atoms: C_5  and  N_7
REMARK    6  A    between atoms: N_7  and  C_8
REMARK    7  A    between atoms: C_16  and  N_17
REMARK    8  A    between atoms: N_17  and  C_18
REMARK    9  A    between atoms: C_18  and  N_20
REMARK   10  A    between atoms: N_20  and  C_21
REMARK   11  A    between atoms: C_21  and  C_22
REMARK   12  A    between atoms: C_22  and  C_23
REMARK                            x       y       z     vdW  Elec       q    Type
REMARK                         _______ _______ _______ _____ _____    ______ ____
ROOT
ATOM      1  C   UNL     1       0.524  10.501  19.609  0.00  0.00    +0.000 A 
ATOM      2  C   UNL     1       0.308   9.922  20.879  0.00  0.00    +0.000 A 
ATOM      3  C   UNL     1       0.833   8.675  21.191  0.00  0.00    +0.000 A 
ATOM      4  C   UNL     1       1.572   7.972  20.243  0.00  0.00    +0.000 A 
ATOM      5  C   UNL     1       2.118   6.727  20.558  0.00  0.00    +0.000 A 
ATOM      6  C   UNL     1       2.835   6.024  19.591  0.00  0.00    +0.000 A 
ATOM      7  C   UNL     1       3.377   4.768  19.874  0.00  0.00    +0.000 A 
ATOM      8  C   UNL     1       4.049   4.059  18.878  0.00  0.00    +0.000 A 
ATOM      9  C   UNL     1       4.188   4.588  17.583  0.00  0.00    +0.000 A 
ATOM     10  C   UNL     1       3.687   5.886  17.327  0.00  0.00    +0.000 A 
ATOM     11  C   UNL     1       3.005   6.592  18.314  0.00  0.00    +0.000 A 
ATOM     12  N   UNL     1       2.481   7.818  18.032  0.00  0.00    +0.000 NA
ATOM     13  C   UNL     1       1.771   8.517  18.960  0.00  0.00    +0.000 A 
ATOM     14  C   UNL     1       1.237   9.774  18.643  0.00  0.00    +0.000 A 
ENDROOT
BRANCH   1  15
ATOM     15  N   UNL     1       0.037  11.808  19.284  0.00  0.00    +0.000 N 
ATOM     16  H   UNL     1       0.641  12.612  19.518  0.00  0.00    +0.000 HD
BRANCH  15  17
ATOM     17  C   UNL     1      -1.316  12.131  18.910  0.00  0.00    +0.000 C 
ATOM     18  S   UNL     1      -2.225  12.767  19.844  0.00  0.00    +0.000 S 
BRANCH  17  19
ATOM     19  N   UNL     1      -1.677  12.022  17.532  0.00  0.00    +0.000 N 
ATOM     20  H   UNL     1      -1.742  12.881  16.966  0.00  0.00    +0.000 HD
BRANCH  19  21
ATOM     21  C   UNL     1      -2.104  10.775  16.925  0.00  0.00    +0.000 C 
BRANCH  21  23
ATOM     22  C   UNL     1      -2.968  10.112  14.633  0.00  0.00    +0.000 C 
ATOM     23  C   UNL     1      -3.089  11.093  15.786  0.00  0.00    +0.000 C 
ENDBRANCH  21  23
ENDBRANCH  19  21
ENDBRANCH  17  19
ENDBRANCH  15  17
ENDBRANCH   1  15
BRANCH   9  24
ATOM     24  N   UNL     1       4.838   3.781  16.590  0.00  0.00    +0.000 N 
ATOM     25  H   UNL     1       4.308   2.969  16.236  0.00  0.00    +0.000 HD
BRANCH  24  26
ATOM     26  C   UNL     1       6.122   4.002  15.985  0.00  0.00    +0.000 C 
ATOM     27  S   UNL     1       7.193   4.676  16.687  0.00  0.00    +0.000 S 
BRANCH  26  28
ATOM     28  N   UNL     1       6.280   3.697  14.594  0.00  0.00    +0.000 N 
ATOM     29  H   UNL     1       5.904   2.806  14.235  0.00  0.00    +0.000 HD
BRANCH  28  30
ATOM     30  C   UNL     1       7.038   4.531  13.678  0.00  0.00    +0.000 C 
BRANCH  30  31
ATOM     31  C   UNL     1       6.837   4.014  12.245  0.00  0.00    +0.000 C 
ATOM     32  C   UNL     1       5.621   3.106  12.138  0.00  0.00    +0.000 C 
ENDBRANCH  30  31
ENDBRANCH  28  30
ENDBRANCH  26  28
ENDBRANCH  24  26
ENDBRANCH   9  24
TORSDOF 10
ENDMDL
MODEL 6
REMARK VINA RESULT:      -7.4      1.631      8.945
REMARK  Name = 
REMARK  12 active torsions:
REMARK  status: ('A' for Active; 'I' for Inactive)
REMARK    1  A    between atoms: C_1  and  C_2
REMARK    2  A    between atoms: C_2  and  C_3
REMARK    3  A    between atoms: C_3  and  N_4
REMARK    4  A    between atoms: N_4  and  C_5
REMARK    5  A    between atoms: C_5  and  N_7
REMARK    6  A    between atoms: N_7  and  C_8
REMARK    7  A    between atoms: C_16  and  N_17
REMARK    8  A    between atoms: N_17  and  C_18
REMARK    9  A    between atoms: C_18  and  N_20
REMARK   10  A    between atoms: N_20  and  C_21
REMARK   11  A    between atoms: C_21  and  C_22
REMARK   12  A    between atoms: C_22  and  C_23
REMARK                            x       y       z     vdW  Elec       q    Type
REMARK                         _______ _______ _______ _____ _____    ______ ____
ROOT
ATOM      1  C   UNL     1       0.730  10.384  19.602  0.00  0.00    +0.000 A 
ATOM      2  C   UNL     1       0.393   9.736  20.811  0.00  0.00    +0.000 A 
ATOM      3  C   UNL     1       0.870   8.464  21.094  0.00  0.00    +0.000 A 
ATOM      4  C   UNL     1       1.680   7.802  20.173  0.00  0.00    +0.000 A 
ATOM      5  C   UNL     1       2.178   6.530  20.460  0.00  0.00    +0.000 A 
ATOM      6  C   UNL     1       2.967   5.871  19.520  0.00  0.00    +0.000 A 
ATOM      7  C   UNL     1       3.462   4.589  19.774  0.00  0.00    +0.000 A 
ATOM      8  C   UNL     1       4.210   3.926  18.801  0.00  0.00    +0.000 A 
ATOM      9  C   UNL     1       4.471   4.526  17.556  0.00  0.00    +0.000 A 
ATOM     10  C   UNL     1       4.014   5.846  17.335  0.00  0.00    +0.000 A 
ATOM     11  C   UNL     1       3.257   6.508  18.298  0.00  0.00    +0.000 A 
ATOM     12  N   UNL     1       2.779   7.759  18.046  0.00  0.00    +0.000 NA
ATOM     13  C   UNL     1       2.000   8.417  18.947  0.00  0.00    +0.000 A 
ATOM     14  C   UNL     1       1.514   9.700  18.660  0.00  0.00    +0.000 A 
ENDROOT
BRANCH   1  15
ATOM     15  N   UNL     1       0.292  11.717  19.314  0.00  0.00    +0.000 N 
ATOM     16  H   UNL     1       0.998  12.469  19.365  0.00  0.00    +0.000 HD
BRANCH  15  17
ATOM     17  C   UNL     1      -1.078  12.150  19.221  0.00  0.00    +0.000 C 
ATOM     18  S   UNL     1      -1.983  11.582  18.242  0.00  0.00    +0.000 S 
BRANCH  17  19
ATOM     19  N   UNL     1      -1.591  12.988  20.258  0.00  0.00    +0.000 N 
ATOM     20  H   UNL     1      -1.110  13.878  20.460  0.00  0.00    +0.000 HD
BRANCH  19  21
ATOM     21  C   UNL     1      -2.666  12.581  21.143  0.00  0.00    +0.000 C 
BRANCH  21  23
ATOM     22  C   UNL     1      -3.203  12.205  23.594  0.00  0.00    +0.000 C 
ATOM     23  C   UNL     1      -2.207  12.775  22.599  0.00  0.00    +0.000 C 
ENDBRANCH  21  23
ENDBRANCH  19  21
ENDBRANCH  17  19
ENDBRANCH  15  17
ENDBRANCH   1  15
BRANCH   9  24
ATOM     24  N   UNL     1       5.194   3.766  16.577  0.00  0.00    +0.000 N 
ATOM     25  H   UNL     1       4.890   2.790  16.433  0.00  0.00    +0.000 HD
BRANCH  24  26
ATOM     26  C   UNL     1       6.262   4.219  15.730  0.00  0.00    +0.000 C 
ATOM     27  S   UNL     1       6.254   3.990  14.300  0.00  0.00    +0.000 S 
BRANCH  26  28
ATOM     28  N   UNL     1       7.438   4.757  16.346  0.00  0.00    +0.000 N 
ATOM     29  H   UNL     1       8.130   5.243  15.755  0.00  0.00    +0.000 HD
BRANCH  28  30
ATOM     30  C   UNL     1       7.760   4.563  17.749  0.00  0.00    +0.000 C 
BRANCH  30  31
ATOM     31  C   UNL     1       7.566   5.892  18.496  0.00  0.00    +0.000 C 
ATOM     32  C   UNL     1       7.482   7.071  17.539  0.00  0.00    +0.000 C 
ENDBRANCH  30  31
ENDBRANCH  28  30
ENDBRANCH  26  28
ENDBRANCH  24  26
ENDBRANCH   9  24
TORSDOF 10
ENDMDL
MODEL 7
REMARK VINA RESULT:      -7.2      2.137      3.286
REMARK  Name = 
REMARK  12 active torsions:
REMARK  status: ('A' for Active; 'I' for Inactive)
REMARK    1  A    between atoms: C_1  and  C_2
REMARK    2  A    between atoms: C_2  and  C_3
REMARK    3  A    between atoms: C_3  and  N_4
REMARK    4  A    between atoms: N_4  and  C_5
REMARK    5  A    between atoms: C_5  and  N_7
REMARK    6  A    between atoms: N_7  and  C_8
REMARK    7  A    between atoms: C_16  and  N_17
REMARK    8  A    between atoms: N_17  and  C_18
REMARK    9  A    between atoms: C_18  and  N_20
REMARK   10  A    between atoms: N_20  and  C_21
REMARK   11  A    between atoms: C_21  and  C_22
REMARK   12  A    between atoms: C_22  and  C_23
REMARK                            x       y       z     vdW  Elec       q    Type
REMARK                         _______ _______ _______ _____ _____    ______ ____
ROOT
ATOM      1  C   UNL     1       3.096   5.923  19.168  0.00  0.00    +0.000 A 
ATOM      2  C   UNL     1       3.527   6.432  17.924  0.00  0.00    +0.000 A 
ATOM      3  C   UNL     1       3.168   7.709  17.515  0.00  0.00    +0.000 A 
ATOM      4  C   UNL     1       2.360   8.500  18.328  0.00  0.00    +0.000 A 
ATOM      5  C   UNL     1       2.012   9.792  17.931  0.00  0.00    +0.000 A 
ATOM      6  C   UNL     1       1.184  10.564  18.743  0.00  0.00    +0.000 A 
ATOM      7  C   UNL     1       0.804  11.853  18.360  0.00  0.00    +0.000 A 
ATOM      8  C   UNL     1      -0.065  12.591  19.165  0.00  0.00    +0.000 A 
ATOM      9  C   UNL     1      -0.574  12.055  20.361  0.00  0.00    +0.000 A 
ATOM     10  C   UNL     1      -0.135  10.773  20.765  0.00  0.00    +0.000 A 
ATOM     11  C   UNL     1       0.722  10.027  19.961  0.00  0.00    +0.000 A 
ATOM     12  N   UNL     1       1.091   8.772  20.341  0.00  0.00    +0.000 NA
ATOM     13  C   UNL     1       1.893   7.999  19.558  0.00  0.00    +0.000 A 
ATOM     14  C   UNL     1       2.251   6.707  19.969  0.00  0.00    +0.000 A 
ENDROOT
BRANCH   1  15
ATOM     15  N   UNL     1       3.498   4.629  19.633  0.00  0.00    +0.000 N 
ATOM     16  H   UNL     1       3.377   4.427  20.639  0.00  0.00    +0.000 HD
BRANCH  15  17
ATOM     17  C   UNL     1       4.295   3.682  18.898  0.00  0.00    +0.000 C 
ATOM     18  S   UNL     1       3.685   2.720  18.000  0.00  0.00    +0.000 S 
BRANCH  17  19
ATOM     19  N   UNL     1       5.713   3.853  18.896  0.00  0.00    +0.000 N 
ATOM     20  H   UNL     1       6.249   3.563  19.728  0.00  0.00    +0.000 HD
BRANCH  19  21
ATOM     21  C   UNL     1       6.423   4.551  17.840  0.00  0.00    +0.000 C 
BRANCH  21  23
ATOM     22  C   UNL     1       7.545   6.816  18.069  0.00  0.00    +0.000 C 
ATOM     23  C   UNL     1       7.579   5.351  18.469  0.00  0.00    +0.000 C 
ENDBRANCH  21  23
ENDBRANCH  19  21
ENDBRANCH  17  19
ENDBRANCH  15  17
ENDBRANCH   1  15
BRANCH   9  24
ATOM     24  N   UNL     1      -1.510  12.843  21.110  0.00  0.00    +0.000 N 
ATOM     25  H   UNL     1      -1.114  13.478  21.821  0.00  0.00    +0.000 HD
BRANCH  24  26
ATOM     26  C   UNL     1      -2.937  12.895  20.952  0.00  0.00    +0.000 C 
ATOM     27  S   UNL     1      -3.838  12.716  22.071  0.00  0.00    +0.000 S 
BRANCH  26  28
ATOM     28  N   UNL     1      -3.473  12.953  19.625  0.00  0.00    +0.000 N 
ATOM     29  H   UNL     1      -3.522  13.867  19.149  0.00  0.00    +0.000 HD
BRANCH  28  30
ATOM     30  C   UNL     1      -4.051  11.805  18.949  0.00  0.00    +0.000 C 
BRANCH  30  31
ATOM     31  C   UNL     1      -3.194  11.463  17.721  0.00  0.00    +0.000 C 
ATOM     32  C   UNL     1      -2.547  10.092  17.847  0.00  0.00    +0.000 C 
ENDBRANCH  30  31
ENDBRANCH  28  30
ENDBRANCH  26  28
ENDBRANCH  24  26
ENDBRANCH   9  24
TORSDOF 10
ENDMDL
MODEL 8
REMARK VINA RESULT:      -7.1      1.380      8.609
REMARK  Name = 
REMARK  12 active torsions:
REMARK  status: ('A' for Active; 'I' for Inactive)
REMARK    1  A    between atoms: C_1  and  C_2
REMARK    2  A    between atoms: C_2  and  C_3
REMARK    3  A    between atoms: C_3  and  N_4
REMARK    4  A    between atoms: N_4  and  C_5
REMARK    5  A    between atoms: C_5  and  N_7
REMARK    6  A    between atoms: N_7  and  C_8
REMARK    7  A    between atoms: C_16  and  N_17
REMARK    8  A    between atoms: N_17  and  C_18
REMARK    9  A    between atoms: C_18  and  N_20
REMARK   10  A    between atoms: N_20  and  C_21
REMARK   11  A    between atoms: C_21  and  C_22
REMARK   12  A    between atoms: C_22  and  C_23
REMARK                            x       y       z     vdW  Elec       q    Type
REMARK                         _______ _______ _______ _____ _____    ______ ____
ROOT
ATOM      1  C   UNL     1       0.191  10.813  20.634  0.00  0.00    +0.000 A 
ATOM      2  C   UNL     1      -0.228  10.077  21.763  0.00  0.00    +0.000 A 
ATOM      3  C   UNL     1       0.155   8.755  21.934  0.00  0.00    +0.000 A 
ATOM      4  C   UNL     1       0.954   8.132  20.977  0.00  0.00    +0.000 A 
ATOM      5  C   UNL     1       1.359   6.808  21.153  0.00  0.00    +0.000 A 
ATOM      6  C   UNL     1       2.138   6.190  20.176  0.00  0.00    +0.000 A 
ATOM      7  C   UNL     1       2.542   4.860  20.318  0.00  0.00    +0.000 A 
ATOM      8  C   UNL     1       3.280   4.244  19.306  0.00  0.00    +0.000 A 
ATOM      9  C   UNL     1       3.622   4.942  18.134  0.00  0.00    +0.000 A 
ATOM     10  C   UNL     1       3.257   6.305  18.031  0.00  0.00    +0.000 A 
ATOM     11  C   UNL     1       2.511   6.920  19.031  0.00  0.00    +0.000 A 
ATOM     12  N   UNL     1       2.123   8.219  18.889  0.00  0.00    +0.000 NA
ATOM     13  C   UNL     1       1.356   8.838  19.827  0.00  0.00    +0.000 A 
ATOM     14  C   UNL     1       0.963  10.172  19.653  0.00  0.00    +0.000 A 
ENDROOT
BRANCH   1  15
ATOM     15  N   UNL     1      -0.151  12.194  20.465  0.00  0.00    +0.000 N 
ATOM     16  H   UNL     1      -0.020  12.818  21.277  0.00  0.00    +0.000 HD
BRANCH  15  17
ATOM     17  C   UNL     1      -0.903  12.746  19.368  0.00  0.00    +0.000 C 
ATOM     18  S   UNL     1      -0.250  13.469  18.294  0.00  0.00    +0.000 S 
BRANCH  17  19
ATOM     19  N   UNL     1      -2.277  12.376  19.240  0.00  0.00    +0.000 N 
ATOM     20  H   UNL     1      -2.891  12.457  20.064  0.00  0.00    +0.000 HD
BRANCH  19  21
ATOM     21  C   UNL     1      -2.818  11.750  18.048  0.00  0.00    +0.000 C 
BRANCH  21  23
ATOM     22  C   UNL     1      -2.169   9.729  16.657  0.00  0.00    +0.000 C 
ATOM     23  C   UNL     1      -2.432  10.260  18.056  0.00  0.00    +0.000 C 
ENDBRANCH  21  23
ENDBRANCH  19  21
ENDBRANCH  17  19
ENDBRANCH  15  17
ENDBRANCH   1  15
BRANCH   9  24
ATOM     24  N   UNL     1       4.330   4.232  17.108  0.00  0.00    +0.000 N 
ATOM     25  H   UNL     1       3.757   3.688  16.444  0.00  0.00    +0.000 HD
BRANCH  24  26
ATOM     26  C   UNL     1       5.744   4.233  16.858  0.00  0.00    +0.000 C 
ATOM     27  S   UNL     1       6.286   4.074  15.524  0.00  0.00    +0.000 S 
BRANCH  26  28
ATOM     28  N   UNL     1       6.634   4.219  17.981  0.00  0.00    +0.000 N 
ATOM     29  H   UNL     1       7.042   3.321  18.279  0.00  0.00    +0.000 HD
BRANCH  28  30
ATOM     30  C   UNL     1       6.910   5.393  18.790  0.00  0.00    +0.000 C 
BRANCH  30  31
ATOM     31  C   UNL     1       7.797   6.358  17.986  0.00  0.00    +0.000 C 
ATOM     32  C   UNL     1       7.033   7.600  17.556  0.00  0.00    +0.000 C 
ENDBRANCH  30  31
ENDBRANCH  28  30
ENDBRANCH  26  28
ENDBRANCH  24  26
ENDBRANCH   9  24
TORSDOF 10
ENDMDL
MODEL 9
REMARK VINA RESULT:      -7.1      1.138      1.484
REMARK  Name = 
REMARK  12 active torsions:
REMARK  status: ('A' for Active; 'I' for Inactive)
REMARK    1  A    between atoms: C_1  and  C_2
REMARK    2  A    between atoms: C_2  and  C_3
REMARK    3  A    between atoms: C_3  and  N_4
REMARK    4  A    between atoms: N_4  and  C_5
REMARK    5  A    between atoms: C_5  and  N_7
REMARK    6  A    between atoms: N_7  and  C_8
REMARK    7  A    between atoms: C_16  and  N_17
REMARK    8  A    between atoms: N_17  and  C_18
REMARK    9  A    between atoms: C_18  and  N_20
REMARK   10  A    between atoms: N_20  and  C_21
REMARK   11  A    between atoms: C_21  and  C_22
REMARK   12  A    between atoms: C_22  and  C_23
REMARK                            x       y       z     vdW  Elec       q    Type
REMARK                         _______ _______ _______ _____ _____    ______ ____
ROOT
ATOM      1  C   UNL     1       4.488   4.191  17.520  0.00  0.00    +0.000 A 
ATOM      2  C   UNL     1       4.193   3.501  18.716  0.00  0.00    +0.000 A 
ATOM      3  C   UNL     1       3.409   4.086  19.700  0.00  0.00    +0.000 A 
ATOM      4  C   UNL     1       2.913   5.376  19.521  0.00  0.00    +0.000 A 
ATOM      5  C   UNL     1       2.108   5.963  20.499  0.00  0.00    +0.000 A 
ATOM      6  C   UNL     1       1.639   7.262  20.318  0.00  0.00    +0.000 A 
ATOM      7  C   UNL     1       0.847   7.880  21.289  0.00  0.00    +0.000 A 
ATOM      8  C   UNL     1       0.428   9.199  21.111  0.00  0.00    +0.000 A 
ATOM      9  C   UNL     1       0.797   9.926  19.965  0.00  0.00    +0.000 A 
ATOM     10  C   UNL     1       1.549   9.269  18.963  0.00  0.00    +0.000 A 
ATOM     11  C   UNL     1       1.980   7.957  19.141  0.00  0.00    +0.000 A 
ATOM     12  N   UNL     1       2.749   7.359  18.188  0.00  0.00    +0.000 NA
ATOM     13  C   UNL     1       3.223   6.094  18.350  0.00  0.00    +0.000 A 
ATOM     14  C   UNL     1       4.020   5.504  17.358  0.00  0.00    +0.000 A 
ENDROOT
BRANCH   1  15
ATOM     15  N   UNL     1       5.251   3.585  16.470  0.00  0.00    +0.000 N 
ATOM     16  H   UNL     1       5.123   2.572  16.313  0.00  0.00    +0.000 HD
BRANCH  15  17
ATOM     17  C   UNL     1       6.369   4.186  15.788  0.00  0.00    +0.000 C 
ATOM     18  S   UNL     1       6.359   4.380  14.351  0.00  0.00    +0.000 S 
BRANCH  17  19
ATOM     19  N   UNL     1       7.393   4.792  16.579  0.00  0.00    +0.000 N 
ATOM     20  H   UNL     1       8.184   4.211  16.896  0.00  0.00    +0.000 HD
BRANCH  19  21
ATOM     21  C   UNL     1       7.301   6.149  17.084  0.00  0.00    +0.000 C 
BRANCH  21  23
ATOM     22  C   UNL     1       7.000   5.629  19.549  0.00  0.00    +0.000 C 
ATOM     23  C   UNL     1       7.928   6.196  18.488  0.00  0.00    +0.000 C 
ENDBRANCH  21  23
ENDBRANCH  19  21
ENDBRANCH  17  19
ENDBRANCH  15  17
ENDBRANCH   1  15
BRANCH   9  24
ATOM     24  N   UNL     1       0.384  11.296  19.872  0.00  0.00    +0.000 N 
ATOM     25  H   UNL     1       0.883  11.971  20.472  0.00  0.00    +0.000 HD
BRANCH  24  26
ATOM     26  C   UNL     1      -0.611  11.855  18.998  0.00  0.00    +0.000 C 
ATOM     27  S   UNL     1      -0.480  13.185  18.441  0.00  0.00    +0.000 S 
BRANCH  26  28
ATOM     28  N   UNL     1      -1.838  11.137  18.818  0.00  0.00    +0.000 N 
ATOM     29  H   UNL     1      -2.060  10.363  19.461  0.00  0.00    +0.000 HD
BRANCH  28  30
ATOM     30  C   UNL     1      -2.741  11.375  17.705  0.00  0.00    +0.000 C 
BRANCH  30  31
ATOM     31  C   UNL     1      -4.179  11.464  18.239  0.00  0.00    +0.000 C 
ATOM     32  C   UNL     1      -4.264  12.315  19.496  0.00  0.00    +0.000 C 
ENDBRANCH  30  31
ENDBRANCH  28  30
ENDBRANCH  26  28
ENDBRANCH  24  26
ENDBRANCH   9  24
TORSDOF 10
ENDMDL
