MODEL 1
REMARK VINA RESULT:      -6.7      0.000      0.000
REMARK  Name = 
REMARK  7 active torsions:
REMARK  status: ('A' for Active; 'I' for Inactive)
REMARK    1  A    between atoms: C_1  and  C_2
REMARK    2  A    between atoms: C_2  and  C_3
REMARK    3  A    between atoms: C_3  and  CA_4
REMARK    4  A    between atoms: CA_4  and  N_5
REMARK    5  A    between atoms: CA_4  and  C_14
REMARK    6  A    between atoms: C_6  and  C_8
REMARK    7  A    between atoms: C_14  and  OXT_16
REMARK                            x       y       z     vdW  Elec       q    Type
REMARK                         _______ _______ _______ _____ _____    ______ ____
ROOT
ATOM      1  N   UNL     1       5.103   4.609  17.729  0.00  0.00    +0.000 N 
ATOM      2  C   UNL     1       4.007   5.340  18.126  0.00  0.00    +0.000 C 
ATOM      3  O   UNL     1       3.967   6.563  18.044  0.00  0.00    +0.000 OA
ATOM      4  H   UNL     1       5.164   3.617  17.937  0.00  0.00    +0.000 HD
ENDROOT
BRANCH   2   5
ATOM      5  C   UNL     1       2.857   4.579  18.696  0.00  0.00    +0.000 A 
ATOM      6  C   UNL     1       2.421   3.434  18.015  0.00  0.00    +0.000 A 
ATOM      7  C   UNL     1       1.353   2.682  18.512  0.00  0.00    +0.000 A 
ATOM      8  C   UNL     1       0.722   3.064  19.697  0.00  0.00    +0.000 A 
ATOM      9  C   UNL     1       1.163   4.193  20.387  0.00  0.00    +0.000 A 
ATOM     10  C   UNL     1       2.228   4.950  19.893  0.00  0.00    +0.000 A 
ENDBRANCH   2   5
BRANCH   1  11
ATOM     11  CA  UNL     1       6.313   5.248  17.211  0.00  0.00    +0.000 C 
BRANCH  11  12
ATOM     12  C   UNL     1       6.699   4.464  15.954  0.00  0.00    +0.000 C 
ATOM     13  O   UNL     1       7.579   4.816  15.179  0.00  0.00    +0.000 OA
BRANCH  12  14
ATOM     14  OXT UNL     1       6.019   3.306  15.790  0.00  0.00    +0.000 OA
ATOM     15  HXT UNL     1       5.995   2.737  16.584  0.00  0.00    +0.000 HD
ENDBRANCH  12  14
ENDBRANCH  11  12
BRANCH  11  16
ATOM     16  C   UNL     1       7.443   5.219  18.252  0.00  0.00    +0.000 C 
BRANCH  16  18
ATOM     17  C   UNL     1       7.606   7.646  17.568  0.00  0.00    +0.000 C 
ATOM     18  C   UNL     1       7.948   6.615  18.635  0.00  0.00    +0.000 C 
ENDBRANCH  16  18
ENDBRANCH  11  16
ENDBRANCH   1  11
TORSDOF 6
ENDMDL
MODEL 2
REMARK VINA RESULT:      -6.5      0.343      1.481
REMARK  Name = 
REMARK  7 active torsions:
REMARK  status: ('A' for Active; 'I' for Inactive)
REMARK    1  A    between atoms: C_1  and  C_2
REMARK    2  A    between atoms: C_2  and  C_3
REMARK    3  A    between atoms: C_3  and  CA_4
REMARK    4  A    between atoms: CA_4  and  N_5
REMARK    5  A    between atoms: CA_4  and  C_14
REMARK    6  A    between atoms: C_6  and  C_8
REMARK    7  A    between atoms: C_14  and  OXT_16
REMARK                            x       y       z     vdW  Elec       q    Type
REMARK                         _______ _______ _______ _____ _____    ______ ____
ROOT
ATOM      1  N   UNL     1       5.069   4.625  17.465  0.00  0.00    +0.000 N 
ATOM      2  C   UNL     1       3.992   5.339  17.938  0.00  0.00    +0.000 C 
ATOM      3  O   UNL     1       3.937   6.563  17.880  0.00  0.00    +0.000 OA
ATOM      4  H   UNL     1       5.149   3.630  17.651  0.00  0.00    +0.000 HD
ENDROOT
BRANCH   2   5
ATOM      5  C   UNL     1       2.883   4.558  18.559  0.00  0.00    +0.000 A 
ATOM      6  C   UNL     1       2.402   4.975  19.808  0.00  0.00    +0.000 A 
ATOM      7  C   UNL     1       1.359   4.282  20.429  0.00  0.00    +0.000 A 
ATOM      8  C   UNL     1       0.785   3.176  19.801  0.00  0.00    +0.000 A 
ATOM      9  C   UNL     1       1.248   2.767  18.551  0.00  0.00    +0.000 A 
ATOM     10  C   UNL     1       2.293   3.454  17.927  0.00  0.00    +0.000 A 
ENDBRANCH   2   5
BRANCH   1  11
ATOM     11  CA  UNL     1       6.241   5.283  16.889  0.00  0.00    +0.000 C 
BRANCH  11  12
ATOM     12  C   UNL     1       6.489   4.600  15.542  0.00  0.00    +0.000 C 
ATOM     13  O   UNL     1       6.011   3.515  15.233  0.00  0.00    +0.000 OA
BRANCH  12  14
ATOM     14  OXT UNL     1       7.245   5.322  14.682  0.00  0.00    +0.000 OA
ATOM     15  HXT UNL     1       7.252   4.980  13.767  0.00  0.00    +0.000 HD
ENDBRANCH  12  14
ENDBRANCH  11  12
BRANCH  11  16
ATOM     16  C   UNL     1       7.461   5.148  17.813  0.00  0.00    +0.000 C 
BRANCH  16  18
ATOM     17  C   UNL     1       7.617   7.663  17.628  0.00  0.00    +0.000 C 
ATOM     18  C   UNL     1       7.825   6.453  18.529  0.00  0.00    +0.000 C 
ENDBRANCH  16  18
ENDBRANCH  11  16
ENDBRANCH   1  11
TORSDOF 6
ENDMDL
MODEL 3
REMARK VINA RESULT:      -6.5      1.322      1.529
REMARK  Name = 
REMARK  7 active torsions:
REMARK  status: ('A' for Active; 'I' for Inactive)
REMARK    1  A    between atoms: C_1  and  C_2
REMARK    2  A    between atoms: C_2  and  C_3
REMARK    3  A    between atoms: C_3  and  CA_4
REMARK    4  A    between atoms: CA_4  and  N_5
REMARK    5  A    between atoms: CA_4  and  C_14
REMARK    6  A    between atoms: C_6  and  C_8
REMARK    7  A    between atoms: C_14  and  OXT_16
REMARK                            x       y       z     vdW  Elec       q    Type
REMARK                         _______ _______ _______ _____ _____    ______ ____
ROOT
ATOM      1  N   UNL     1       5.612   5.597  18.260  0.00  0.00    +0.000 N 
ATOM      2  C   UNL     1       4.439   5.165  17.686  0.00  0.00    +0.000 C 
ATOM      3  O   UNL     1       4.289   5.093  16.470  0.00  0.00    +0.000 OA
ATOM      4  H   UNL     1       5.660   5.779  19.258  0.00  0.00    +0.000 HD
ENDROOT
BRANCH   2   5
ATOM      5  C   UNL     1       3.324   4.807  18.610  0.00  0.00    +0.000 A 
ATOM      6  C   UNL     1       2.317   3.957  18.132  0.00  0.00    +0.000 A 
ATOM      7  C   UNL     1       1.256   3.585  18.961  0.00  0.00    +0.000 A 
ATOM      8  C   UNL     1       1.200   4.052  20.275  0.00  0.00    +0.000 A 
ATOM      9  C   UNL     1       2.208   4.884  20.761  0.00  0.00    +0.000 A 
ATOM     10  C   UNL     1       3.270   5.262  19.935  0.00  0.00    +0.000 A 
ENDBRANCH   2   5
BRANCH   1  11
ATOM     11  CA  UNL     1       6.754   6.033  17.456  0.00  0.00    +0.000 C 
BRANCH  11  12
ATOM     12  C   UNL     1       7.483   4.755  17.032  0.00  0.00    +0.000 C 
ATOM     13  O   UNL     1       7.639   4.418  15.865  0.00  0.00    +0.000 OA
BRANCH  12  14
ATOM     14  OXT UNL     1       7.999   4.041  18.060  0.00  0.00    +0.000 OA
ATOM     15  HXT UNL     1       8.954   4.182  18.209  0.00  0.00    +0.000 HD
ENDBRANCH  12  14
ENDBRANCH  11  12
BRANCH  11  16
ATOM     16  C   UNL     1       7.677   6.958  18.263  0.00  0.00    +0.000 C 
BRANCH  16  18
ATOM     17  C   UNL     1       8.602   9.293  18.536  0.00  0.00    +0.000 C 
ATOM     18  C   UNL     1       7.897   8.321  17.599  0.00  0.00    +0.000 C 
ENDBRANCH  16  18
ENDBRANCH  11  16
ENDBRANCH   1  11
TORSDOF 6
ENDMDL
MODEL 4
REMARK VINA RESULT:      -6.5      1.858      2.402
REMARK  Name = 
REMARK  7 active torsions:
REMARK  status: ('A' for Active; 'I' for Inactive)
REMARK    1  A    between atoms: C_1  and  C_2
REMARK    2  A    between atoms: C_2  and  C_3
REMARK    3  A    between atoms: C_3  and  CA_4
REMARK    4  A    between atoms: CA_4  and  N_5
REMARK    5  A    between atoms: CA_4  and  C_14
REMARK    6  A    between atoms: C_6  and  C_8
REMARK    7  A    between atoms: C_14  and  OXT_16
REMARK                            x       y       z     vdW  Elec       q    Type
REMARK                         _______ _______ _______ _____ _____    ______ ____
ROOT
ATOM      1  N   UNL     1       4.749   4.193  17.833  0.00  0.00    +0.000 N 
ATOM      2  C   UNL     1       3.489   3.641  17.807  0.00  0.00    +0.000 C 
ATOM      3  O   UNL     1       2.905   3.384  16.759  0.00  0.00    +0.000 OA
ATOM      4  H   UNL     1       5.149   4.521  18.706  0.00  0.00    +0.000 HD
ENDROOT
BRANCH   2   5
ATOM      5  C   UNL     1       2.835   3.384  19.123  0.00  0.00    +0.000 A 
ATOM      6  C   UNL     1       1.494   3.762  19.278  0.00  0.00    +0.000 A 
ATOM      7  C   UNL     1       0.834   3.537  20.488  0.00  0.00    +0.000 A 
ATOM      8  C   UNL     1       1.505   2.923  21.546  0.00  0.00    +0.000 A 
ATOM      9  C   UNL     1       2.835   2.530  21.392  0.00  0.00    +0.000 A 
ATOM     10  C   UNL     1       3.501   2.757  20.185  0.00  0.00    +0.000 A 
ENDBRANCH   2   5
BRANCH   1  11
ATOM     11  CA  UNL     1       5.467   4.543  16.608  0.00  0.00    +0.000 C 
BRANCH  11  12
ATOM     12  C   UNL     1       6.956   4.442  16.948  0.00  0.00    +0.000 C 
ATOM     13  O   UNL     1       7.851   4.596  16.126  0.00  0.00    +0.000 OA
BRANCH  12  14
ATOM     14  OXT UNL     1       7.215   4.221  18.257  0.00  0.00    +0.000 OA
ATOM     15  HXT UNL     1       6.648   3.541  18.671  0.00  0.00    +0.000 HD
ENDBRANCH  12  14
ENDBRANCH  11  12
BRANCH  11  16
ATOM     16  C   UNL     1       5.099   5.959  16.138  0.00  0.00    +0.000 C 
BRANCH  16  18
ATOM     17  C   UNL     1       3.557   7.388  17.540  0.00  0.00    +0.000 C 
ATOM     18  C   UNL     1       4.999   6.970  17.285  0.00  0.00    +0.000 C 
ENDBRANCH  16  18
ENDBRANCH  11  16
ENDBRANCH   1  11
TORSDOF 6
ENDMDL
MODEL 5
REMARK VINA RESULT:      -6.5      0.983      1.677
REMARK  Name = 
REMARK  7 active torsions:
REMARK  status: ('A' for Active; 'I' for Inactive)
REMARK    1  A    between atoms: C_1  and  C_2
REMARK    2  A    between atoms: C_2  and  C_3
REMARK    3  A    between atoms: C_3  and  CA_4
REMARK    4  A    between atoms: CA_4  and  N_5
REMARK    5  A    between atoms: CA_4  and  C_14
REMARK    6  A    between atoms: C_6  and  C_8
REMARK    7  A    between atoms: C_14  and  OXT_16
REMARK                            x       y       z     vdW  Elec       q    Type
REMARK                         _______ _______ _______ _____ _____    ______ ____
ROOT
ATOM      1  N   UNL     1       5.303   5.290  17.620  0.00  0.00    +0.000 N 
ATOM      2  C   UNL     1       4.089   5.915  17.789  0.00  0.00    +0.000 C 
ATOM      3  O   UNL     1       3.872   7.052  17.383  0.00  0.00    +0.000 OA
ATOM      4  H   UNL     1       5.499   4.410  18.085  0.00  0.00    +0.000 HD
ENDROOT
BRANCH   2   5
ATOM      5  C   UNL     1       3.035   5.157  18.523  0.00  0.00    +0.000 A 
ATOM      6  C   UNL     1       2.795   5.487  19.864  0.00  0.00    +0.000 A 
ATOM      7  C   UNL     1       1.813   4.812  20.592  0.00  0.00    +0.000 A 
ATOM      8  C   UNL     1       1.057   3.810  19.982  0.00  0.00    +0.000 A 
ATOM      9  C   UNL     1       1.280   3.488  18.644  0.00  0.00    +0.000 A 
ATOM     10  C   UNL     1       2.263   4.157  17.911  0.00  0.00    +0.000 A 
ENDBRANCH   2   5
BRANCH   1  11
ATOM     11  CA  UNL     1       6.432   5.955  16.970  0.00  0.00    +0.000 C 
BRANCH  11  12
ATOM     12  C   UNL     1       7.281   4.840  16.354  0.00  0.00    +0.000 C 
ATOM     13  O   UNL     1       7.342   4.620  15.151  0.00  0.00    +0.000 OA
BRANCH  12  14
ATOM     14  OXT UNL     1       8.014   4.139  17.250  0.00  0.00    +0.000 OA
ATOM     15  HXT UNL     1       8.559   3.430  16.857  0.00  0.00    +0.000 HD
ENDBRANCH  12  14
ENDBRANCH  11  12
BRANCH  11  16
ATOM     16  C   UNL     1       7.245   6.779  17.980  0.00  0.00    +0.000 C 
BRANCH  16  18
ATOM     17  C   UNL     1       8.316   9.033  18.375  0.00  0.00    +0.000 C 
ATOM     18  C   UNL     1       7.977   7.966  17.343  0.00  0.00    +0.000 C 
ENDBRANCH  16  18
ENDBRANCH  11  16
ENDBRANCH   1  11
TORSDOF 6
ENDMDL
MODEL 6
REMARK VINA RESULT:      -6.4      1.711      2.976
REMARK  Name = 
REMARK  7 active torsions:
REMARK  status: ('A' for Active; 'I' for Inactive)
REMARK    1  A    between atoms: C_1  and  C_2
REMARK    2  A    between atoms: C_2  and  C_3
REMARK    3  A    between atoms: C_3  and  CA_4
REMARK    4  A    between atoms: CA_4  and  N_5
REMARK    5  A    between atoms: CA_4  and  C_14
REMARK    6  A    between atoms: C_6  and  C_8
REMARK    7  A    between atoms: C_14  and  OXT_16
REMARK                            x       y       z     vdW  Elec       q    Type
REMARK                         _______ _______ _______ _____ _____    ______ ____
ROOT
ATOM      1  N   UNL     1       4.967   3.602  16.627  0.00  0.00    +0.000 N 
ATOM      2  C   UNL     1       4.217   4.667  17.068  0.00  0.00    +0.000 C 
ATOM      3  O   UNL     1       4.438   5.820  16.711  0.00  0.00    +0.000 OA
ATOM      4  H   UNL     1       4.851   2.683  17.044  0.00  0.00    +0.000 HD
ENDROOT
BRANCH   2   5
ATOM      5  C   UNL     1       3.120   4.370  18.034  0.00  0.00    +0.000 A 
ATOM      6  C   UNL     1       2.317   3.246  17.796  0.00  0.00    +0.000 A 
ATOM      7  C   UNL     1       1.282   2.919  18.676  0.00  0.00    +0.000 A 
ATOM      8  C   UNL     1       1.049   3.708  19.803  0.00  0.00    +0.000 A 
ATOM      9  C   UNL     1       1.855   4.819  20.054  0.00  0.00    +0.000 A 
ATOM     10  C   UNL     1       2.890   5.152  19.176  0.00  0.00    +0.000 A 
ENDBRANCH   2   5
BRANCH   1  11
ATOM     11  CA  UNL     1       6.105   3.776  15.726  0.00  0.00    +0.000 C 
BRANCH  11  12
ATOM     12  C   UNL     1       7.093   4.682  16.464  0.00  0.00    +0.000 C 
ATOM     13  O   UNL     1       7.667   4.360  17.497  0.00  0.00    +0.000 OA
BRANCH  12  14
ATOM     14  OXT UNL     1       7.331   5.864  15.850  0.00  0.00    +0.000 OA
ATOM     15  HXT UNL     1       6.681   6.564  16.058  0.00  0.00    +0.000 HD
ENDBRANCH  12  14
ENDBRANCH  11  12
BRANCH  11  16
ATOM     16  C   UNL     1       5.665   4.403  14.394  0.00  0.00    +0.000 C 
BRANCH  16  18
ATOM     17  C   UNL     1       5.235   3.321  12.152  0.00  0.00    +0.000 C 
ATOM     18  C   UNL     1       6.292   3.726  13.170  0.00  0.00    +0.000 C 
ENDBRANCH  16  18
ENDBRANCH  11  16
ENDBRANCH   1  11
TORSDOF 6
ENDMDL
MODEL 7
REMARK VINA RESULT:      -6.4      1.861      2.805
REMARK  Name = 
REMARK  7 active torsions:
REMARK  status: ('A' for Active; 'I' for Inactive)
REMARK    1  A    between atoms: C_1  and  C_2
REMARK    2  A    between atoms: C_2  and  C_3
REMARK    3  A    between atoms: C_3  and  CA_4
REMARK    4  A    between atoms: CA_4  and  N_5
REMARK    5  A    between atoms: CA_4  and  C_14
REMARK    6  A    between atoms: C_6  and  C_8
REMARK    7  A    between atoms: C_14  and  OXT_16
REMARK                            x       y       z     vdW  Elec       q    Type
REMARK                         _______ _______ _______ _____ _____    ______ ____
ROOT
ATOM      1  N   UNL     1       5.464   4.803  17.300  0.00  0.00    +0.000 N 
ATOM      2  C   UNL     1       5.153   4.387  18.574  0.00  0.00    +0.000 C 
ATOM      3  O   UNL     1       6.009   4.186  19.428  0.00  0.00    +0.000 OA
ATOM      4  H   UNL     1       4.752   4.826  16.577  0.00  0.00    +0.000 HD
ENDROOT
BRANCH   2   5
ATOM      5  C   UNL     1       3.710   4.159  18.877  0.00  0.00    +0.000 A 
ATOM      6  C   UNL     1       2.906   3.593  17.878  0.00  0.00    +0.000 A 
ATOM      7  C   UNL     1       1.551   3.352  18.116  0.00  0.00    +0.000 A 
ATOM      8  C   UNL     1       0.993   3.666  19.355  0.00  0.00    +0.000 A 
ATOM      9  C   UNL     1       1.791   4.215  20.359  0.00  0.00    +0.000 A 
ATOM     10  C   UNL     1       3.147   4.461  20.126  0.00  0.00    +0.000 A 
ENDBRANCH   2   5
BRANCH   1  11
ATOM     11  CA  UNL     1       6.847   5.002  16.867  0.00  0.00    +0.000 C 
BRANCH  11  12
ATOM     12  C   UNL     1       7.235   6.410  17.327  0.00  0.00    +0.000 C 
ATOM     13  O   UNL     1       6.935   7.429  16.718  0.00  0.00    +0.000 OA
BRANCH  12  14
ATOM     14  OXT UNL     1       7.897   6.447  18.507  0.00  0.00    +0.000 OA
ATOM     15  HXT UNL     1       7.461   6.984  19.197  0.00  0.00    +0.000 HD
ENDBRANCH  12  14
ENDBRANCH  11  12
BRANCH  11  16
ATOM     16  C   UNL     1       6.975   4.861  15.342  0.00  0.00    +0.000 C 
BRANCH  16  18
ATOM     17  C   UNL     1       5.950   3.743  13.322  0.00  0.00    +0.000 C 
ATOM     18  C   UNL     1       5.678   4.403  14.667  0.00  0.00    +0.000 C 
ENDBRANCH  16  18
ENDBRANCH  11  16
ENDBRANCH   1  11
TORSDOF 6
ENDMDL
MODEL 8
REMARK VINA RESULT:      -6.4      1.936      3.009
REMARK  Name = 
REMARK  7 active torsions:
REMARK  status: ('A' for Active; 'I' for Inactive)
REMARK    1  A    between atoms: C_1  and  C_2
REMARK    2  A    between atoms: C_2  and  C_3
REMARK    3  A    between atoms: C_3  and  CA_4
REMARK    4  A    between atoms: CA_4  and  N_5
REMARK    5  A    between atoms: CA_4  and  C_14
REMARK    6  A    between atoms: C_6  and  C_8
REMARK    7  A    between atoms: C_14  and  OXT_16
REMARK                            x       y       z     vdW  Elec       q    Type
REMARK                         _______ _______ _______ _____ _____    ______ ____
ROOT
ATOM      1  N   UNL     1       5.416   4.416  16.978  0.00  0.00    +0.000 N 
ATOM      2  C   UNL     1       5.075   3.989  18.240  0.00  0.00    +0.000 C 
ATOM      3  O   UNL     1       5.888   3.925  19.156  0.00  0.00    +0.000 OA
ATOM      4  H   UNL     1       4.759   4.327  16.209  0.00  0.00    +0.000 HD
ENDROOT
BRANCH   2   5
ATOM      5  C   UNL     1       3.658   3.572  18.454  0.00  0.00    +0.000 A 
ATOM      6  C   UNL     1       2.651   4.297  17.802  0.00  0.00    +0.000 A 
ATOM      7  C   UNL     1       1.309   3.942  17.963  0.00  0.00    +0.000 A 
ATOM      8  C   UNL     1       0.967   2.854  18.767  0.00  0.00    +0.000 A 
ATOM      9  C   UNL     1       1.966   2.119  19.405  0.00  0.00    +0.000 A 
ATOM     10  C   UNL     1       3.309   2.472  19.250  0.00  0.00    +0.000 A 
ENDBRANCH   2   5
BRANCH   1  11
ATOM     11  CA  UNL     1       6.786   4.794  16.632  0.00  0.00    +0.000 C 
BRANCH  11  12
ATOM     12  C   UNL     1       6.964   6.233  17.124  0.00  0.00    +0.000 C 
ATOM     13  O   UNL     1       7.716   6.549  18.038  0.00  0.00    +0.000 OA
BRANCH  12  14
ATOM     14  OXT UNL     1       6.258   7.151  16.424  0.00  0.00    +0.000 OA
ATOM     15  HXT UNL     1       5.574   7.616  16.945  0.00  0.00    +0.000 HD
ENDBRANCH  12  14
ENDBRANCH  11  12
BRANCH  11  16
ATOM     16  C   UNL     1       7.023   4.690  15.118  0.00  0.00    +0.000 C 
BRANCH  16  18
ATOM     17  C   UNL     1       6.206   3.642  12.969  0.00  0.00    +0.000 C 
ATOM     18  C   UNL     1       5.814   4.140  14.353  0.00  0.00    +0.000 C 
ENDBRANCH  16  18
ENDBRANCH  11  16
ENDBRANCH   1  11
TORSDOF 6
ENDMDL
MODEL 9
REMARK VINA RESULT:      -6.4      1.549      1.900
REMARK  Name = 
REMARK  7 active torsions:
REMARK  status: ('A' for Active; 'I' for Inactive)
REMARK    1  A    between atoms: C_1  and  C_2
REMARK    2  A    between atoms: C_2  and  C_3
REMARK    3  A    between atoms: C_3  and  CA_4
REMARK    4  A    between atoms: CA_4  and  N_5
REMARK    5  A    between atoms: CA_4  and  C_14
REMARK    6  A    between atoms: C_6  and  C_8
REMARK    7  A    between atoms: C_14  and  OXT_16
REMARK                            x       y       z     vdW  Elec       q    Type
REMARK                         _______ _______ _______ _____ _____    ______ ____
ROOT
ATOM      1  N   UNL     1       5.038   5.157  18.203  0.00  0.00    +0.000 N 
ATOM      2  C   UNL     1       4.058   4.228  17.941  0.00  0.00    +0.000 C 
ATOM      3  O   UNL     1       3.926   3.705  16.839  0.00  0.00    +0.000 OA
ATOM      4  H   UNL     1       5.037   5.674  19.077  0.00  0.00    +0.000 HD
ENDROOT
BRANCH   2   5
ATOM      5  C   UNL     1       3.126   3.893  19.057  0.00  0.00    +0.000 A 
ATOM      6  C   UNL     1       3.570   2.999  20.041  0.00  0.00    +0.000 A 
ATOM      7  C   UNL     1       2.738   2.659  21.111  0.00  0.00    +0.000 A 
ATOM      8  C   UNL     1       1.463   3.218  21.209  0.00  0.00    +0.000 A 
ATOM      9  C   UNL     1       1.023   4.121  20.242  0.00  0.00    +0.000 A 
ATOM     10  C   UNL     1       1.849   4.462  19.167  0.00  0.00    +0.000 A 
ENDBRANCH   2   5
BRANCH   1  11
ATOM     11  CA  UNL     1       5.972   5.610  17.173  0.00  0.00    +0.000 C 
BRANCH  11  12
ATOM     12  C   UNL     1       7.243   4.778  17.360  0.00  0.00    +0.000 C 
ATOM     13  O   UNL     1       7.641   4.384  18.449  0.00  0.00    +0.000 OA
BRANCH  12  14
ATOM     14  OXT UNL     1       7.875   4.459  16.207  0.00  0.00    +0.000 OA
ATOM     15  HXT UNL     1       8.735   4.011  16.329  0.00  0.00    +0.000 HD
ENDBRANCH  12  14
ENDBRANCH  11  12
BRANCH  11  16
ATOM     16  C   UNL     1       6.265   7.112  17.313  0.00  0.00    +0.000 C 
BRANCH  16  18
ATOM     17  C   UNL     1       7.985   8.905  17.773  0.00  0.00    +0.000 C 
ATOM     18  C   UNL     1       7.707   7.408  17.742  0.00  0.00    +0.000 C 
ENDBRANCH  16  18
ENDBRANCH  11  16
ENDBRANCH   1  11
TORSDOF 6
ENDMDL
