MODEL 1
REMARK VINA RESULT:      -7.9      0.000      0.000
REMARK  Name = 
REMARK  5 active torsions:
REMARK  status: ('A' for Active; 'I' for Inactive)
REMARK    1  A    between atoms: C_2  and  C_3
REMARK    2  A    between atoms: C_2  and  C_13
REMARK    3  A    between atoms: C_3  and  N_4
REMARK    4  A    between atoms: C_6  and  C_7
REMARK    5  A    between atoms: N_9  and  O_10
REMARK                            x       y       z     vdW  Elec       q    Type
REMARK                         _______ _______ _______ _____ _____    ______ ____
ROOT
ATOM      1  N   UNL     1       6.062   4.915  18.139  0.00  0.00    +0.000 N 
ATOM      2  C   UNL     1       5.700   5.011  16.828  0.00  0.00    +0.000 A 
ATOM      3  C   UNL     1       6.843   4.667  16.137  0.00  0.00    +0.000 A 
ATOM      4  N   UNL     1       7.855   4.434  17.041  0.00  0.00    +0.000 NA
ATOM      5  N   UNL     1       7.369   4.612  18.262  0.00  0.00    +0.000 NA
ENDROOT
BRANCH   3   6
ATOM      6  C   UNL     1       7.010   4.561  14.700  0.00  0.00    +0.000 C 
ATOM      7  O   UNL     1       7.708   5.321  14.031  0.00  0.00    +0.000 OA
ATOM      8  N   UNL     1       6.314   3.523  14.133  0.00  0.00    +0.000 N 
ATOM      9  H   UNL     1       5.705   2.904  14.659  0.00  0.00    +0.000 HD
BRANCH   8  10
ATOM     10  O   UNL     1       6.401   3.354  12.734  0.00  0.00    +0.000 OA
ATOM     11  H   UNL     1       5.719   3.977  12.404  0.00  0.00    +0.000 HD
ENDBRANCH   8  10
ENDBRANCH   3   6
BRANCH   1  12
ATOM     12  C   UNL     1       5.280   5.228  19.321  0.00  0.00    +0.000 C 
BRANCH  12  14
ATOM     13  O   UNL     1       3.570   6.788  18.603  0.00  0.00    +0.000 OA
ATOM     14  C   UNL     1       3.868   5.665  19.002  0.00  0.00    +0.000 C 
BRANCH  14  15
ATOM     15  C   UNL     1       2.772   4.689  19.256  0.00  0.00    +0.000 A 
ATOM     16  C   UNL     1       2.198   4.525  20.521  0.00  0.00    +0.000 A 
ATOM     17  C   UNL     1       1.169   3.597  20.704  0.00  0.00    +0.000 A 
ATOM     18  C   UNL     1       0.708   2.839  19.628  0.00  0.00    +0.000 A 
ATOM     19  C   UNL     1       1.280   2.997  18.367  0.00  0.00    +0.000 A 
ATOM     20  C   UNL     1       2.315   3.914  18.181  0.00  0.00    +0.000 A 
ENDBRANCH  14  15
ENDBRANCH  12  14
ENDBRANCH   1  12
TORSDOF 5
ENDMDL
MODEL 2
REMARK VINA RESULT:      -7.9      0.256      1.129
REMARK  Name = 
REMARK  5 active torsions:
REMARK  status: ('A' for Active; 'I' for Inactive)
REMARK    1  A    between atoms: C_2  and  C_3
REMARK    2  A    between atoms: C_2  and  C_13
REMARK    3  A    between atoms: C_3  and  N_4
REMARK    4  A    between atoms: C_6  and  C_7
REMARK    5  A    between atoms: N_9  and  O_10
REMARK                            x       y       z     vdW  Elec       q    Type
REMARK                         _______ _______ _______ _____ _____    ______ ____
ROOT
ATOM      1  N   UNL     1       6.059   4.902  18.093  0.00  0.00    +0.000 N 
ATOM      2  C   UNL     1       5.701   5.000  16.781  0.00  0.00    +0.000 A 
ATOM      3  C   UNL     1       6.853   4.682  16.092  0.00  0.00    +0.000 A 
ATOM      4  N   UNL     1       7.865   4.463  16.998  0.00  0.00    +0.000 NA
ATOM      5  N   UNL     1       7.372   4.623  18.218  0.00  0.00    +0.000 NA
ENDROOT
BRANCH   3   6
ATOM      6  C   UNL     1       7.026   4.589  14.655  0.00  0.00    +0.000 C 
ATOM      7  O   UNL     1       7.706   5.371  13.992  0.00  0.00    +0.000 OA
ATOM      8  N   UNL     1       6.360   3.536  14.080  0.00  0.00    +0.000 N 
ATOM      9  H   UNL     1       5.766   2.899  14.601  0.00  0.00    +0.000 HD
BRANCH   8  10
ATOM     10  O   UNL     1       6.456   3.377  12.681  0.00  0.00    +0.000 OA
ATOM     11  H   UNL     1       5.726   2.750  12.489  0.00  0.00    +0.000 HD
ENDBRANCH   8  10
ENDBRANCH   3   6
BRANCH   1  12
ATOM     12  C   UNL     1       5.268   5.192  19.274  0.00  0.00    +0.000 C 
BRANCH  12  14
ATOM     13  O   UNL     1       3.543   6.777  18.654  0.00  0.00    +0.000 OA
ATOM     14  C   UNL     1       3.856   5.627  18.951  0.00  0.00    +0.000 C 
BRANCH  14  15
ATOM     15  C   UNL     1       2.777   4.608  19.072  0.00  0.00    +0.000 A 
ATOM     16  C   UNL     1       2.634   3.561  18.155  0.00  0.00    +0.000 A 
ATOM     17  C   UNL     1       1.605   2.629  18.318  0.00  0.00    +0.000 A 
ATOM     18  C   UNL     1       0.725   2.735  19.394  0.00  0.00    +0.000 A 
ATOM     19  C   UNL     1       0.862   3.779  20.307  0.00  0.00    +0.000 A 
ATOM     20  C   UNL     1       1.881   4.718  20.144  0.00  0.00    +0.000 A 
ENDBRANCH  14  15
ENDBRANCH  12  14
ENDBRANCH   1  12
TORSDOF 5
ENDMDL
MODEL 3
REMARK VINA RESULT:      -7.8      0.801      1.047
REMARK  Name = 
REMARK  5 active torsions:
REMARK  status: ('A' for Active; 'I' for Inactive)
REMARK    1  A    between atoms: C_2  and  C_3
REMARK    2  A    between atoms: C_2  and  C_13
REMARK    3  A    between atoms: C_3  and  N_4
REMARK    4  A    between atoms: C_6  and  C_7
REMARK    5  A    between atoms: N_9  and  O_10
REMARK                            x       y       z     vdW  Elec       q    Type
REMARK                         _______ _______ _______ _____ _____    ______ ____
ROOT
ATOM      1  N   UNL     1       6.163   4.610  18.068  0.00  0.00    +0.000 N 
ATOM      2  C   UNL     1       5.710   4.745  16.789  0.00  0.00    +0.000 A 
ATOM      3  C   UNL     1       6.847   4.637  16.015  0.00  0.00    +0.000 A 
ATOM      4  N   UNL     1       7.936   4.501  16.845  0.00  0.00    +0.000 NA
ATOM      5  N   UNL     1       7.506   4.509  18.100  0.00  0.00    +0.000 NA
ENDROOT
BRANCH   3   6
ATOM      6  C   UNL     1       6.938   4.664  14.568  0.00  0.00    +0.000 C 
ATOM      7  O   UNL     1       6.225   3.994  13.822  0.00  0.00    +0.000 OA
ATOM      8  N   UNL     1       7.900   5.515  14.085  0.00  0.00    +0.000 N 
ATOM      9  H   UNL     1       8.522   6.051  14.682  0.00  0.00    +0.000 HD
BRANCH   8  10
ATOM     10  O   UNL     1       8.073   5.592  12.687  0.00  0.00    +0.000 OA
ATOM     11  H   UNL     1       8.860   6.172  12.604  0.00  0.00    +0.000 HD
ENDBRANCH   8  10
ENDBRANCH   3   6
BRANCH   1  12
ATOM     12  C   UNL     1       5.418   4.708  19.309  0.00  0.00    +0.000 C 
BRANCH  12  14
ATOM     13  O   UNL     1       3.826   6.485  18.882  0.00  0.00    +0.000 OA
ATOM     14  C   UNL     1       4.038   5.300  19.130  0.00  0.00    +0.000 C 
BRANCH  14  15
ATOM     15  C   UNL     1       2.870   4.399  19.337  0.00  0.00    +0.000 A 
ATOM     16  C   UNL     1       2.186   4.332  20.555  0.00  0.00    +0.000 A 
ATOM     17  C   UNL     1       1.094   3.472  20.694  0.00  0.00    +0.000 A 
ATOM     18  C   UNL     1       0.680   2.684  19.621  0.00  0.00    +0.000 A 
ATOM     19  C   UNL     1       1.361   2.745  18.406  0.00  0.00    +0.000 A 
ATOM     20  C   UNL     1       2.459   3.595  18.266  0.00  0.00    +0.000 A 
ENDBRANCH  14  15
ENDBRANCH  12  14
ENDBRANCH   1  12
TORSDOF 5
ENDMDL
MODEL 4
REMARK VINA RESULT:      -7.8      1.899      2.120
REMARK  Name = 
REMARK  5 active torsions:
REMARK  status: ('A' for Active; 'I' for Inactive)
REMARK    1  A    between atoms: C_2  and  C_3
REMARK    2  A    between atoms: C_2  and  C_13
REMARK    3  A    between atoms: C_3  and  N_4
REMARK    4  A    between atoms: C_6  and  C_7
REMARK    5  A    between atoms: N_9  and  O_10
REMARK                            x       y       z     vdW  Elec       q    Type
REMARK                         _______ _______ _______ _____ _____    ______ ____
ROOT
ATOM      1  N   UNL     1       6.044   5.340  16.121  0.00  0.00    +0.000 N 
ATOM      2  C   UNL     1       5.573   4.622  15.062  0.00  0.00    +0.000 A 
ATOM      3  C   UNL     1       6.628   4.603  14.173  0.00  0.00    +0.000 A 
ATOM      4  N   UNL     1       7.661   5.347  14.695  0.00  0.00    +0.000 NA
ATOM      5  N   UNL     1       7.282   5.811  15.878  0.00  0.00    +0.000 NA
ENDROOT
BRANCH   3   6
ATOM      6  C   UNL     1       6.689   3.935  12.887  0.00  0.00    +0.000 C 
ATOM      7  O   UNL     1       7.301   4.372  11.913  0.00  0.00    +0.000 OA
ATOM      8  N   UNL     1       5.997   2.751  12.840  0.00  0.00    +0.000 N 
ATOM      9  H   UNL     1       5.456   2.388  13.619  0.00  0.00    +0.000 HD
BRANCH   8  10
ATOM     10  O   UNL     1       5.984   2.040  11.621  0.00  0.00    +0.000 OA
ATOM     11  H   UNL     1       5.649   1.159  11.894  0.00  0.00    +0.000 HD
ENDBRANCH   8  10
ENDBRANCH   3   6
BRANCH   1  12
ATOM     12  C   UNL     1       5.344   5.741  17.327  0.00  0.00    +0.000 C 
BRANCH  12  14
ATOM     13  O   UNL     1       6.072   4.166  19.019  0.00  0.00    +0.000 OA
ATOM     14  C   UNL     1       5.167   4.611  18.317  0.00  0.00    +0.000 C 
BRANCH  14  15
ATOM     15  C   UNL     1       3.830   3.960  18.386  0.00  0.00    +0.000 A 
ATOM     16  C   UNL     1       3.638   2.713  18.992  0.00  0.00    +0.000 A 
ATOM     17  C   UNL     1       2.360   2.149  19.032  0.00  0.00    +0.000 A 
ATOM     18  C   UNL     1       1.276   2.826  18.477  0.00  0.00    +0.000 A 
ATOM     19  C   UNL     1       1.464   4.066  17.869  0.00  0.00    +0.000 A 
ATOM     20  C   UNL     1       2.739   4.629  17.817  0.00  0.00    +0.000 A 
ENDBRANCH  14  15
ENDBRANCH  12  14
ENDBRANCH   1  12
TORSDOF 5
ENDMDL
MODEL 5
REMARK VINA RESULT:      -7.7      1.866      2.147
REMARK  Name = 
REMARK  5 active torsions:
REMARK  status: ('A' for Active; 'I' for Inactive)
REMARK    1  A    between atoms: C_2  and  C_3
REMARK    2  A    between atoms: C_2  and  C_13
REMARK    3  A    between atoms: C_3  and  N_4
REMARK    4  A    between atoms: C_6  and  C_7
REMARK    5  A    between atoms: N_9  and  O_10
REMARK                            x       y       z     vdW  Elec       q    Type
REMARK                         _______ _______ _______ _____ _____    ______ ____
ROOT
ATOM      1  N   UNL     1       6.095   5.486  16.147  0.00  0.00    +0.000 N 
ATOM      2  C   UNL     1       5.619   4.779  15.082  0.00  0.00    +0.000 A 
ATOM      3  C   UNL     1       6.690   4.714  14.215  0.00  0.00    +0.000 A 
ATOM      4  N   UNL     1       7.740   5.423  14.753  0.00  0.00    +0.000 NA
ATOM      5  N   UNL     1       7.355   5.909  15.925  0.00  0.00    +0.000 NA
ENDROOT
BRANCH   3   6
ATOM      6  C   UNL     1       6.752   4.035  12.935  0.00  0.00    +0.000 C 
ATOM      7  O   UNL     1       7.346   4.475  11.951  0.00  0.00    +0.000 OA
ATOM      8  N   UNL     1       6.083   2.837  12.906  0.00  0.00    +0.000 N 
ATOM      9  H   UNL     1       5.558   2.471  13.693  0.00  0.00    +0.000 HD
BRANCH   8  10
ATOM     10  O   UNL     1       6.073   2.115  11.693  0.00  0.00    +0.000 OA
ATOM     11  H   UNL     1       5.572   2.711  11.097  0.00  0.00    +0.000 HD
ENDBRANCH   8  10
ENDBRANCH   3   6
BRANCH   1  12
ATOM     12  C   UNL     1       5.386   5.921  17.336  0.00  0.00    +0.000 C 
BRANCH  12  14
ATOM     13  O   UNL     1       6.057   4.430  19.124  0.00  0.00    +0.000 OA
ATOM     14  C   UNL     1       5.186   4.816  18.348  0.00  0.00    +0.000 C 
BRANCH  14  15
ATOM     15  C   UNL     1       3.874   4.111  18.347  0.00  0.00    +0.000 A 
ATOM     16  C   UNL     1       2.684   4.751  17.986  0.00  0.00    +0.000 A 
ATOM     17  C   UNL     1       1.480   4.041  18.000  0.00  0.00    +0.000 A 
ATOM     18  C   UNL     1       1.462   2.696  18.366  0.00  0.00    +0.000 A 
ATOM     19  C   UNL     1       2.646   2.056  18.731  0.00  0.00    +0.000 A 
ATOM     20  C   UNL     1       3.848   2.763  18.729  0.00  0.00    +0.000 A 
ENDBRANCH  14  15
ENDBRANCH  12  14
ENDBRANCH   1  12
TORSDOF 5
ENDMDL
MODEL 6
REMARK VINA RESULT:      -7.6      1.604      1.824
REMARK  Name = 
REMARK  5 active torsions:
REMARK  status: ('A' for Active; 'I' for Inactive)
REMARK    1  A    between atoms: C_2  and  C_3
REMARK    2  A    between atoms: C_2  and  C_13
REMARK    3  A    between atoms: C_3  and  N_4
REMARK    4  A    between atoms: C_6  and  C_7
REMARK    5  A    between atoms: N_9  and  O_10
REMARK                            x       y       z     vdW  Elec       q    Type
REMARK                         _______ _______ _______ _____ _____    ______ ____
ROOT
ATOM      1  N   UNL     1       6.232   4.628  17.995  0.00  0.00    +0.000 N 
ATOM      2  C   UNL     1       5.788   4.822  16.721  0.00  0.00    +0.000 A 
ATOM      3  C   UNL     1       6.901   4.595  15.938  0.00  0.00    +0.000 A 
ATOM      4  N   UNL     1       7.974   4.331  16.758  0.00  0.00    +0.000 NA
ATOM      5  N   UNL     1       7.555   4.377  18.016  0.00  0.00    +0.000 NA
ENDROOT
BRANCH   3   6
ATOM      6  C   UNL     1       6.984   4.624  14.490  0.00  0.00    +0.000 C 
ATOM      7  O   UNL     1       6.303   3.917  13.748  0.00  0.00    +0.000 OA
ATOM      8  N   UNL     1       7.900   5.521  14.002  0.00  0.00    +0.000 N 
ATOM      9  H   UNL     1       8.498   6.089  14.595  0.00  0.00    +0.000 HD
BRANCH   8  10
ATOM     10  O   UNL     1       8.064   5.604  12.602  0.00  0.00    +0.000 OA
ATOM     11  H   UNL     1       8.215   4.668  12.352  0.00  0.00    +0.000 HD
ENDBRANCH   8  10
ENDBRANCH   3   6
BRANCH   1  12
ATOM     12  C   UNL     1       5.510   4.798  19.243  0.00  0.00    +0.000 C 
BRANCH  12  14
ATOM     13  O   UNL     1       5.259   2.446  19.773  0.00  0.00    +0.000 OA
ATOM     14  C   UNL     1       4.751   3.560  19.664  0.00  0.00    +0.000 C 
BRANCH  14  15
ATOM     15  C   UNL     1       3.285   3.696  19.891  0.00  0.00    +0.000 A 
ATOM     16  C   UNL     1       2.704   4.897  20.311  0.00  0.00    +0.000 A 
ATOM     17  C   UNL     1       1.322   4.971  20.506  0.00  0.00    +0.000 A 
ATOM     18  C   UNL     1       0.520   3.853  20.278  0.00  0.00    +0.000 A 
ATOM     19  C   UNL     1       1.097   2.653  19.864  0.00  0.00    +0.000 A 
ATOM     20  C   UNL     1       2.476   2.571  19.678  0.00  0.00    +0.000 A 
ENDBRANCH  14  15
ENDBRANCH  12  14
ENDBRANCH   1  12
TORSDOF 5
ENDMDL
MODEL 7
REMARK VINA RESULT:      -7.5      1.549      1.718
REMARK  Name = 
REMARK  5 active torsions:
REMARK  status: ('A' for Active; 'I' for Inactive)
REMARK    1  A    between atoms: C_2  and  C_3
REMARK    2  A    between atoms: C_2  and  C_13
REMARK    3  A    between atoms: C_3  and  N_4
REMARK    4  A    between atoms: C_6  and  C_7
REMARK    5  A    between atoms: N_9  and  O_10
REMARK                            x       y       z     vdW  Elec       q    Type
REMARK                         _______ _______ _______ _____ _____    ______ ____
ROOT
ATOM      1  N   UNL     1       5.874   5.570  16.288  0.00  0.00    +0.000 N 
ATOM      2  C   UNL     1       5.486   4.904  15.164  0.00  0.00    +0.000 A 
ATOM      3  C   UNL     1       6.633   4.832  14.401  0.00  0.00    +0.000 A 
ATOM      4  N   UNL     1       7.644   5.497  15.057  0.00  0.00    +0.000 NA
ATOM      5  N   UNL     1       7.160   5.964  16.200  0.00  0.00    +0.000 NA
ENDROOT
BRANCH   3   6
ATOM      6  C   UNL     1       6.800   4.184  13.114  0.00  0.00    +0.000 C 
ATOM      7  O   UNL     1       7.424   4.675  12.173  0.00  0.00    +0.000 OA
ATOM      8  N   UNL     1       6.198   2.955  13.025  0.00  0.00    +0.000 N 
ATOM      9  H   UNL     1       5.649   2.546  13.775  0.00  0.00    +0.000 HD
BRANCH   8  10
ATOM     10  O   UNL     1       6.292   2.259  11.801  0.00  0.00    +0.000 OA
ATOM     11  H   UNL     1       5.576   1.593  11.881  0.00  0.00    +0.000 HD
ENDBRANCH   8  10
ENDBRANCH   3   6
BRANCH   1  12
ATOM     12  C   UNL     1       5.066   5.994  17.416  0.00  0.00    +0.000 C 
BRANCH  12  14
ATOM     13  O   UNL     1       5.896   4.357  18.999  0.00  0.00    +0.000 OA
ATOM     14  C   UNL     1       4.940   4.936  18.489  0.00  0.00    +0.000 C 
BRANCH  14  15
ATOM     15  C   UNL     1       3.566   4.528  18.895  0.00  0.00    +0.000 A 
ATOM     16  C   UNL     1       3.075   4.745  20.187  0.00  0.00    +0.000 A 
ATOM     17  C   UNL     1       1.777   4.346  20.514  0.00  0.00    +0.000 A 
ATOM     18  C   UNL     1       0.967   3.738  19.555  0.00  0.00    +0.000 A 
ATOM     19  C   UNL     1       1.454   3.517  18.268  0.00  0.00    +0.000 A 
ATOM     20  C   UNL     1       2.753   3.903  17.940  0.00  0.00    +0.000 A 
ENDBRANCH  14  15
ENDBRANCH  12  14
ENDBRANCH   1  12
TORSDOF 5
ENDMDL
MODEL 8
REMARK VINA RESULT:      -7.4      1.610      2.036
REMARK  Name = 
REMARK  5 active torsions:
REMARK  status: ('A' for Active; 'I' for Inactive)
REMARK    1  A    between atoms: C_2  and  C_3
REMARK    2  A    between atoms: C_2  and  C_13
REMARK    3  A    between atoms: C_3  and  N_4
REMARK    4  A    between atoms: C_6  and  C_7
REMARK    5  A    between atoms: N_9  and  O_10
REMARK                            x       y       z     vdW  Elec       q    Type
REMARK                         _______ _______ _______ _____ _____    ______ ____
ROOT
ATOM      1  N   UNL     1       5.834   5.414  16.340  0.00  0.00    +0.000 N 
ATOM      2  C   UNL     1       5.464   4.737  15.216  0.00  0.00    +0.000 A 
ATOM      3  C   UNL     1       6.599   4.740  14.431  0.00  0.00    +0.000 A 
ATOM      4  N   UNL     1       7.581   5.458  15.075  0.00  0.00    +0.000 NA
ATOM      5  N   UNL     1       7.093   5.884  16.232  0.00  0.00    +0.000 NA
ENDROOT
BRANCH   3   6
ATOM      6  C   UNL     1       6.780   4.116  13.134  0.00  0.00    +0.000 C 
ATOM      7  O   UNL     1       7.450   4.603  12.225  0.00  0.00    +0.000 OA
ATOM      8  N   UNL     1       6.132   2.914  12.998  0.00  0.00    +0.000 N 
ATOM      9  H   UNL     1       5.545   2.510  13.722  0.00  0.00    +0.000 HD
BRANCH   8  10
ATOM     10  O   UNL     1       6.236   2.243  11.761  0.00  0.00    +0.000 OA
ATOM     11  H   UNL     1       6.960   2.733  11.315  0.00  0.00    +0.000 HD
ENDBRANCH   8  10
ENDBRANCH   3   6
BRANCH   1  12
ATOM     12  C   UNL     1       5.024   5.779  17.487  0.00  0.00    +0.000 C 
BRANCH  12  14
ATOM     13  O   UNL     1       5.966   4.068  18.922  0.00  0.00    +0.000 OA
ATOM     14  C   UNL     1       4.983   4.706  18.552  0.00  0.00    +0.000 C 
BRANCH  14  15
ATOM     15  C   UNL     1       3.655   4.360  19.130  0.00  0.00    +0.000 A 
ATOM     16  C   UNL     1       3.030   3.133  18.883  0.00  0.00    +0.000 A 
ATOM     17  C   UNL     1       1.785   2.859  19.454  0.00  0.00    +0.000 A 
ATOM     18  C   UNL     1       1.165   3.802  20.273  0.00  0.00    +0.000 A 
ATOM     19  C   UNL     1       1.783   5.027  20.518  0.00  0.00    +0.000 A 
ATOM     20  C   UNL     1       3.021   5.310  19.942  0.00  0.00    +0.000 A 
ENDBRANCH  14  15
ENDBRANCH  12  14
ENDBRANCH   1  12
TORSDOF 5
ENDMDL
MODEL 9
REMARK VINA RESULT:      -7.3      1.900      2.740
REMARK  Name = 
REMARK  5 active torsions:
REMARK  status: ('A' for Active; 'I' for Inactive)
REMARK    1  A    between atoms: C_2  and  C_3
REMARK    2  A    between atoms: C_2  and  C_13
REMARK    3  A    between atoms: C_3  and  N_4
REMARK    4  A    between atoms: C_6  and  C_7
REMARK    5  A    between atoms: N_9  and  O_10
REMARK                            x       y       z     vdW  Elec       q    Type
REMARK                         _______ _______ _______ _____ _____    ______ ____
ROOT
ATOM      1  N   UNL     1       4.713   3.574  18.273  0.00  0.00    +0.000 N 
ATOM      2  C   UNL     1       5.069   4.099  17.067  0.00  0.00    +0.000 A 
ATOM      3  C   UNL     1       6.222   4.808  17.335  0.00  0.00    +0.000 A 
ATOM      4  N   UNL     1       6.484   4.733  18.684  0.00  0.00    +0.000 NA
ATOM      5  N   UNL     1       5.540   3.994  19.250  0.00  0.00    +0.000 NA
ENDROOT
BRANCH   3   6
ATOM      6  C   UNL     1       7.053   5.535  16.394  0.00  0.00    +0.000 C 
ATOM      7  O   UNL     1       7.539   6.643  16.620  0.00  0.00    +0.000 OA
ATOM      8  N   UNL     1       7.259   4.878  15.208  0.00  0.00    +0.000 N 
ATOM      9  H   UNL     1       6.840   3.980  14.986  0.00  0.00    +0.000 HD
BRANCH   8  10
ATOM     10  O   UNL     1       8.041   5.519  14.223  0.00  0.00    +0.000 OA
ATOM     11  H   UNL     1       8.150   4.815  13.549  0.00  0.00    +0.000 HD
ENDBRANCH   8  10
ENDBRANCH   3   6
BRANCH   1  12
ATOM     12  C   UNL     1       3.539   2.791  18.610  0.00  0.00    +0.000 C 
BRANCH  12  14
ATOM     13  O   UNL     1       1.301   3.130  17.743  0.00  0.00    +0.000 OA
ATOM     14  C   UNL     1       2.243   3.546  18.413  0.00  0.00    +0.000 C 
BRANCH  14  15
ATOM     15  C   UNL     1       2.140   4.904  19.013  0.00  0.00    +0.000 A 
ATOM     16  C   UNL     1       1.758   5.105  20.344  0.00  0.00    +0.000 A 
ATOM     17  C   UNL     1       1.681   6.402  20.858  0.00  0.00    +0.000 A 
ATOM     18  C   UNL     1       1.990   7.496  20.052  0.00  0.00    +0.000 A 
ATOM     19  C   UNL     1       2.368   7.301  18.724  0.00  0.00    +0.000 A 
ATOM     20  C   UNL     1       2.436   6.009  18.203  0.00  0.00    +0.000 A 
ENDBRANCH  14  15
ENDBRANCH  12  14
ENDBRANCH   1  12
TORSDOF 5
ENDMDL
