MODEL 1
REMARK VINA RESULT:      -7.3      0.000      0.000
REMARK  Name = 
REMARK  7 active torsions:
REMARK  status: ('A' for Active; 'I' for Inactive)
REMARK    1  A    between atoms: C_1  and  O_2
REMARK    2  A    between atoms: O_2  and  C_3
REMARK    3  A    between atoms: C_6  and  N_7
REMARK    4  A    between atoms: C_8  and  C_10
REMARK    5  A    between atoms: C_14  and  N_15
REMARK    6  A    between atoms: C_20  and  O_21
REMARK    7  A    between atoms: O_21  and  C_22
REMARK                            x       y       z     vdW  Elec       q    Type
REMARK                         _______ _______ _______ _____ _____    ______ ____
ROOT
ATOM      1  N   UNL     1       4.430   4.839  16.328  0.00  0.00    +0.000 N 
ATOM      2  C   UNL     1       5.593   5.367  15.786  0.00  0.00    +0.000 C 
ATOM      3  O   UNL     1       6.254   6.291  16.251  0.00  0.00    +0.000 OA
ATOM      4  H   UNL     1       3.991   4.051  15.871  0.00  0.00    +0.000 HD
ENDROOT
BRANCH   1   8
ATOM      5  C   UNL     1       2.382   6.142  19.823  0.00  0.00    +0.000 A 
ATOM      6  C   UNL     1       2.756   7.059  18.838  0.00  0.00    +0.000 A 
ATOM      7  C   UNL     1       3.428   6.646  17.690  0.00  0.00    +0.000 A 
ATOM      8  C   UNL     1       3.796   5.316  17.509  0.00  0.00    +0.000 A 
ATOM      9  C   UNL     1       3.520   4.416  18.545  0.00  0.00    +0.000 A 
ATOM     10  C   UNL     1       2.817   4.813  19.706  0.00  0.00    +0.000 A 
BRANCH   5  12
ATOM     11  C   UNL     1       1.327   7.936  20.947  0.00  0.00    +0.000 C 
ATOM     12  O   UNL     1       1.617   6.537  20.888  0.00  0.00    +0.000 OA
ENDBRANCH   5  12
BRANCH  10  13
ATOM     13  O   UNL     1       2.635   3.775  20.583  0.00  0.00    +0.000 OA
ATOM     14  C   UNL     1       1.357   3.160  20.665  0.00  0.00    +0.000 C 
ENDBRANCH  10  13
ENDBRANCH   1   8
BRANCH   2  15
ATOM     15  C   UNL     1       6.122   4.780  14.531  0.00  0.00    +0.000 A 
ATOM     16  C   UNL     1       7.344   5.306  14.066  0.00  0.00    +0.000 A 
ATOM     17  C   UNL     1       7.859   4.941  12.824  0.00  0.00    +0.000 A 
ATOM     18  C   UNL     1       7.158   4.043  12.028  0.00  0.00    +0.000 A 
ATOM     19  C   UNL     1       5.944   3.506  12.491  0.00  0.00    +0.000 A 
ATOM     20  C   UNL     1       5.414   3.868  13.745  0.00  0.00    +0.000 A 
BRANCH  19  21
ATOM     21  N   UNL     1       5.201   2.583  11.624  0.00  0.00    +0.000 N 
ATOM     22  O   UNL     1       4.095   2.948  11.202  0.00  0.00    +0.000 OA
ATOM     23  O   UNL     1       5.737   1.496  11.359  0.00  0.00    +0.000 OA
ENDBRANCH  19  21
ENDBRANCH   2  15
TORSDOF 5
ENDMDL
MODEL 2
REMARK VINA RESULT:      -7.3      3.159      9.049
REMARK  Name = 
REMARK  7 active torsions:
REMARK  status: ('A' for Active; 'I' for Inactive)
REMARK    1  A    between atoms: C_1  and  O_2
REMARK    2  A    between atoms: O_2  and  C_3
REMARK    3  A    between atoms: C_6  and  N_7
REMARK    4  A    between atoms: C_8  and  C_10
REMARK    5  A    between atoms: C_14  and  N_15
REMARK    6  A    between atoms: C_20  and  O_21
REMARK    7  A    between atoms: O_21  and  C_22
REMARK                            x       y       z     vdW  Elec       q    Type
REMARK                         _______ _______ _______ _____ _____    ______ ____
ROOT
ATOM      1  N   UNL     1       2.889   7.479  18.331  0.00  0.00    +0.000 N 
ATOM      2  C   UNL     1       2.263   7.365  19.564  0.00  0.00    +0.000 C 
ATOM      3  O   UNL     1       2.387   6.436  20.357  0.00  0.00    +0.000 OA
ATOM      4  H   UNL     1       2.735   8.311  17.779  0.00  0.00    +0.000 HD
ENDROOT
BRANCH   1   8
ATOM      5  C   UNL     1       5.517   4.679  16.499  0.00  0.00    +0.000 A 
ATOM      6  C   UNL     1       4.237   4.291  16.896  0.00  0.00    +0.000 A 
ATOM      7  C   UNL     1       3.367   5.198  17.499  0.00  0.00    +0.000 A 
ATOM      8  C   UNL     1       3.762   6.504  17.772  0.00  0.00    +0.000 A 
ATOM      9  C   UNL     1       5.081   6.862  17.475  0.00  0.00    +0.000 A 
ATOM     10  C   UNL     1       5.970   5.962  16.842  0.00  0.00    +0.000 A 
BRANCH   5  12
ATOM     11  C   UNL     1       6.285   3.966  14.378  0.00  0.00    +0.000 C 
ATOM     12  O   UNL     1       6.320   3.817  15.799  0.00  0.00    +0.000 OA
ENDBRANCH   5  12
BRANCH  10  13
ATOM     13  O   UNL     1       7.204   6.519  16.622  0.00  0.00    +0.000 OA
ATOM     14  C   UNL     1       7.638   7.581  17.460  0.00  0.00    +0.000 C 
ENDBRANCH  10  13
ENDBRANCH   1   8
BRANCH   2  15
ATOM     15  C   UNL     1       1.356   8.454  20.002  0.00  0.00    +0.000 A 
ATOM     16  C   UNL     1       1.058   9.439  19.040  0.00  0.00    +0.000 A 
ATOM     17  C   UNL     1       0.342  10.585  19.379  0.00  0.00    +0.000 A 
ATOM     18  C   UNL     1      -0.087  10.762  20.688  0.00  0.00    +0.000 A 
ATOM     19  C   UNL     1       0.197   9.778  21.651  0.00  0.00    +0.000 A 
ATOM     20  C   UNL     1       0.920   8.616  21.320  0.00  0.00    +0.000 A 
BRANCH  19  21
ATOM     21  N   UNL     1      -0.236   9.997  23.037  0.00  0.00    +0.000 N 
ATOM     22  O   UNL     1      -1.307  10.591  23.223  0.00  0.00    +0.000 OA
ATOM     23  O   UNL     1       0.497   9.560  23.937  0.00  0.00    +0.000 OA
ENDBRANCH  19  21
ENDBRANCH   2  15
TORSDOF 5
ENDMDL
MODEL 3
REMARK VINA RESULT:      -7.3      3.650      8.842
REMARK  Name = 
REMARK  7 active torsions:
REMARK  status: ('A' for Active; 'I' for Inactive)
REMARK    1  A    between atoms: C_1  and  O_2
REMARK    2  A    between atoms: O_2  and  C_3
REMARK    3  A    between atoms: C_6  and  N_7
REMARK    4  A    between atoms: C_8  and  C_10
REMARK    5  A    between atoms: C_14  and  N_15
REMARK    6  A    between atoms: C_20  and  O_21
REMARK    7  A    between atoms: O_21  and  C_22
REMARK                            x       y       z     vdW  Elec       q    Type
REMARK                         _______ _______ _______ _____ _____    ______ ____
ROOT
ATOM      1  N   UNL     1       2.147   7.627  18.988  0.00  0.00    +0.000 N 
ATOM      2  C   UNL     1       1.786   8.871  18.489  0.00  0.00    +0.000 C 
ATOM      3  O   UNL     1       1.988   9.281  17.349  0.00  0.00    +0.000 OA
ATOM      4  H   UNL     1       1.895   7.389  19.937  0.00  0.00    +0.000 HD
ENDROOT
BRANCH   1   8
ATOM      5  C   UNL     1       4.232   4.529  16.949  0.00  0.00    +0.000 A 
ATOM      6  C   UNL     1       4.798   5.799  17.074  0.00  0.00    +0.000 A 
ATOM      7  C   UNL     1       4.125   6.823  17.738  0.00  0.00    +0.000 A 
ATOM      8  C   UNL     1       2.846   6.630  18.252  0.00  0.00    +0.000 A 
ATOM      9  C   UNL     1       2.234   5.392  18.030  0.00  0.00    +0.000 A 
ATOM     10  C   UNL     1       2.911   4.334  17.380  0.00  0.00    +0.000 A 
BRANCH   5  12
ATOM     11  C   UNL     1       6.033   3.888  15.554  0.00  0.00    +0.000 C 
ATOM     12  O   UNL     1       4.949   3.498  16.402  0.00  0.00    +0.000 OA
ENDBRANCH   5  12
BRANCH  10  13
ATOM     13  O   UNL     1       2.140   3.204  17.285  0.00  0.00    +0.000 OA
ATOM     14  C   UNL     1       2.081   2.316  18.392  0.00  0.00    +0.000 C 
ENDBRANCH  10  13
ENDBRANCH   1   8
BRANCH   2  15
ATOM     15  C   UNL     1       1.082   9.818  19.387  0.00  0.00    +0.000 A 
ATOM     16  C   UNL     1       0.971  11.145  18.925  0.00  0.00    +0.000 A 
ATOM     17  C   UNL     1       0.466  12.153  19.743  0.00  0.00    +0.000 A 
ATOM     18  C   UNL     1       0.064  11.847  21.038  0.00  0.00    +0.000 A 
ATOM     19  C   UNL     1       0.161  10.524  21.501  0.00  0.00    +0.000 A 
ATOM     20  C   UNL     1       0.670   9.497  20.682  0.00  0.00    +0.000 A 
BRANCH  19  21
ATOM     21  N   UNL     1      -0.238  10.225  22.882  0.00  0.00    +0.000 N 
ATOM     22  O   UNL     1      -1.366  10.580  23.249  0.00  0.00    +0.000 OA
ATOM     23  O   UNL     1       0.581   9.622  23.593  0.00  0.00    +0.000 OA
ENDBRANCH  19  21
ENDBRANCH   2  15
TORSDOF 5
ENDMDL
MODEL 4
REMARK VINA RESULT:      -7.3      6.289      8.646
REMARK  Name = 
REMARK  7 active torsions:
REMARK  status: ('A' for Active; 'I' for Inactive)
REMARK    1  A    between atoms: C_1  and  O_2
REMARK    2  A    between atoms: O_2  and  C_3
REMARK    3  A    between atoms: C_6  and  N_7
REMARK    4  A    between atoms: C_8  and  C_10
REMARK    5  A    between atoms: C_14  and  N_15
REMARK    6  A    between atoms: C_20  and  O_21
REMARK    7  A    between atoms: O_21  and  C_22
REMARK                            x       y       z     vdW  Elec       q    Type
REMARK                         _______ _______ _______ _____ _____    ______ ____
ROOT
ATOM      1  N   UNL     1       8.682   8.071  18.794  0.00  0.00    +0.000 N 
ATOM      2  C   UNL     1       8.484   9.378  18.367  0.00  0.00    +0.000 C 
ATOM      3  O   UNL     1       7.583   9.771  17.632  0.00  0.00    +0.000 OA
ATOM      4  H   UNL     1       9.443   7.875  19.429  0.00  0.00    +0.000 HD
ENDROOT
BRANCH   1   8
ATOM      5  C   UNL     1       6.129   4.885  17.598  0.00  0.00    +0.000 A 
ATOM      6  C   UNL     1       6.613   4.951  18.905  0.00  0.00    +0.000 A 
ATOM      7  C   UNL     1       7.451   5.988  19.310  0.00  0.00    +0.000 A 
ATOM      8  C   UNL     1       7.876   6.963  18.412  0.00  0.00    +0.000 A 
ATOM      9  C   UNL     1       7.481   6.836  17.076  0.00  0.00    +0.000 A 
ATOM     10  C   UNL     1       6.611   5.804  16.653  0.00  0.00    +0.000 A 
BRANCH   5  12
ATOM     11  C   UNL     1       3.845   4.276  17.491  0.00  0.00    +0.000 C 
ATOM     12  O   UNL     1       5.211   3.933  17.242  0.00  0.00    +0.000 OA
ENDBRANCH   5  12
BRANCH  10  13
ATOM     13  O   UNL     1       6.334   5.875  15.312  0.00  0.00    +0.000 OA
ATOM     14  C   UNL     1       6.878   4.891  14.444  0.00  0.00    +0.000 C 
ENDBRANCH  10  13
ENDBRANCH   1   8
BRANCH   2  15
ATOM     15  C   UNL     1       9.426  10.425  18.829  0.00  0.00    +0.000 A 
ATOM     16  C   UNL     1       9.480  10.643  20.220  0.00  0.00    +0.000 A 
ATOM     17  C   UNL     1      10.212  11.699  20.757  0.00  0.00    +0.000 A 
ATOM     18  C   UNL     1      10.904  12.555  19.908  0.00  0.00    +0.000 A 
ATOM     19  C   UNL     1      10.865  12.336  18.520  0.00  0.00    +0.000 A 
ATOM     20  C   UNL     1      10.127  11.271  17.966  0.00  0.00    +0.000 A 
BRANCH  19  21
ATOM     21  N   UNL     1      11.576  13.268  17.635  0.00  0.00    +0.000 N 
ATOM     22  O   UNL     1      11.375  13.177  16.417  0.00  0.00    +0.000 OA
ATOM     23  O   UNL     1      12.327  14.098  18.170  0.00  0.00    +0.000 OA
ENDBRANCH  19  21
ENDBRANCH   2  15
TORSDOF 5
ENDMDL
MODEL 5
REMARK VINA RESULT:      -7.2      3.326      8.606
REMARK  Name = 
REMARK  7 active torsions:
REMARK  status: ('A' for Active; 'I' for Inactive)
REMARK    1  A    between atoms: C_1  and  O_2
REMARK    2  A    between atoms: O_2  and  C_3
REMARK    3  A    between atoms: C_6  and  N_7
REMARK    4  A    between atoms: C_8  and  C_10
REMARK    5  A    between atoms: C_14  and  N_15
REMARK    6  A    between atoms: C_20  and  O_21
REMARK    7  A    between atoms: O_21  and  C_22
REMARK                            x       y       z     vdW  Elec       q    Type
REMARK                         _______ _______ _______ _____ _____    ______ ____
ROOT
ATOM      1  N   UNL     1       3.183   6.751  18.645  0.00  0.00    +0.000 N 
ATOM      2  C   UNL     1       2.549   7.922  18.253  0.00  0.00    +0.000 C 
ATOM      3  O   UNL     1       2.658   8.475  17.163  0.00  0.00    +0.000 OA
ATOM      4  H   UNL     1       2.987   6.372  19.561  0.00  0.00    +0.000 HD
ENDROOT
BRANCH   1   8
ATOM      5  C   UNL     1       5.914   4.702  16.105  0.00  0.00    +0.000 A 
ATOM      6  C   UNL     1       4.689   4.123  16.441  0.00  0.00    +0.000 A 
ATOM      7  C   UNL     1       3.786   4.782  17.273  0.00  0.00    +0.000 A 
ATOM      8  C   UNL     1       4.096   6.015  17.839  0.00  0.00    +0.000 A 
ATOM      9  C   UNL     1       5.367   6.545  17.592  0.00  0.00    +0.000 A 
ATOM     10  C   UNL     1       6.286   5.902  16.731  0.00  0.00    +0.000 A 
BRANCH   5  12
ATOM     11  C   UNL     1       6.205   3.975  13.873  0.00  0.00    +0.000 C 
ATOM     12  O   UNL     1       6.741   4.103  15.192  0.00  0.00    +0.000 OA
ENDBRANCH   5  12
BRANCH  10  13
ATOM     13  O   UNL     1       7.461   6.599  16.611  0.00  0.00    +0.000 OA
ATOM     14  C   UNL     1       7.710   7.685  17.492  0.00  0.00    +0.000 C 
ENDBRANCH  10  13
ENDBRANCH   1   8
BRANCH   2  15
ATOM     15  C   UNL     1       1.642   8.594  19.216  0.00  0.00    +0.000 A 
ATOM     16  C   UNL     1       1.595   8.044  20.512  0.00  0.00    +0.000 A 
ATOM     17  C   UNL     1       0.672   8.494  21.453  0.00  0.00    +0.000 A 
ATOM     18  C   UNL     1      -0.219   9.504  21.110  0.00  0.00    +0.000 A 
ATOM     19  C   UNL     1      -0.169  10.066  19.823  0.00  0.00    +0.000 A 
ATOM     20  C   UNL     1       0.760   9.618  18.863  0.00  0.00    +0.000 A 
BRANCH  19  21
ATOM     21  N   UNL     1      -1.139  11.110  19.467  0.00  0.00    +0.000 N 
ATOM     22  O   UNL     1      -1.736  11.003  18.387  0.00  0.00    +0.000 OA
ATOM     23  O   UNL     1      -1.306  12.031  20.281  0.00  0.00    +0.000 OA
ENDBRANCH  19  21
ENDBRANCH   2  15
TORSDOF 5
ENDMDL
MODEL 6
REMARK VINA RESULT:      -7.2      3.346      8.845
REMARK  Name = 
REMARK  7 active torsions:
REMARK  status: ('A' for Active; 'I' for Inactive)
REMARK    1  A    between atoms: C_1  and  O_2
REMARK    2  A    between atoms: O_2  and  C_3
REMARK    3  A    between atoms: C_6  and  N_7
REMARK    4  A    between atoms: C_8  and  C_10
REMARK    5  A    between atoms: C_14  and  N_15
REMARK    6  A    between atoms: C_20  and  O_21
REMARK    7  A    between atoms: O_21  and  C_22
REMARK                            x       y       z     vdW  Elec       q    Type
REMARK                         _______ _______ _______ _____ _____    ______ ____
ROOT
ATOM      1  N   UNL     1       2.737   7.123  18.603  0.00  0.00    +0.000 N 
ATOM      2  C   UNL     1       2.188   8.305  18.125  0.00  0.00    +0.000 C 
ATOM      3  O   UNL     1       2.417   8.820  17.034  0.00  0.00    +0.000 OA
ATOM      4  H   UNL     1       2.444   6.780  19.508  0.00  0.00    +0.000 HD
ENDROOT
BRANCH   1   8
ATOM      5  C   UNL     1       5.573   4.879  16.362  0.00  0.00    +0.000 A 
ATOM      6  C   UNL     1       4.394   4.282  16.812  0.00  0.00    +0.000 A 
ATOM      7  C   UNL     1       3.458   5.005  17.548  0.00  0.00    +0.000 A 
ATOM      8  C   UNL     1       3.689   6.330  17.905  0.00  0.00    +0.000 A 
ATOM      9  C   UNL     1       4.918   6.896  17.550  0.00  0.00    +0.000 A 
ATOM     10  C   UNL     1       5.869   6.185  16.782  0.00  0.00    +0.000 A 
BRANCH   5  12
ATOM     11  C   UNL     1       5.975   4.023  14.194  0.00  0.00    +0.000 C 
ATOM     12  O   UNL     1       6.429   4.198  15.538  0.00  0.00    +0.000 OA
ENDBRANCH   5  12
BRANCH  10  13
ATOM     13  O   UNL     1       6.993   6.929  16.528  0.00  0.00    +0.000 OA
ATOM     14  C   UNL     1       7.598   7.648  17.593  0.00  0.00    +0.000 C 
ENDBRANCH  10  13
ENDBRANCH   1   8
BRANCH   2  15
ATOM     15  C   UNL     1       1.226   9.039  18.981  0.00  0.00    +0.000 A 
ATOM     16  C   UNL     1       0.304   9.867  18.311  0.00  0.00    +0.000 A 
ATOM     17  C   UNL     1      -0.546  10.717  19.015  0.00  0.00    +0.000 A 
ATOM     18  C   UNL     1      -0.485  10.751  20.403  0.00  0.00    +0.000 A 
ATOM     19  C   UNL     1       0.424   9.919  21.079  0.00  0.00    +0.000 A 
ATOM     20  C   UNL     1       1.287   9.055  20.377  0.00  0.00    +0.000 A 
BRANCH  19  21
ATOM     21  N   UNL     1       0.496   9.990  22.544  0.00  0.00    +0.000 N 
ATOM     22  O   UNL     1      -0.368  10.650  23.135  0.00  0.00    +0.000 OA
ATOM     23  O   UNL     1       1.418   9.371  23.098  0.00  0.00    +0.000 OA
ENDBRANCH  19  21
ENDBRANCH   2  15
TORSDOF 5
ENDMDL
MODEL 7
REMARK VINA RESULT:      -7.1      3.710      6.200
REMARK  Name = 
REMARK  7 active torsions:
REMARK  status: ('A' for Active; 'I' for Inactive)
REMARK    1  A    between atoms: C_1  and  O_2
REMARK    2  A    between atoms: O_2  and  C_3
REMARK    3  A    between atoms: C_6  and  N_7
REMARK    4  A    between atoms: C_8  and  C_10
REMARK    5  A    between atoms: C_14  and  N_15
REMARK    6  A    between atoms: C_20  and  O_21
REMARK    7  A    between atoms: O_21  and  C_22
REMARK                            x       y       z     vdW  Elec       q    Type
REMARK                         _______ _______ _______ _____ _____    ______ ____
ROOT
ATOM      1  N   UNL     1       2.328   8.386  17.516  0.00  0.00    +0.000 N 
ATOM      2  C   UNL     1       2.732   7.345  18.341  0.00  0.00    +0.000 C 
ATOM      3  O   UNL     1       2.444   7.207  19.526  0.00  0.00    +0.000 OA
ATOM      4  H   UNL     1       2.603   8.373  16.543  0.00  0.00    +0.000 HD
ENDROOT
BRANCH   1   8
ATOM      5  C   UNL     1       0.028  11.671  18.939  0.00  0.00    +0.000 A 
ATOM      6  C   UNL     1      -0.602  10.524  18.453  0.00  0.00    +0.000 A 
ATOM      7  C   UNL     1       0.139   9.442  17.982  0.00  0.00    +0.000 A 
ATOM      8  C   UNL     1       1.530   9.487  17.932  0.00  0.00    +0.000 A 
ATOM      9  C   UNL     1       2.157  10.677  18.316  0.00  0.00    +0.000 A 
ATOM     10  C   UNL     1       1.423  11.776  18.819  0.00  0.00    +0.000 A 
BRANCH   5  12
ATOM     11  C   UNL     1      -2.102  12.416  19.648  0.00  0.00    +0.000 C 
ATOM     12  O   UNL     1      -0.703  12.678  19.511  0.00  0.00    +0.000 OA
ENDBRANCH   5  12
BRANCH  10  13
ATOM     13  O   UNL     1       2.231  12.831  19.156  0.00  0.00    +0.000 OA
ATOM     14  C   UNL     1       2.531  13.811  18.171  0.00  0.00    +0.000 C 
ENDBRANCH  10  13
ENDBRANCH   1   8
BRANCH   2  15
ATOM     15  C   UNL     1       3.589   6.278  17.769  0.00  0.00    +0.000 A 
ATOM     16  C   UNL     1       3.016   4.993  17.700  0.00  0.00    +0.000 A 
ATOM     17  C   UNL     1       3.774   3.886  17.323  0.00  0.00    +0.000 A 
ATOM     18  C   UNL     1       5.118   4.050  17.010  0.00  0.00    +0.000 A 
ATOM     19  C   UNL     1       5.692   5.331  17.066  0.00  0.00    +0.000 A 
ATOM     20  C   UNL     1       4.936   6.457  17.445  0.00  0.00    +0.000 A 
BRANCH  19  21
ATOM     21  N   UNL     1       7.121   5.481  16.762  0.00  0.00    +0.000 N 
ATOM     22  O   UNL     1       7.839   4.475  16.838  0.00  0.00    +0.000 OA
ATOM     23  O   UNL     1       7.517   6.611  16.437  0.00  0.00    +0.000 OA
ENDBRANCH  19  21
ENDBRANCH   2  15
TORSDOF 5
ENDMDL
MODEL 8
REMARK VINA RESULT:      -7.0      3.770      6.044
REMARK  Name = 
REMARK  7 active torsions:
REMARK  status: ('A' for Active; 'I' for Inactive)
REMARK    1  A    between atoms: C_1  and  O_2
REMARK    2  A    between atoms: O_2  and  C_3
REMARK    3  A    between atoms: C_6  and  N_7
REMARK    4  A    between atoms: C_8  and  C_10
REMARK    5  A    between atoms: C_14  and  N_15
REMARK    6  A    between atoms: C_20  and  O_21
REMARK    7  A    between atoms: O_21  and  C_22
REMARK                            x       y       z     vdW  Elec       q    Type
REMARK                         _______ _______ _______ _____ _____    ______ ____
ROOT
ATOM      1  N   UNL     1       2.401   8.638  17.555  0.00  0.00    +0.000 N 
ATOM      2  C   UNL     1       2.715   7.532  18.333  0.00  0.00    +0.000 C 
ATOM      3  O   UNL     1       2.357   7.336  19.491  0.00  0.00    +0.000 OA
ATOM      4  H   UNL     1       2.727   8.671  16.599  0.00  0.00    +0.000 HD
ENDROOT
BRANCH   1   8
ATOM      5  C   UNL     1      -0.007  11.952  18.704  0.00  0.00    +0.000 A 
ATOM      6  C   UNL     1       1.384  12.062  18.684  0.00  0.00    +0.000 A 
ATOM      7  C   UNL     1       2.184  10.984  18.311  0.00  0.00    +0.000 A 
ATOM      8  C   UNL     1       1.628   9.747  17.998  0.00  0.00    +0.000 A 
ATOM      9  C   UNL     1       0.243   9.604  18.125  0.00  0.00    +0.000 A 
ATOM     10  C   UNL     1      -0.587  10.694  18.478  0.00  0.00    +0.000 A 
BRANCH   5  12
ATOM     11  C   UNL     1      -0.120  14.309  18.868  0.00  0.00    +0.000 C 
ATOM     12  O   UNL     1      -0.789  13.048  18.954  0.00  0.00    +0.000 OA
ENDBRANCH   5  12
BRANCH  10  13
ATOM     13  O   UNL     1      -1.912  10.344  18.526  0.00  0.00    +0.000 OA
ATOM     14  C   UNL     1      -2.699  10.464  17.349  0.00  0.00    +0.000 C 
ENDBRANCH  10  13
ENDBRANCH   1   8
BRANCH   2  15
ATOM     15  C   UNL     1       3.556   6.463  17.741  0.00  0.00    +0.000 A 
ATOM     16  C   UNL     1       3.030   5.157  17.796  0.00  0.00    +0.000 A 
ATOM     17  C   UNL     1       3.791   4.057  17.409  0.00  0.00    +0.000 A 
ATOM     18  C   UNL     1       5.092   4.247  16.961  0.00  0.00    +0.000 A 
ATOM     19  C   UNL     1       5.620   5.548  16.892  0.00  0.00    +0.000 A 
ATOM     20  C   UNL     1       4.859   6.668  17.281  0.00  0.00    +0.000 A 
BRANCH  19  21
ATOM     21  N   UNL     1       7.007   5.728  16.447  0.00  0.00    +0.000 N 
ATOM     22  O   UNL     1       7.533   6.835  16.623  0.00  0.00    +0.000 OA
ATOM     23  O   UNL     1       7.569   4.751  15.929  0.00  0.00    +0.000 OA
ENDBRANCH  19  21
ENDBRANCH   2  15
TORSDOF 5
ENDMDL
MODEL 9
REMARK VINA RESULT:      -7.0      3.768      8.957
REMARK  Name = 
REMARK  7 active torsions:
REMARK  status: ('A' for Active; 'I' for Inactive)
REMARK    1  A    between atoms: C_1  and  O_2
REMARK    2  A    between atoms: O_2  and  C_3
REMARK    3  A    between atoms: C_6  and  N_7
REMARK    4  A    between atoms: C_8  and  C_10
REMARK    5  A    between atoms: C_14  and  N_15
REMARK    6  A    between atoms: C_20  and  O_21
REMARK    7  A    between atoms: O_21  and  C_22
REMARK                            x       y       z     vdW  Elec       q    Type
REMARK                         _______ _______ _______ _____ _____    ______ ____
ROOT
ATOM      1  N   UNL     1       2.119   7.233  19.534  0.00  0.00    +0.000 N 
ATOM      2  C   UNL     1       1.808   8.425  18.895  0.00  0.00    +0.000 C 
ATOM      3  O   UNL     1       2.056   8.706  17.726  0.00  0.00    +0.000 OA
ATOM      4  H   UNL     1       1.831   7.104  20.494  0.00  0.00    +0.000 HD
ENDROOT
BRANCH   1   8
ATOM      5  C   UNL     1       4.325   4.113  17.663  0.00  0.00    +0.000 A 
ATOM      6  C   UNL     1       2.984   4.324  17.339  0.00  0.00    +0.000 A 
ATOM      7  C   UNL     1       2.250   5.341  17.945  0.00  0.00    +0.000 A 
ATOM      8  C   UNL     1       2.811   6.146  18.931  0.00  0.00    +0.000 A 
ATOM      9  C   UNL     1       4.120   5.865  19.336  0.00  0.00    +0.000 A 
ATOM     10  C   UNL     1       4.889   4.853  18.714  0.00  0.00    +0.000 A 
BRANCH   5  12
ATOM     11  C   UNL     1       5.818   3.711  15.872  0.00  0.00    +0.000 C 
ATOM     12  O   UNL     1       5.072   3.193  16.976  0.00  0.00    +0.000 OA
ENDBRANCH   5  12
BRANCH  10  13
ATOM     13  O   UNL     1       6.149   4.757  19.246  0.00  0.00    +0.000 OA
ATOM     14  C   UNL     1       7.133   5.705  18.859  0.00  0.00    +0.000 C 
ENDBRANCH  10  13
ENDBRANCH   1   8
BRANCH   2  15
ATOM     15  C   UNL     1       1.105   9.480  19.664  0.00  0.00    +0.000 A 
ATOM     16  C   UNL     1       1.082  10.763  19.081  0.00  0.00    +0.000 A 
ATOM     17  C   UNL     1       0.585  11.862  19.777  0.00  0.00    +0.000 A 
ATOM     18  C   UNL     1       0.101  11.694  21.069  0.00  0.00    +0.000 A 
ATOM     19  C   UNL     1       0.109  10.415  21.652  0.00  0.00    +0.000 A 
ATOM     20  C   UNL     1       0.610   9.296  20.958  0.00  0.00    +0.000 A 
BRANCH  19  21
ATOM     21  N   UNL     1      -0.376  10.260  23.030  0.00  0.00    +0.000 N 
ATOM     22  O   UNL     1      -1.484  10.735  23.310  0.00  0.00    +0.000 OA
ATOM     23  O   UNL     1       0.356   9.650  23.825  0.00  0.00    +0.000 OA
ENDBRANCH  19  21
ENDBRANCH   2  15
TORSDOF 5
ENDMDL
