MODEL 1
REMARK VINA RESULT:      -6.6      0.000      0.000
REMARK  Name = 
REMARK  6 active torsions:
REMARK  status: ('A' for Active; 'I' for Inactive)
REMARK    1  A    between atoms: C_2  and  C_3
REMARK    2  A    between atoms: C_6  and  C_7
REMARK    3  A    between atoms: N_17  and  C_18
REMARK    4  A    between atoms: C_18  and  C_19
REMARK    5  A    between atoms: C_19  and  C_20
REMARK    6  A    between atoms: C_20  and  C_21
REMARK                            x       y       z     vdW  Elec       q    Type
REMARK                         _______ _______ _______ _____ _____    ______ ____
ROOT
ATOM      1  O   UNL     1      -1.403  11.688  22.340  0.00  0.00    +0.000 OA
ATOM      2  C   UNL     1      -1.097  11.979  21.182  0.00  0.00    +0.000 C 
ATOM      3  N   UNL     1      -0.755  10.997  20.251  0.00  0.00    +0.000 N 
ATOM      4  C   UNL     1      -0.226  11.282  18.915  0.00  0.00    +0.000 C 
ATOM      5  C   UNL     1       1.295  11.063  18.925  0.00  0.00    +0.000 C 
ATOM      6  N   UNL     1       1.661   9.671  19.272  0.00  0.00    +0.000 NA
ATOM      7  C   UNL     1       1.067   9.342  20.598  0.00  0.00    +0.000 C 
ATOM      8  C   UNL     1      -0.451   9.640  20.724  0.00  0.00    +0.000 C 
ENDROOT
BRANCH   2   9
ATOM      9  C   UNL     1      -1.039  13.446  20.703  0.00  0.00    +0.000 C 
ATOM     10  C   UNL     1      -0.600  14.411  21.806  0.00  0.00    +0.000 C 
ATOM     11  S   UNL     1      -1.648  15.852  21.559  0.00  0.00    +0.000 S 
ATOM     12  C   UNL     1      -3.004  14.834  20.931  0.00  0.00    +0.000 C 
ATOM     13  N   UNL     1      -2.339  13.841  20.075  0.00  0.00    +0.000 NA
ATOM     14  H   UNL     1      -2.108  14.341  19.218  0.00  0.00    +0.000 HD
BRANCH  12  15
ATOM     15  C   UNL     1      -3.918  14.234  21.983  0.00  0.00    +0.000 A 
ATOM     16  C   UNL     1      -3.899  14.674  23.313  0.00  0.00    +0.000 A 
ATOM     17  C   UNL     1      -4.685  14.040  24.276  0.00  0.00    +0.000 A 
ATOM     18  C   UNL     1      -5.460  12.962  23.884  0.00  0.00    +0.000 A 
ATOM     19  N   UNL     1      -5.490  12.487  22.624  0.00  0.00    +0.000 NA
ATOM     20  C   UNL     1      -4.721  13.125  21.709  0.00  0.00    +0.000 A 
ENDBRANCH  12  15
ENDBRANCH   2   9
BRANCH   6  21
ATOM     21  C   UNL     1       1.234   8.699  18.246  0.00  0.00    +0.000 C 
BRANCH  21  22
ATOM     22  C   UNL     1       2.354   7.770  17.755  0.00  0.00    +0.000 C 
BRANCH  22  23
ATOM     23  C   UNL     1       2.977   6.970  18.897  0.00  0.00    +0.000 C 
BRANCH  23  24
ATOM     24  C   UNL     1       2.279   5.650  19.104  0.00  0.00    +0.000 A 
ATOM     25  C   UNL     1       1.882   5.253  20.388  0.00  0.00    +0.000 A 
ATOM     26  C   UNL     1       1.229   4.036  20.579  0.00  0.00    +0.000 A 
ATOM     27  C   UNL     1       0.978   3.201  19.491  0.00  0.00    +0.000 A 
ATOM     28  C   UNL     1       1.382   3.581  18.213  0.00  0.00    +0.000 A 
ATOM     29  C   UNL     1       2.033   4.800  18.020  0.00  0.00    +0.000 A 
ENDBRANCH  23  24
ENDBRANCH  22  23
ENDBRANCH  21  22
ENDBRANCH   6  21
TORSDOF 6
ENDMDL
MODEL 2
REMARK VINA RESULT:      -6.6      1.488      1.930
REMARK  Name = 
REMARK  6 active torsions:
REMARK  status: ('A' for Active; 'I' for Inactive)
REMARK    1  A    between atoms: C_2  and  C_3
REMARK    2  A    between atoms: C_6  and  C_7
REMARK    3  A    between atoms: N_17  and  C_18
REMARK    4  A    between atoms: C_18  and  C_19
REMARK    5  A    between atoms: C_19  and  C_20
REMARK    6  A    between atoms: C_20  and  C_21
REMARK                            x       y       z     vdW  Elec       q    Type
REMARK                         _______ _______ _______ _____ _____    ______ ____
ROOT
ATOM      1  O   UNL     1      -3.072  12.075  18.976  0.00  0.00    +0.000 OA
ATOM      2  C   UNL     1      -1.935  12.437  19.286  0.00  0.00    +0.000 C 
ATOM      3  N   UNL     1      -0.804  11.842  18.726  0.00  0.00    +0.000 N 
ATOM      4  C   UNL     1       0.567  12.109  19.168  0.00  0.00    +0.000 C 
ATOM      5  C   UNL     1       1.037  10.947  20.058  0.00  0.00    +0.000 C 
ATOM      6  N   UNL     1       1.034   9.652  19.341  0.00  0.00    +0.000 NA
ATOM      7  C   UNL     1      -0.339   9.402  18.822  0.00  0.00    +0.000 C 
ATOM      8  C   UNL     1      -0.950  10.571  18.004  0.00  0.00    +0.000 C 
ENDROOT
BRANCH   2   9
ATOM      9  C   UNL     1      -1.696  13.544  20.336  0.00  0.00    +0.000 C 
ATOM     10  C   UNL     1      -1.616  12.998  21.763  0.00  0.00    +0.000 C 
ATOM     11  S   UNL     1      -2.498  14.222  22.742  0.00  0.00    +0.000 S 
ATOM     12  C   UNL     1      -3.600  14.619  21.364  0.00  0.00    +0.000 C 
ATOM     13  N   UNL     1      -2.716  14.630  20.190  0.00  0.00    +0.000 NA
ATOM     14  H   UNL     1      -2.210  15.513  20.246  0.00  0.00    +0.000 HD
BRANCH  12  15
ATOM     15  C   UNL     1      -4.817  13.724  21.216  0.00  0.00    +0.000 A 
ATOM     16  C   UNL     1      -5.654  13.798  20.094  0.00  0.00    +0.000 A 
ATOM     17  C   UNL     1      -6.815  13.028  20.031  0.00  0.00    +0.000 A 
ATOM     18  C   UNL     1      -7.122  12.212  21.106  0.00  0.00    +0.000 A 
ATOM     19  N   UNL     1      -6.362  12.129  22.216  0.00  0.00    +0.000 NA
ATOM     20  C   UNL     1      -5.238  12.884  22.249  0.00  0.00    +0.000 A 
ENDBRANCH  12  15
ENDBRANCH   2   9
BRANCH   6  21
ATOM     21  C   UNL     1       2.028   9.603  18.251  0.00  0.00    +0.000 C 
BRANCH  21  22
ATOM     22  C   UNL     1       2.173   8.224  17.591  0.00  0.00    +0.000 C 
BRANCH  22  23
ATOM     23  C   UNL     1       3.105   7.307  18.381  0.00  0.00    +0.000 C 
BRANCH  23  24
ATOM     24  C   UNL     1       2.405   6.053  18.838  0.00  0.00    +0.000 A 
ATOM     25  C   UNL     1       2.056   5.888  20.184  0.00  0.00    +0.000 A 
ATOM     26  C   UNL     1       1.401   4.732  20.606  0.00  0.00    +0.000 A 
ATOM     27  C   UNL     1       1.100   3.726  19.689  0.00  0.00    +0.000 A 
ATOM     28  C   UNL     1       1.457   3.875  18.350  0.00  0.00    +0.000 A 
ATOM     29  C   UNL     1       2.110   5.034  17.925  0.00  0.00    +0.000 A 
ENDBRANCH  23  24
ENDBRANCH  22  23
ENDBRANCH  21  22
ENDBRANCH   6  21
TORSDOF 6
ENDMDL
MODEL 3
REMARK VINA RESULT:      -6.6      3.451      5.765
REMARK  Name = 
REMARK  6 active torsions:
REMARK  status: ('A' for Active; 'I' for Inactive)
REMARK    1  A    between atoms: C_2  and  C_3
REMARK    2  A    between atoms: C_6  and  C_7
REMARK    3  A    between atoms: N_17  and  C_18
REMARK    4  A    between atoms: C_18  and  C_19
REMARK    5  A    between atoms: C_19  and  C_20
REMARK    6  A    between atoms: C_20  and  C_21
REMARK                            x       y       z     vdW  Elec       q    Type
REMARK                         _______ _______ _______ _____ _____    ______ ____
ROOT
ATOM      1  O   UNL     1       1.692   8.716  19.118  0.00  0.00    +0.000 OA
ATOM      2  C   UNL     1       1.773   7.885  20.025  0.00  0.00    +0.000 C 
ATOM      3  N   UNL     1       2.302   6.613  19.803  0.00  0.00    +0.000 N 
ATOM      4  C   UNL     1       2.277   5.530  20.788  0.00  0.00    +0.000 C 
ATOM      5  C   UNL     1       1.146   4.554  20.425  0.00  0.00    +0.000 C 
ATOM      6  N   UNL     1       1.335   3.947  19.087  0.00  0.00    +0.000 NA
ATOM      7  C   UNL     1       1.436   5.041  18.082  0.00  0.00    +0.000 C 
ATOM      8  C   UNL     1       2.474   6.144  18.421  0.00  0.00    +0.000 C 
ENDROOT
BRANCH   2   9
ATOM      9  C   UNL     1       1.262   8.190  21.451  0.00  0.00    +0.000 C 
ATOM     10  C   UNL     1      -0.263   8.137  21.556  0.00  0.00    +0.000 C 
ATOM     11  S   UNL     1      -0.667   9.514  22.640  0.00  0.00    +0.000 S 
ATOM     12  C   UNL     1       0.746  10.473  22.049  0.00  0.00    +0.000 C 
ATOM     13  N   UNL     1       1.830   9.485  21.941  0.00  0.00    +0.000 NA
ATOM     14  H   UNL     1       2.138   9.323  22.898  0.00  0.00    +0.000 HD
BRANCH  12  15
ATOM     15  C   UNL     1       0.512  11.279  20.785  0.00  0.00    +0.000 A 
ATOM     16  C   UNL     1       1.500  12.121  20.255  0.00  0.00    +0.000 A 
ATOM     17  C   UNL     1       1.222  12.918  19.145  0.00  0.00    +0.000 A 
ATOM     18  C   UNL     1      -0.050  12.867  18.601  0.00  0.00    +0.000 A 
ATOM     19  N   UNL     1      -1.038  12.094  19.092  0.00  0.00    +0.000 NA
ATOM     20  C   UNL     1      -0.739  11.327  20.168  0.00  0.00    +0.000 A 
ENDBRANCH  12  15
ENDBRANCH   2   9
BRANCH   6  21
ATOM     21  C   UNL     1       2.515   3.062  19.026  0.00  0.00    +0.000 C 
BRANCH  21  22
ATOM     22  C   UNL     1       2.956   2.699  17.600  0.00  0.00    +0.000 C 
BRANCH  22  23
ATOM     23  C   UNL     1       4.476   2.643  17.469  0.00  0.00    +0.000 C 
BRANCH  23  24
ATOM     24  C   UNL     1       5.074   4.014  17.280  0.00  0.00    +0.000 A 
ATOM     25  C   UNL     1       5.815   4.610  18.308  0.00  0.00    +0.000 A 
ATOM     26  C   UNL     1       6.375   5.874  18.131  0.00  0.00    +0.000 A 
ATOM     27  C   UNL     1       6.189   6.558  16.931  0.00  0.00    +0.000 A 
ATOM     28  C   UNL     1       5.441   5.979  15.908  0.00  0.00    +0.000 A 
ATOM     29  C   UNL     1       4.883   4.712  16.082  0.00  0.00    +0.000 A 
ENDBRANCH  23  24
ENDBRANCH  22  23
ENDBRANCH  21  22
ENDBRANCH   6  21
TORSDOF 6
ENDMDL
MODEL 4
REMARK VINA RESULT:      -6.5      1.967      2.781
REMARK  Name = 
REMARK  6 active torsions:
REMARK  status: ('A' for Active; 'I' for Inactive)
REMARK    1  A    between atoms: C_2  and  C_3
REMARK    2  A    between atoms: C_6  and  C_7
REMARK    3  A    between atoms: N_17  and  C_18
REMARK    4  A    between atoms: C_18  and  C_19
REMARK    5  A    between atoms: C_19  and  C_20
REMARK    6  A    between atoms: C_20  and  C_21
REMARK                            x       y       z     vdW  Elec       q    Type
REMARK                         _______ _______ _______ _____ _____    ______ ____
ROOT
ATOM      1  O   UNL     1      -0.479  13.763  21.917  0.00  0.00    +0.000 OA
ATOM      2  C   UNL     1      -0.854  12.606  21.718  0.00  0.00    +0.000 C 
ATOM      3  N   UNL     1       0.013  11.636  21.214  0.00  0.00    +0.000 N 
ATOM      4  C   UNL     1      -0.407  10.294  20.802  0.00  0.00    +0.000 C 
ATOM      5  C   UNL     1      -0.509  10.254  19.269  0.00  0.00    +0.000 C 
ATOM      6  N   UNL     1       0.785  10.547  18.611  0.00  0.00    +0.000 NA
ATOM      7  C   UNL     1       1.261  11.879  19.077  0.00  0.00    +0.000 C 
ATOM      8  C   UNL     1       1.288  12.058  20.619  0.00  0.00    +0.000 C 
ENDROOT
BRANCH   2   9
ATOM      9  C   UNL     1      -2.313  12.171  21.982  0.00  0.00    +0.000 C 
ATOM     10  C   UNL     1      -3.323  12.944  21.134  0.00  0.00    +0.000 C 
ATOM     11  S   UNL     1      -4.695  13.236  22.259  0.00  0.00    +0.000 S 
ATOM     12  C   UNL     1      -3.588  13.313  23.686  0.00  0.00    +0.000 C 
ATOM     13  N   UNL     1      -2.618  12.235  23.446  0.00  0.00    +0.000 NA
ATOM     14  H   UNL     1      -3.114  11.375  23.677  0.00  0.00    +0.000 HD
BRANCH  12  15
ATOM     15  C   UNL     1      -2.958  14.667  23.957  0.00  0.00    +0.000 A 
ATOM     16  C   UNL     1      -1.970  14.836  24.937  0.00  0.00    +0.000 A 
ATOM     17  C   UNL     1      -1.477  16.109  25.225  0.00  0.00    +0.000 A 
ATOM     18  C   UNL     1      -2.001  17.189  24.535  0.00  0.00    +0.000 A 
ATOM     19  N   UNL     1      -2.970  17.077  23.605  0.00  0.00    +0.000 NA
ATOM     20  C   UNL     1      -3.427  15.829  23.342  0.00  0.00    +0.000 A 
ENDBRANCH  12  15
ENDBRANCH   2   9
BRANCH   6  21
ATOM     21  C   UNL     1       1.800   9.505  18.862  0.00  0.00    +0.000 C 
BRANCH  21  22
ATOM     22  C   UNL     1       1.783   8.352  17.848  0.00  0.00    +0.000 C 
BRANCH  22  23
ATOM     23  C   UNL     1       2.876   7.324  18.134  0.00  0.00    +0.000 C 
BRANCH  23  24
ATOM     24  C   UNL     1       2.311   6.047  18.701  0.00  0.00    +0.000 A 
ATOM     25  C   UNL     1       1.991   4.978  17.854  0.00  0.00    +0.000 A 
ATOM     26  C   UNL     1       1.476   3.793  18.378  0.00  0.00    +0.000 A 
ATOM     27  C   UNL     1       1.265   3.671  19.750  0.00  0.00    +0.000 A 
ATOM     28  C   UNL     1       1.567   4.734  20.599  0.00  0.00    +0.000 A 
ATOM     29  C   UNL     1       2.086   5.920  20.076  0.00  0.00    +0.000 A 
ENDBRANCH  23  24
ENDBRANCH  22  23
ENDBRANCH  21  22
ENDBRANCH   6  21
TORSDOF 6
ENDMDL
MODEL 5
REMARK VINA RESULT:      -6.4      3.478      6.030
REMARK  Name = 
REMARK  6 active torsions:
REMARK  status: ('A' for Active; 'I' for Inactive)
REMARK    1  A    between atoms: C_2  and  C_3
REMARK    2  A    between atoms: C_6  and  C_7
REMARK    3  A    between atoms: N_17  and  C_18
REMARK    4  A    between atoms: C_18  and  C_19
REMARK    5  A    between atoms: C_19  and  C_20
REMARK    6  A    between atoms: C_20  and  C_21
REMARK                            x       y       z     vdW  Elec       q    Type
REMARK                         _______ _______ _______ _____ _____    ______ ____
ROOT
ATOM      1  O   UNL     1       1.716   8.663  19.131  0.00  0.00    +0.000 OA
ATOM      2  C   UNL     1       1.802   7.844  20.049  0.00  0.00    +0.000 C 
ATOM      3  N   UNL     1       2.362   6.583  19.849  0.00  0.00    +0.000 N 
ATOM      4  C   UNL     1       2.346   5.510  20.846  0.00  0.00    +0.000 C 
ATOM      5  C   UNL     1       1.243   4.505  20.477  0.00  0.00    +0.000 C 
ATOM      6  N   UNL     1       1.465   3.887  19.149  0.00  0.00    +0.000 NA
ATOM      7  C   UNL     1       1.557   4.973  18.133  0.00  0.00    +0.000 C 
ATOM      8  C   UNL     1       2.566   6.102  18.475  0.00  0.00    +0.000 C 
ENDROOT
BRANCH   2   9
ATOM      9  C   UNL     1       1.262   8.154  21.463  0.00  0.00    +0.000 C 
ATOM     10  C   UNL     1      -0.264   8.094  21.540  0.00  0.00    +0.000 C 
ATOM     11  S   UNL     1      -0.695   9.474  22.609  0.00  0.00    +0.000 S 
ATOM     12  C   UNL     1       0.726  10.437  22.041  0.00  0.00    +0.000 C 
ATOM     13  N   UNL     1       1.815   9.454  21.957  0.00  0.00    +0.000 NA
ATOM     14  H   UNL     1       2.106   9.298  22.921  0.00  0.00    +0.000 HD
BRANCH  12  15
ATOM     15  C   UNL     1       0.512  11.236  20.768  0.00  0.00    +0.000 A 
ATOM     16  C   UNL     1       1.510  12.071  20.247  0.00  0.00    +0.000 A 
ATOM     17  C   UNL     1       1.251  12.862  19.128  0.00  0.00    +0.000 A 
ATOM     18  C   UNL     1      -0.014  12.813  18.567  0.00  0.00    +0.000 A 
ATOM     19  N   UNL     1      -1.012  12.048  19.050  0.00  0.00    +0.000 NA
ATOM     20  C   UNL     1      -0.731  11.286  20.134  0.00  0.00    +0.000 A 
ENDBRANCH  12  15
ENDBRANCH   2   9
BRANCH   6  21
ATOM     21  C   UNL     1       2.665   3.028  19.115  0.00  0.00    +0.000 C 
BRANCH  21  22
ATOM     22  C   UNL     1       3.493   3.153  17.828  0.00  0.00    +0.000 C 
BRANCH  22  23
ATOM     23  C   UNL     1       4.883   3.727  18.095  0.00  0.00    +0.000 C 
BRANCH  23  24
ATOM     24  C   UNL     1       5.578   4.130  16.820  0.00  0.00    +0.000 A 
ATOM     25  C   UNL     1       4.905   4.058  15.594  0.00  0.00    +0.000 A 
ATOM     26  C   UNL     1       5.545   4.439  14.415  0.00  0.00    +0.000 A 
ATOM     27  C   UNL     1       6.866   4.883  14.450  0.00  0.00    +0.000 A 
ATOM     28  C   UNL     1       7.549   4.944  15.664  0.00  0.00    +0.000 A 
ATOM     29  C   UNL     1       6.908   4.566  16.845  0.00  0.00    +0.000 A 
ENDBRANCH  23  24
ENDBRANCH  22  23
ENDBRANCH  21  22
ENDBRANCH   6  21
TORSDOF 6
ENDMDL
MODEL 6
REMARK VINA RESULT:      -6.4      3.512      5.762
REMARK  Name = 
REMARK  6 active torsions:
REMARK  status: ('A' for Active; 'I' for Inactive)
REMARK    1  A    between atoms: C_2  and  C_3
REMARK    2  A    between atoms: C_6  and  C_7
REMARK    3  A    between atoms: N_17  and  C_18
REMARK    4  A    between atoms: C_18  and  C_19
REMARK    5  A    between atoms: C_19  and  C_20
REMARK    6  A    between atoms: C_20  and  C_21
REMARK                            x       y       z     vdW  Elec       q    Type
REMARK                         _______ _______ _______ _____ _____    ______ ____
ROOT
ATOM      1  O   UNL     1       1.494   9.035  19.082  0.00  0.00    +0.000 OA
ATOM      2  C   UNL     1       1.685   8.197  19.966  0.00  0.00    +0.000 C 
ATOM      3  N   UNL     1       2.319   6.984  19.694  0.00  0.00    +0.000 N 
ATOM      4  C   UNL     1       2.430   5.884  20.655  0.00  0.00    +0.000 C 
ATOM      5  C   UNL     1       1.380   4.815  20.310  0.00  0.00    +0.000 C 
ATOM      6  N   UNL     1       1.571   4.255  18.952  0.00  0.00    +0.000 NA
ATOM      7  C   UNL     1       1.533   5.374  17.970  0.00  0.00    +0.000 C 
ATOM      8  C   UNL     1       2.479   6.561  18.297  0.00  0.00    +0.000 C 
ENDROOT
BRANCH   2   9
ATOM      9  C   UNL     1       1.204   8.425  21.416  0.00  0.00    +0.000 C 
ATOM     10  C   UNL     1      -0.312   8.289  21.564  0.00  0.00    +0.000 C 
ATOM     11  S   UNL     1      -0.753   9.604  22.708  0.00  0.00    +0.000 S 
ATOM     12  C   UNL     1       0.591  10.657  22.111  0.00  0.00    +0.000 C 
ATOM     13  N   UNL     1       1.719   9.731  21.936  0.00  0.00    +0.000 NA
ATOM     14  H   UNL     1       2.065   9.553  22.877  0.00  0.00    +0.000 HD
BRANCH  12  15
ATOM     15  C   UNL     1       0.276  11.492  20.885  0.00  0.00    +0.000 A 
ATOM     16  C   UNL     1      -0.970  11.423  20.246  0.00  0.00    +0.000 A 
ATOM     17  C   UNL     1      -1.196  12.134  19.067  0.00  0.00    +0.000 A 
ATOM     18  C   UNL     1      -0.158  12.886  18.543  0.00  0.00    +0.000 A 
ATOM     19  N   UNL     1       1.064  12.960  19.107  0.00  0.00    +0.000 NA
ATOM     20  C   UNL     1       1.254  12.264  20.253  0.00  0.00    +0.000 A 
ENDBRANCH  12  15
ENDBRANCH   2   9
BRANCH   6  21
ATOM     21  C   UNL     1       2.823   3.484  18.827  0.00  0.00    +0.000 C 
BRANCH  21  22
ATOM     22  C   UNL     1       3.285   3.265  17.379  0.00  0.00    +0.000 C 
BRANCH  22  23
ATOM     23  C   UNL     1       4.803   3.121  17.279  0.00  0.00    +0.000 C 
BRANCH  23  24
ATOM     24  C   UNL     1       5.494   4.460  17.270  0.00  0.00    +0.000 A 
ATOM     25  C   UNL     1       5.079   5.465  16.387  0.00  0.00    +0.000 A 
ATOM     26  C   UNL     1       5.713   6.707  16.383  0.00  0.00    +0.000 A 
ATOM     27  C   UNL     1       6.774   6.951  17.254  0.00  0.00    +0.000 A 
ATOM     28  C   UNL     1       7.203   5.953  18.126  0.00  0.00    +0.000 A 
ATOM     29  C   UNL     1       6.568   4.710  18.133  0.00  0.00    +0.000 A 
ENDBRANCH  23  24
ENDBRANCH  22  23
ENDBRANCH  21  22
ENDBRANCH   6  21
TORSDOF 6
ENDMDL
MODEL 7
REMARK VINA RESULT:      -6.4      2.550      3.965
REMARK  Name = 
REMARK  6 active torsions:
REMARK  status: ('A' for Active; 'I' for Inactive)
REMARK    1  A    between atoms: C_2  and  C_3
REMARK    2  A    between atoms: C_6  and  C_7
REMARK    3  A    between atoms: N_17  and  C_18
REMARK    4  A    between atoms: C_18  and  C_19
REMARK    5  A    between atoms: C_19  and  C_20
REMARK    6  A    between atoms: C_20  and  C_21
REMARK                            x       y       z     vdW  Elec       q    Type
REMARK                         _______ _______ _______ _____ _____    ______ ____
ROOT
ATOM      1  O   UNL     1       0.958  10.844  21.060  0.00  0.00    +0.000 OA
ATOM      2  C   UNL     1       1.105  10.649  19.852  0.00  0.00    +0.000 C 
ATOM      3  N   UNL     1       1.017   9.369  19.304  0.00  0.00    +0.000 N 
ATOM      4  C   UNL     1       1.341   9.047  17.912  0.00  0.00    +0.000 C 
ATOM      5  C   UNL     1       2.737   8.406  17.863  0.00  0.00    +0.000 C 
ATOM      6  N   UNL     1       2.810   7.152  18.647  0.00  0.00    +0.000 NA
ATOM      7  C   UNL     1       2.411   7.450  20.051  0.00  0.00    +0.000 C 
ATOM      8  C   UNL     1       1.063   8.205  20.200  0.00  0.00    +0.000 C 
ENDROOT
BRANCH   2   9
ATOM      9  C   UNL     1       1.430  11.804  18.879  0.00  0.00    +0.000 C 
ATOM     10  C   UNL     1       2.161  12.962  19.559  0.00  0.00    +0.000 C 
ATOM     11  S   UNL     1       1.425  14.428  18.822  0.00  0.00    +0.000 S 
ATOM     12  C   UNL     1      -0.167  13.597  18.611  0.00  0.00    +0.000 C 
ATOM     13  N   UNL     1       0.192  12.244  18.162  0.00  0.00    +0.000 NA
ATOM     14  H   UNL     1       0.447  12.349  17.180  0.00  0.00    +0.000 HD
BRANCH  12  15
ATOM     15  C   UNL     1      -1.089  13.627  19.815  0.00  0.00    +0.000 A 
ATOM     16  C   UNL     1      -2.087  12.662  20.003  0.00  0.00    +0.000 A 
ATOM     17  C   UNL     1      -2.978  12.769  21.071  0.00  0.00    +0.000 A 
ATOM     18  C   UNL     1      -2.859  13.857  21.918  0.00  0.00    +0.000 A 
ATOM     19  N   UNL     1      -1.934  14.824  21.762  0.00  0.00    +0.000 NA
ATOM     20  C   UNL     1      -1.079  14.691  20.720  0.00  0.00    +0.000 A 
ENDBRANCH  12  15
ENDBRANCH   2   9
BRANCH   6  21
ATOM     21  C   UNL     1       1.975   6.076  18.078  0.00  0.00    +0.000 C 
BRANCH  21  22
ATOM     22  C   UNL     1       2.454   4.659  18.423  0.00  0.00    +0.000 C 
BRANCH  22  23
ATOM     23  C   UNL     1       3.076   3.956  17.218  0.00  0.00    +0.000 C 
BRANCH  23  24
ATOM     24  C   UNL     1       4.562   4.196  17.134  0.00  0.00    +0.000 A 
ATOM     25  C   UNL     1       5.221   4.123  15.900  0.00  0.00    +0.000 A 
ATOM     26  C   UNL     1       6.594   4.353  15.820  0.00  0.00    +0.000 A 
ATOM     27  C   UNL     1       7.321   4.645  16.973  0.00  0.00    +0.000 A 
ATOM     28  C   UNL     1       6.676   4.705  18.207  0.00  0.00    +0.000 A 
ATOM     29  C   UNL     1       5.301   4.479  18.288  0.00  0.00    +0.000 A 
ENDBRANCH  23  24
ENDBRANCH  22  23
ENDBRANCH  21  22
ENDBRANCH   6  21
TORSDOF 6
ENDMDL
MODEL 8
REMARK VINA RESULT:      -6.4      2.084      2.813
REMARK  Name = 
REMARK  6 active torsions:
REMARK  status: ('A' for Active; 'I' for Inactive)
REMARK    1  A    between atoms: C_2  and  C_3
REMARK    2  A    between atoms: C_6  and  C_7
REMARK    3  A    between atoms: N_17  and  C_18
REMARK    4  A    between atoms: C_18  and  C_19
REMARK    5  A    between atoms: C_19  and  C_20
REMARK    6  A    between atoms: C_20  and  C_21
REMARK                            x       y       z     vdW  Elec       q    Type
REMARK                         _______ _______ _______ _____ _____    ______ ____
ROOT
ATOM      1  O   UNL     1      -3.554  12.521  19.647  0.00  0.00    +0.000 OA
ATOM      2  C   UNL     1      -2.451  12.686  20.173  0.00  0.00    +0.000 C 
ATOM      3  N   UNL     1      -1.272  12.319  19.525  0.00  0.00    +0.000 N 
ATOM      4  C   UNL     1       0.051  12.335  20.154  0.00  0.00    +0.000 C 
ATOM      5  C   UNL     1       0.432  10.898  20.546  0.00  0.00    +0.000 C 
ATOM      6  N   UNL     1       0.498   9.994  19.374  0.00  0.00    +0.000 NA
ATOM      7  C   UNL     1      -0.820  10.024  18.681  0.00  0.00    +0.000 C 
ATOM      8  C   UNL     1      -1.349  11.445  18.347  0.00  0.00    +0.000 C 
ENDROOT
BRANCH   2   9
ATOM      9  C   UNL     1      -2.312  13.276  21.595  0.00  0.00    +0.000 C 
ATOM     10  C   UNL     1      -2.832  12.332  22.680  0.00  0.00    +0.000 C 
ATOM     11  S   UNL     1      -3.670  13.425  23.836  0.00  0.00    +0.000 S 
ATOM     12  C   UNL     1      -4.138  14.565  22.514  0.00  0.00    +0.000 C 
ATOM     13  N   UNL     1      -2.943  14.632  21.659  0.00  0.00    +0.000 NA
ATOM     14  H   UNL     1      -2.290  15.232  22.161  0.00  0.00    +0.000 HD
BRANCH  12  15
ATOM     15  C   UNL     1      -5.415  14.222  21.770  0.00  0.00    +0.000 A 
ATOM     16  C   UNL     1      -6.178  13.093  22.099  0.00  0.00    +0.000 A 
ATOM     17  C   UNL     1      -7.296  12.754  21.337  0.00  0.00    +0.000 A 
ATOM     18  C   UNL     1      -7.613  13.545  20.246  0.00  0.00    +0.000 A 
ATOM     19  N   UNL     1      -6.893  14.622  19.875  0.00  0.00    +0.000 NA
ATOM     20  C   UNL     1      -5.816  14.932  20.636  0.00  0.00    +0.000 A 
ENDBRANCH  12  15
ENDBRANCH   2   9
BRANCH   6  21
ATOM     21  C   UNL     1       1.591  10.344  18.447  0.00  0.00    +0.000 C 
BRANCH  21  22
ATOM     22  C   UNL     1       2.247   9.135  17.763  0.00  0.00    +0.000 C 
BRANCH  22  23
ATOM     23  C   UNL     1       2.108   7.862  18.595  0.00  0.00    +0.000 C 
BRANCH  23  24
ATOM     24  C   UNL     1       2.916   6.726  18.022  0.00  0.00    +0.000 A 
ATOM     25  C   UNL     1       2.475   5.404  18.163  0.00  0.00    +0.000 A 
ATOM     26  C   UNL     1       3.218   4.352  17.626  0.00  0.00    +0.000 A 
ATOM     27  C   UNL     1       4.412   4.613  16.956  0.00  0.00    +0.000 A 
ATOM     28  C   UNL     1       4.865   5.924  16.823  0.00  0.00    +0.000 A 
ATOM     29  C   UNL     1       4.121   6.977  17.357  0.00  0.00    +0.000 A 
ENDBRANCH  23  24
ENDBRANCH  22  23
ENDBRANCH  21  22
ENDBRANCH   6  21
TORSDOF 6
ENDMDL
MODEL 9
REMARK VINA RESULT:      -6.4      3.335      5.857
REMARK  Name = 
REMARK  6 active torsions:
REMARK  status: ('A' for Active; 'I' for Inactive)
REMARK    1  A    between atoms: C_2  and  C_3
REMARK    2  A    between atoms: C_6  and  C_7
REMARK    3  A    between atoms: N_17  and  C_18
REMARK    4  A    between atoms: C_18  and  C_19
REMARK    5  A    between atoms: C_19  and  C_20
REMARK    6  A    between atoms: C_20  and  C_21
REMARK                            x       y       z     vdW  Elec       q    Type
REMARK                         _______ _______ _______ _____ _____    ______ ____
ROOT
ATOM      1  O   UNL     1       1.573   8.857  19.057  0.00  0.00    +0.000 OA
ATOM      2  C   UNL     1       1.718   8.052  19.979  0.00  0.00    +0.000 C 
ATOM      3  N   UNL     1       2.333   6.816  19.778  0.00  0.00    +0.000 N 
ATOM      4  C   UNL     1       2.389   5.753  20.785  0.00  0.00    +0.000 C 
ATOM      5  C   UNL     1       1.328   4.694  20.448  0.00  0.00    +0.000 C 
ATOM      6  N   UNL     1       1.551   4.075  19.122  0.00  0.00    +0.000 NA
ATOM      7  C   UNL     1       1.569   5.153  18.094  0.00  0.00    +0.000 C 
ATOM      8  C   UNL     1       2.530   6.332  18.405  0.00  0.00    +0.000 C 
ENDROOT
BRANCH   2   9
ATOM      9  C   UNL     1       1.194   8.349  21.402  0.00  0.00    +0.000 C 
ATOM     10  C   UNL     1      -0.328   8.242  21.507  0.00  0.00    +0.000 C 
ATOM     11  S   UNL     1      -0.782   9.612  22.580  0.00  0.00    +0.000 S 
ATOM     12  C   UNL     1       0.598  10.617  21.984  0.00  0.00    +0.000 C 
ATOM     13  N   UNL     1       1.715   9.667  21.883  0.00  0.00    +0.000 NA
ATOM     14  H   UNL     1       2.028   9.523  22.842  0.00  0.00    +0.000 HD
BRANCH  12  15
ATOM     15  C   UNL     1       0.337  11.405  20.713  0.00  0.00    +0.000 A 
ATOM     16  C   UNL     1       1.336  12.180  20.109  0.00  0.00    +0.000 A 
ATOM     17  C   UNL     1       1.039  12.965  18.995  0.00  0.00    +0.000 A 
ATOM     18  C   UNL     1      -0.262  12.970  18.522  0.00  0.00    +0.000 A 
ATOM     19  N   UNL     1      -1.260  12.263  19.086  0.00  0.00    +0.000 NA
ATOM     20  C   UNL     1      -0.943  11.505  20.164  0.00  0.00    +0.000 A 
ENDBRANCH  12  15
ENDBRANCH   2   9
BRANCH   6  21
ATOM     21  C   UNL     1       2.789   3.273  19.069  0.00  0.00    +0.000 C 
BRANCH  21  22
ATOM     22  C   UNL     1       3.905   3.894  18.215  0.00  0.00    +0.000 C 
BRANCH  22  23
ATOM     23  C   UNL     1       5.214   4.021  18.991  0.00  0.00    +0.000 C 
BRANCH  23  24
ATOM     24  C   UNL     1       6.048   5.176  18.498  0.00  0.00    +0.000 A 
ATOM     25  C   UNL     1       5.679   5.872  17.340  0.00  0.00    +0.000 A 
ATOM     26  C   UNL     1       6.445   6.946  16.888  0.00  0.00    +0.000 A 
ATOM     27  C   UNL     1       7.593   7.324  17.582  0.00  0.00    +0.000 A 
ATOM     28  C   UNL     1       7.977   6.628  18.727  0.00  0.00    +0.000 A 
ATOM     29  C   UNL     1       7.209   5.555  19.182  0.00  0.00    +0.000 A 
ENDBRANCH  23  24
ENDBRANCH  22  23
ENDBRANCH  21  22
ENDBRANCH   6  21
TORSDOF 6
ENDMDL
