MODEL 1
REMARK VINA RESULT:      -9.0      0.000      0.000
REMARK  Name = 
REMARK  11 active torsions:
REMARK  status: ('A' for Active; 'I' for Inactive)
REMARK    1  A    between atoms: C_1  and  C_2
REMARK    2  A    between atoms: C_2  and  C_3
REMARK    3  A    between atoms: C_2  and  N_4
REMARK    4  A    between atoms: C_5  and  C_7
REMARK    5  A    between atoms: C_10  and  N_11
REMARK    6  A    between atoms: C_13  and  C_14
REMARK    7  A    between atoms: C_17  and  C_18
REMARK    8  A    between atoms: N_20  and  C_21
REMARK    9  A    between atoms: C_21  and  C_22
REMARK   10  A    between atoms: C_21  and  C_23
REMARK   11  A    between atoms: C_25  and  O_26
REMARK                            x       y       z     vdW  Elec       q    Type
REMARK                         _______ _______ _______ _____ _____    ______ ____
ROOT
ATOM      1  N   UNL     1       1.352   7.848  20.548  0.00  0.00    +0.000 N 
ATOM      2  C   UNL     1       2.077   7.857  19.426  0.00  0.00    +0.000 A 
ATOM      3  C   UNL     1       2.547   6.581  19.255  0.00  0.00    +0.000 A 
ATOM      4  N   UNL     1       2.076   5.824  20.269  0.00  0.00    +0.000 NA
ATOM      5  N   UNL     1       1.355   6.620  21.041  0.00  0.00    +0.000 NA
ENDROOT
BRANCH   1   9
ATOM      6  C   UNL     1      -0.569  11.186  22.283  0.00  0.00    +0.000 A 
ATOM      7  C   UNL     1      -0.468   9.994  23.012  0.00  0.00    +0.000 A 
ATOM      8  C   UNL     1       0.165   8.895  22.449  0.00  0.00    +0.000 A 
ATOM      9  C   UNL     1       0.694   8.966  21.142  0.00  0.00    +0.000 A 
ATOM     10  C   UNL     1       0.563  10.147  20.411  0.00  0.00    +0.000 A 
ATOM     11  C   UNL     1      -0.057  11.244  20.975  0.00  0.00    +0.000 A 
BRANCH   6  13
ATOM     12  N   UNL     1      -2.626  12.354  23.031  0.00  0.00    +0.000 N 
ATOM     13  C   UNL     1      -1.205  12.371  22.869  0.00  0.00    +0.000 C 
ATOM     14  N   UNL     1      -0.492  13.396  23.200  0.00  0.00    +0.000 NA
ATOM     15  H   UNL     1      -3.159  11.678  22.470  0.00  0.00    +0.000 HD
ATOM     16  H   UNL     1      -0.891  14.252  23.606  0.00  0.00    +0.000 HD
BRANCH  12  18
ATOM     17  C   UNL     1      -4.038  14.305  23.173  0.00  0.00    +0.000 C 
ATOM     18  C   UNL     1      -3.351  13.184  23.958  0.00  0.00    +0.000 C 
ATOM     19  C   UNL     1      -4.402  12.332  24.685  0.00  0.00    +0.000 C 
ENDBRANCH  12  18
ENDBRANCH   6  13
ENDBRANCH   1   9
BRANCH   3  20
ATOM     20  C   UNL     1       3.450   6.087  18.201  0.00  0.00    +0.000 A 
ATOM     21  C   UNL     1       4.204   7.027  17.494  0.00  0.00    +0.000 A 
ATOM     22  C   UNL     1       5.045   6.632  16.463  0.00  0.00    +0.000 A 
ATOM     23  C   UNL     1       5.163   5.275  16.095  0.00  0.00    +0.000 A 
ATOM     24  C   UNL     1       4.410   4.332  16.826  0.00  0.00    +0.000 A 
ATOM     25  C   UNL     1       3.561   4.720  17.863  0.00  0.00    +0.000 A 
BRANCH  23  26
ATOM     26  C   UNL     1       6.090   4.829  14.997  0.00  0.00    +0.000 C 
ATOM     27  N   UNL     1       7.365   4.763  15.178  0.00  0.00    +0.000 NA
ATOM     28  N   UNL     1       5.572   4.448  13.718  0.00  0.00    +0.000 N 
ATOM     29  H   UNL     1       7.856   5.011  16.044  0.00  0.00    +0.000 HD
ATOM     30  H   UNL     1       4.633   4.741  13.418  0.00  0.00    +0.000 HD
BRANCH  28  31
ATOM     31  C   UNL     1       6.302   3.580  12.814  0.00  0.00    +0.000 C 
ATOM     32  C   UNL     1       5.297   2.828  11.941  0.00  0.00    +0.000 C 
ATOM     33  C   UNL     1       7.271   4.395  11.963  0.00  0.00    +0.000 C 
ENDBRANCH  28  31
ENDBRANCH  23  26
BRANCH  25  34
ATOM     34  O   UNL     1       2.858   3.772  18.516  0.00  0.00    +0.000 OA
ATOM     35  H   UNL     1       3.265   3.098  19.078  0.00  0.00    +0.000 HD
ENDBRANCH  25  34
ENDBRANCH   3  20
TORSDOF 7
ENDMDL
MODEL 2
REMARK VINA RESULT:      -8.5      1.367     11.534
REMARK  Name = 
REMARK  11 active torsions:
REMARK  status: ('A' for Active; 'I' for Inactive)
REMARK    1  A    between atoms: C_1  and  C_2
REMARK    2  A    between atoms: C_2  and  C_3
REMARK    3  A    between atoms: C_2  and  N_4
REMARK    4  A    between atoms: C_5  and  C_7
REMARK    5  A    between atoms: C_10  and  N_11
REMARK    6  A    between atoms: C_13  and  C_14
REMARK    7  A    between atoms: C_17  and  C_18
REMARK    8  A    between atoms: N_20  and  C_21
REMARK    9  A    between atoms: C_21  and  C_22
REMARK   10  A    between atoms: C_21  and  C_23
REMARK   11  A    between atoms: C_25  and  O_26
REMARK                            x       y       z     vdW  Elec       q    Type
REMARK                         _______ _______ _______ _____ _____    ______ ____
ROOT
ATOM      1  N   UNL     1       2.918   6.318  18.954  0.00  0.00    +0.000 N 
ATOM      2  C   UNL     1       2.556   7.578  19.209  0.00  0.00    +0.000 A 
ATOM      3  C   UNL     1       1.690   7.528  20.270  0.00  0.00    +0.000 A 
ATOM      4  N   UNL     1       1.564   6.236  20.644  0.00  0.00    +0.000 NA
ATOM      5  N   UNL     1       2.319   5.522  19.826  0.00  0.00    +0.000 NA
ENDROOT
BRANCH   1   9
ATOM      6  C   UNL     1       5.480   5.059  15.840  0.00  0.00    +0.000 A 
ATOM      7  C   UNL     1       4.791   4.100  16.596  0.00  0.00    +0.000 A 
ATOM      8  C   UNL     1       3.946   4.508  17.617  0.00  0.00    +0.000 A 
ATOM      9  C   UNL     1       3.786   5.879  17.910  0.00  0.00    +0.000 A 
ATOM     10  C   UNL     1       4.498   6.826  17.173  0.00  0.00    +0.000 A 
ATOM     11  C   UNL     1       5.331   6.422  16.149  0.00  0.00    +0.000 A 
BRANCH   6  13
ATOM     12  N   UNL     1       5.903   3.599  13.879  0.00  0.00    +0.000 N 
ATOM     13  C   UNL     1       6.354   4.654  14.734  0.00  0.00    +0.000 C 
ATOM     14  N   UNL     1       7.500   5.225  14.567  0.00  0.00    +0.000 NA
ATOM     15  H   UNL     1       5.166   2.979  14.239  0.00  0.00    +0.000 HD
ATOM     16  H   UNL     1       8.151   4.971  13.813  0.00  0.00    +0.000 HD
BRANCH  12  18
ATOM     17  C   UNL     1       5.175   3.076  11.640  0.00  0.00    +0.000 C 
ATOM     18  C   UNL     1       6.377   3.378  12.537  0.00  0.00    +0.000 C 
ATOM     19  C   UNL     1       7.099   4.639  12.041  0.00  0.00    +0.000 C 
ENDBRANCH  12  18
ENDBRANCH   6  13
ENDBRANCH   1   9
BRANCH   3  20
ATOM     20  C   UNL     1       0.958   8.646  20.890  0.00  0.00    +0.000 A 
ATOM     21  C   UNL     1       0.839   8.655  22.282  0.00  0.00    +0.000 A 
ATOM     22  C   UNL     1       0.129   9.659  22.927  0.00  0.00    +0.000 A 
ATOM     23  C   UNL     1      -0.494  10.695  22.201  0.00  0.00    +0.000 A 
ATOM     24  C   UNL     1      -0.354  10.686  20.797  0.00  0.00    +0.000 A 
ATOM     25  C   UNL     1       0.356   9.681  20.140  0.00  0.00    +0.000 A 
BRANCH  23  26
ATOM     26  C   UNL     1      -1.246  11.804  22.888  0.00  0.00    +0.000 C 
ATOM     27  N   UNL     1      -0.724  12.973  23.044  0.00  0.00    +0.000 NA
ATOM     28  N   UNL     1      -2.574  11.590  23.374  0.00  0.00    +0.000 N 
ATOM     29  H   UNL     1       0.218  13.249  22.744  0.00  0.00    +0.000 HD
ATOM     30  H   UNL     1      -2.932  10.640  23.540  0.00  0.00    +0.000 HD
BRANCH  28  31
ATOM     31  C   UNL     1      -3.505  12.682  23.589  0.00  0.00    +0.000 C 
ATOM     32  C   UNL     1      -4.248  12.954  22.280  0.00  0.00    +0.000 C 
ATOM     33  C   UNL     1      -4.477  12.336  24.714  0.00  0.00    +0.000 C 
ENDBRANCH  28  31
ENDBRANCH  23  26
BRANCH  25  34
ATOM     34  O   UNL     1       0.444   9.720  18.795  0.00  0.00    +0.000 OA
ATOM     35  H   UNL     1      -0.106   9.179  18.209  0.00  0.00    +0.000 HD
ENDBRANCH  25  34
ENDBRANCH   3  20
TORSDOF 7
ENDMDL
MODEL 3
REMARK VINA RESULT:      -8.4      0.918      1.599
REMARK  Name = 
REMARK  11 active torsions:
REMARK  status: ('A' for Active; 'I' for Inactive)
REMARK    1  A    between atoms: C_1  and  C_2
REMARK    2  A    between atoms: C_2  and  C_3
REMARK    3  A    between atoms: C_2  and  N_4
REMARK    4  A    between atoms: C_5  and  C_7
REMARK    5  A    between atoms: C_10  and  N_11
REMARK    6  A    between atoms: C_13  and  C_14
REMARK    7  A    between atoms: C_17  and  C_18
REMARK    8  A    between atoms: N_20  and  C_21
REMARK    9  A    between atoms: C_21  and  C_22
REMARK   10  A    between atoms: C_21  and  C_23
REMARK   11  A    between atoms: C_25  and  O_26
REMARK                            x       y       z     vdW  Elec       q    Type
REMARK                         _______ _______ _______ _____ _____    ______ ____
ROOT
ATOM      1  N   UNL     1       1.402   7.787  20.497  0.00  0.00    +0.000 N 
ATOM      2  C   UNL     1       2.091   7.800  19.353  0.00  0.00    +0.000 A 
ATOM      3  C   UNL     1       2.618   6.543  19.202  0.00  0.00    +0.000 A 
ATOM      4  N   UNL     1       2.216   5.794  20.251  0.00  0.00    +0.000 NA
ATOM      5  N   UNL     1       1.481   6.576  21.024  0.00  0.00    +0.000 NA
ENDROOT
BRANCH   1   9
ATOM      6  C   UNL     1      -0.679  11.020  22.249  0.00  0.00    +0.000 A 
ATOM      7  C   UNL     1      -0.123  11.169  20.971  0.00  0.00    +0.000 A 
ATOM      8  C   UNL     1       0.559  10.110  20.390  0.00  0.00    +0.000 A 
ATOM      9  C   UNL     1       0.708   8.889  21.081  0.00  0.00    +0.000 A 
ATOM     10  C   UNL     1       0.178   8.757  22.365  0.00  0.00    +0.000 A 
ATOM     11  C   UNL     1      -0.510   9.807  22.940  0.00  0.00    +0.000 A 
BRANCH   6  13
ATOM     12  N   UNL     1      -0.817  13.405  22.916  0.00  0.00    +0.000 N 
ATOM     13  C   UNL     1      -1.432  12.114  22.871  0.00  0.00    +0.000 C 
ATOM     14  N   UNL     1      -2.599  11.895  23.379  0.00  0.00    +0.000 NA
ATOM     15  H   UNL     1       0.203  13.449  22.802  0.00  0.00    +0.000 HD
ATOM     16  H   UNL     1      -3.161  12.626  23.833  0.00  0.00    +0.000 HD
BRANCH  12  18
ATOM     17  C   UNL     1      -0.548  15.731  23.497  0.00  0.00    +0.000 C 
ATOM     18  C   UNL     1      -1.535  14.645  23.062  0.00  0.00    +0.000 C 
ATOM     19  C   UNL     1      -2.171  15.022  21.716  0.00  0.00    +0.000 C 
ENDBRANCH  12  18
ENDBRANCH   6  13
ENDBRANCH   1   9
BRANCH   3  20
ATOM     20  C   UNL     1       3.512   6.063  18.134  0.00  0.00    +0.000 A 
ATOM     21  C   UNL     1       4.258   7.012  17.432  0.00  0.00    +0.000 A 
ATOM     22  C   UNL     1       5.091   6.631  16.388  0.00  0.00    +0.000 A 
ATOM     23  C   UNL     1       5.206   5.279  16.002  0.00  0.00    +0.000 A 
ATOM     24  C   UNL     1       4.460   4.326  16.728  0.00  0.00    +0.000 A 
ATOM     25  C   UNL     1       3.620   4.700  17.778  0.00  0.00    +0.000 A 
BRANCH  23  26
ATOM     26  C   UNL     1       6.122   4.847  14.889  0.00  0.00    +0.000 C 
ATOM     27  N   UNL     1       7.404   4.870  15.028  0.00  0.00    +0.000 NA
ATOM     28  N   UNL     1       5.588   4.383  13.645  0.00  0.00    +0.000 N 
ATOM     29  H   UNL     1       7.907   5.184  15.866  0.00  0.00    +0.000 HD
ATOM     30  H   UNL     1       4.623   4.603  13.368  0.00  0.00    +0.000 HD
BRANCH  28  31
ATOM     31  C   UNL     1       6.343   3.526  12.751  0.00  0.00    +0.000 C 
ATOM     32  C   UNL     1       5.359   2.695  11.925  0.00  0.00    +0.000 C 
ATOM     33  C   UNL     1       7.248   4.364  11.852  0.00  0.00    +0.000 C 
ENDBRANCH  28  31
ENDBRANCH  23  26
BRANCH  25  34
ATOM     34  O   UNL     1       2.923   3.744  18.425  0.00  0.00    +0.000 OA
ATOM     35  H   UNL     1       2.050   3.893  18.816  0.00  0.00    +0.000 HD
ENDBRANCH  25  34
ENDBRANCH   3  20
TORSDOF 7
ENDMDL
MODEL 4
REMARK VINA RESULT:      -8.0      2.904     12.186
REMARK  Name = 
REMARK  11 active torsions:
REMARK  status: ('A' for Active; 'I' for Inactive)
REMARK    1  A    between atoms: C_1  and  C_2
REMARK    2  A    between atoms: C_2  and  C_3
REMARK    3  A    between atoms: C_2  and  N_4
REMARK    4  A    between atoms: C_5  and  C_7
REMARK    5  A    between atoms: C_10  and  N_11
REMARK    6  A    between atoms: C_13  and  C_14
REMARK    7  A    between atoms: C_17  and  C_18
REMARK    8  A    between atoms: N_20  and  C_21
REMARK    9  A    between atoms: C_21  and  C_22
REMARK   10  A    between atoms: C_21  and  C_23
REMARK   11  A    between atoms: C_25  and  O_26
REMARK                            x       y       z     vdW  Elec       q    Type
REMARK                         _______ _______ _______ _____ _____    ______ ____
ROOT
ATOM      1  N   UNL     1       0.990   9.861  19.475  0.00  0.00    +0.000 N 
ATOM      2  C   UNL     1      -0.127   9.897  20.207  0.00  0.00    +0.000 A 
ATOM      3  C   UNL     1      -0.470  11.218  20.330  0.00  0.00    +0.000 A 
ATOM      4  N   UNL     1       0.438  11.950  19.650  0.00  0.00    +0.000 NA
ATOM      5  N   UNL     1       1.316  11.100  19.143  0.00  0.00    +0.000 NA
ENDROOT
BRANCH   1   9
ATOM      6  C   UNL     1       3.202   6.407  18.463  0.00  0.00    +0.000 A 
ATOM      7  C   UNL     1       3.070   7.440  17.525  0.00  0.00    +0.000 A 
ATOM      8  C   UNL     1       2.347   8.578  17.853  0.00  0.00    +0.000 A 
ATOM      9  C   UNL     1       1.733   8.696  19.119  0.00  0.00    +0.000 A 
ATOM     10  C   UNL     1       1.844   7.651  20.036  0.00  0.00    +0.000 A 
ATOM     11  C   UNL     1       2.572   6.523  19.714  0.00  0.00    +0.000 A 
BRANCH   6  13
ATOM     12  N   UNL     1       4.690   5.176  16.906  0.00  0.00    +0.000 N 
ATOM     13  C   UNL     1       3.987   5.208  18.151  0.00  0.00    +0.000 C 
ATOM     14  N   UNL     1       4.013   4.214  18.975  0.00  0.00    +0.000 NA
ATOM     15  H   UNL     1       4.382   5.825  16.171  0.00  0.00    +0.000 HD
ATOM     16  H   UNL     1       4.540   3.349  18.798  0.00  0.00    +0.000 HD
BRANCH  12  18
ATOM     17  C   UNL     1       5.904   4.102  15.120  0.00  0.00    +0.000 C 
ATOM     18  C   UNL     1       5.825   4.333  16.630  0.00  0.00    +0.000 C 
ATOM     19  C   UNL     1       7.102   5.028  17.124  0.00  0.00    +0.000 C 
ENDBRANCH  12  18
ENDBRANCH   6  13
ENDBRANCH   1   9
BRANCH   3  20
ATOM     20  C   UNL     1      -1.588  11.791  21.099  0.00  0.00    +0.000 A 
ATOM     21  C   UNL     1      -1.579  11.625  22.486  0.00  0.00    +0.000 A 
ATOM     22  C   UNL     1      -2.621  12.107  23.266  0.00  0.00    +0.000 A 
ATOM     23  C   UNL     1      -3.720  12.774  22.685  0.00  0.00    +0.000 A 
ATOM     24  C   UNL     1      -3.713  12.951  21.285  0.00  0.00    +0.000 A 
ATOM     25  C   UNL     1      -2.670  12.469  20.494  0.00  0.00    +0.000 A 
BRANCH  23  26
ATOM     26  C   UNL     1      -4.846  13.323  23.520  0.00  0.00    +0.000 C 
ATOM     27  N   UNL     1      -5.109  12.848  24.690  0.00  0.00    +0.000 NA
ATOM     28  N   UNL     1      -5.649  14.406  23.038  0.00  0.00    +0.000 N 
ATOM     29  H   UNL     1      -4.611  12.074  25.143  0.00  0.00    +0.000 HD
ATOM     30  H   UNL     1      -5.685  14.633  22.036  0.00  0.00    +0.000 HD
BRANCH  28  31
ATOM     31  C   UNL     1      -6.389  15.277  23.930  0.00  0.00    +0.000 C 
ATOM     32  C   UNL     1      -5.503  16.470  24.294  0.00  0.00    +0.000 C 
ATOM     33  C   UNL     1      -7.685  15.735  23.268  0.00  0.00    +0.000 C 
ENDBRANCH  28  31
ENDBRANCH  23  26
BRANCH  25  34
ATOM     34  O   UNL     1      -2.726  12.658  19.160  0.00  0.00    +0.000 OA
ATOM     35  H   UNL     1      -2.992  11.969  18.534  0.00  0.00    +0.000 HD
ENDBRANCH  25  34
ENDBRANCH   3  20
TORSDOF 7
ENDMDL
MODEL 5
REMARK VINA RESULT:      -8.0      1.845     11.559
REMARK  Name = 
REMARK  11 active torsions:
REMARK  status: ('A' for Active; 'I' for Inactive)
REMARK    1  A    between atoms: C_1  and  C_2
REMARK    2  A    between atoms: C_2  and  C_3
REMARK    3  A    between atoms: C_2  and  N_4
REMARK    4  A    between atoms: C_5  and  C_7
REMARK    5  A    between atoms: C_10  and  N_11
REMARK    6  A    between atoms: C_13  and  C_14
REMARK    7  A    between atoms: C_17  and  C_18
REMARK    8  A    between atoms: N_20  and  C_21
REMARK    9  A    between atoms: C_21  and  C_22
REMARK   10  A    between atoms: C_21  and  C_23
REMARK   11  A    between atoms: C_25  and  O_26
REMARK                            x       y       z     vdW  Elec       q    Type
REMARK                         _______ _______ _______ _____ _____    ______ ____
ROOT
ATOM      1  N   UNL     1       2.466   7.075  19.306  0.00  0.00    +0.000 N 
ATOM      2  C   UNL     1       1.942   8.295  19.151  0.00  0.00    +0.000 A 
ATOM      3  C   UNL     1       1.145   8.519  20.243  0.00  0.00    +0.000 A 
ATOM      4  N   UNL     1       1.222   7.435  21.044  0.00  0.00    +0.000 NA
ATOM      5  N   UNL     1       2.028   6.572  20.450  0.00  0.00    +0.000 NA
ENDROOT
BRANCH   1   9
ATOM      6  C   UNL     1       5.044   5.052  16.641  0.00  0.00    +0.000 A 
ATOM      7  C   UNL     1       4.935   6.447  16.569  0.00  0.00    +0.000 A 
ATOM      8  C   UNL     1       4.093   7.117  17.443  0.00  0.00    +0.000 A 
ATOM      9  C   UNL     1       3.334   6.403  18.395  0.00  0.00    +0.000 A 
ATOM     10  C   UNL     1       3.424   5.011  18.442  0.00  0.00    +0.000 A 
ATOM     11  C   UNL     1       4.271   4.345  17.579  0.00  0.00    +0.000 A 
BRANCH   6  13
ATOM     12  N   UNL     1       5.502   4.048  14.419  0.00  0.00    +0.000 N 
ATOM     13  C   UNL     1       5.952   4.323  15.748  0.00  0.00    +0.000 C 
ATOM     14  N   UNL     1       7.107   3.930  16.174  0.00  0.00    +0.000 NA
ATOM     15  H   UNL     1       4.490   4.088  14.243  0.00  0.00    +0.000 HD
ATOM     16  H   UNL     1       7.774   3.410  15.591  0.00  0.00    +0.000 HD
BRANCH  12  18
ATOM     17  C   UNL     1       5.511   3.362  12.106  0.00  0.00    +0.000 C 
ATOM     18  C   UNL     1       6.371   3.767  13.306  0.00  0.00    +0.000 C 
ATOM     19  C   UNL     1       7.185   5.025  12.968  0.00  0.00    +0.000 C 
ENDBRANCH  12  18
ENDBRANCH   6  13
ENDBRANCH   1   9
BRANCH   3  20
ATOM     20  C   UNL     1       0.295   9.691  20.513  0.00  0.00    +0.000 A 
ATOM     21  C   UNL     1      -0.421  10.237  19.446  0.00  0.00    +0.000 A 
ATOM     22  C   UNL     1      -1.211  11.366  19.623  0.00  0.00    +0.000 A 
ATOM     23  C   UNL     1      -1.311  11.996  20.881  0.00  0.00    +0.000 A 
ATOM     24  C   UNL     1      -0.596  11.427  21.957  0.00  0.00    +0.000 A 
ATOM     25  C   UNL     1       0.200  10.294  21.787  0.00  0.00    +0.000 A 
BRANCH  23  26
ATOM     26  C   UNL     1      -2.182  13.205  21.095  0.00  0.00    +0.000 C 
ATOM     27  N   UNL     1      -2.482  13.998  20.123  0.00  0.00    +0.000 NA
ATOM     28  N   UNL     1      -2.716  13.497  22.391  0.00  0.00    +0.000 N 
ATOM     29  H   UNL     1      -2.160  13.899  19.154  0.00  0.00    +0.000 HD
ATOM     30  H   UNL     1      -2.300  13.092  23.239  0.00  0.00    +0.000 HD
BRANCH  28  31
ATOM     31  C   UNL     1      -3.901  14.312  22.573  0.00  0.00    +0.000 C 
ATOM     32  C   UNL     1      -5.118  13.390  22.673  0.00  0.00    +0.000 C 
ATOM     33  C   UNL     1      -3.762  15.178  23.822  0.00  0.00    +0.000 C 
ENDBRANCH  28  31
ENDBRANCH  23  26
BRANCH  25  34
ATOM     34  O   UNL     1       0.869   9.805  22.851  0.00  0.00    +0.000 OA
ATOM     35  H   UNL     1       1.609   9.186  22.776  0.00  0.00    +0.000 HD
ENDBRANCH  25  34
ENDBRANCH   3  20
TORSDOF 7
ENDMDL
MODEL 6
REMARK VINA RESULT:      -8.0      1.453      1.791
REMARK  Name = 
REMARK  11 active torsions:
REMARK  status: ('A' for Active; 'I' for Inactive)
REMARK    1  A    between atoms: C_1  and  C_2
REMARK    2  A    between atoms: C_2  and  C_3
REMARK    3  A    between atoms: C_2  and  N_4
REMARK    4  A    between atoms: C_5  and  C_7
REMARK    5  A    between atoms: C_10  and  N_11
REMARK    6  A    between atoms: C_13  and  C_14
REMARK    7  A    between atoms: C_17  and  C_18
REMARK    8  A    between atoms: N_20  and  C_21
REMARK    9  A    between atoms: C_21  and  C_22
REMARK   10  A    between atoms: C_21  and  C_23
REMARK   11  A    between atoms: C_25  and  O_26
REMARK                            x       y       z     vdW  Elec       q    Type
REMARK                         _______ _______ _______ _____ _____    ______ ____
ROOT
ATOM      1  N   UNL     1       1.184   8.871  19.775  0.00  0.00    +0.000 N 
ATOM      2  C   UNL     1       1.713   8.417  18.635  0.00  0.00    +0.000 A 
ATOM      3  C   UNL     1       2.413   7.283  18.954  0.00  0.00    +0.000 A 
ATOM      4  N   UNL     1       2.273   7.066  20.280  0.00  0.00    +0.000 NA
ATOM      5  N   UNL     1       1.524   8.048  20.754  0.00  0.00    +0.000 NA
ENDROOT
BRANCH   1   9
ATOM      6  C   UNL     1      -1.137  12.374  20.203  0.00  0.00    +0.000 A 
ATOM      7  C   UNL     1      -0.265  11.995  21.232  0.00  0.00    +0.000 A 
ATOM      8  C   UNL     1       0.502  10.848  21.096  0.00  0.00    +0.000 A 
ATOM      9  C   UNL     1       0.400  10.052  19.935  0.00  0.00    +0.000 A 
ATOM     10  C   UNL     1      -0.493  10.419  18.927  0.00  0.00    +0.000 A 
ATOM     11  C   UNL     1      -1.249  11.567  19.058  0.00  0.00    +0.000 A 
BRANCH   6  13
ATOM     12  N   UNL     1      -3.216  13.510  20.940  0.00  0.00    +0.000 N 
ATOM     13  C   UNL     1      -1.935  13.600  20.311  0.00  0.00    +0.000 C 
ATOM     14  N   UNL     1      -1.490  14.712  19.825  0.00  0.00    +0.000 NA
ATOM     15  H   UNL     1      -3.647  12.579  21.008  0.00  0.00    +0.000 HD
ATOM     16  H   UNL     1      -2.014  15.594  19.867  0.00  0.00    +0.000 HD
BRANCH  12  18
ATOM     17  C   UNL     1      -5.402  14.504  21.169  0.00  0.00    +0.000 C 
ATOM     18  C   UNL     1      -3.918  14.623  21.525  0.00  0.00    +0.000 C 
ATOM     19  C   UNL     1      -3.739  14.590  23.050  0.00  0.00    +0.000 C 
ENDBRANCH  12  18
ENDBRANCH   6  13
ENDBRANCH   1   9
BRANCH   3  20
ATOM     20  C   UNL     1       3.231   6.447  18.059  0.00  0.00    +0.000 A 
ATOM     21  C   UNL     1       4.169   7.086  17.246  0.00  0.00    +0.000 A 
ATOM     22  C   UNL     1       4.946   6.362  16.351  0.00  0.00    +0.000 A 
ATOM     23  C   UNL     1       4.810   4.962  16.234  0.00  0.00    +0.000 A 
ATOM     24  C   UNL     1       3.871   4.323  17.072  0.00  0.00    +0.000 A 
ATOM     25  C   UNL     1       3.087   5.044  17.973  0.00  0.00    +0.000 A 
BRANCH  23  26
ATOM     26  C   UNL     1       5.662   4.160  15.288  0.00  0.00    +0.000 C 
ATOM     27  N   UNL     1       6.291   3.104  15.680  0.00  0.00    +0.000 NA
ATOM     28  N   UNL     1       5.783   4.544  13.914  0.00  0.00    +0.000 N 
ATOM     29  H   UNL     1       6.287   2.730  16.635  0.00  0.00    +0.000 HD
ATOM     30  H   UNL     1       5.556   5.499  13.609  0.00  0.00    +0.000 HD
BRANCH  28  31
ATOM     31  C   UNL     1       6.158   3.601  12.878  0.00  0.00    +0.000 C 
ATOM     32  C   UNL     1       4.925   3.297  12.025  0.00  0.00    +0.000 C 
ATOM     33  C   UNL     1       7.290   4.171  12.027  0.00  0.00    +0.000 C 
ENDBRANCH  28  31
ENDBRANCH  23  26
BRANCH  25  34
ATOM     34  O   UNL     1       2.198   4.378  18.738  0.00  0.00    +0.000 OA
ATOM     35  H   UNL     1       2.053   3.423  18.677  0.00  0.00    +0.000 HD
ENDBRANCH  25  34
ENDBRANCH   3  20
TORSDOF 7
ENDMDL
MODEL 7
REMARK VINA RESULT:      -8.0      2.859     12.109
REMARK  Name = 
REMARK  11 active torsions:
REMARK  status: ('A' for Active; 'I' for Inactive)
REMARK    1  A    between atoms: C_1  and  C_2
REMARK    2  A    between atoms: C_2  and  C_3
REMARK    3  A    between atoms: C_2  and  N_4
REMARK    4  A    between atoms: C_5  and  C_7
REMARK    5  A    between atoms: C_10  and  N_11
REMARK    6  A    between atoms: C_13  and  C_14
REMARK    7  A    between atoms: C_17  and  C_18
REMARK    8  A    between atoms: N_20  and  C_21
REMARK    9  A    between atoms: C_21  and  C_22
REMARK   10  A    between atoms: C_21  and  C_23
REMARK   11  A    between atoms: C_25  and  O_26
REMARK                            x       y       z     vdW  Elec       q    Type
REMARK                         _______ _______ _______ _____ _____    ______ ____
ROOT
ATOM      1  N   UNL     1       1.081   9.711  19.274  0.00  0.00    +0.000 N 
ATOM      2  C   UNL     1       0.070   9.824  20.140  0.00  0.00    +0.000 A 
ATOM      3  C   UNL     1      -0.359  11.123  20.071  0.00  0.00    +0.000 A 
ATOM      4  N   UNL     1       0.390  11.762  19.147  0.00  0.00    +0.000 NA
ATOM      5  N   UNL     1       1.260  10.881  18.680  0.00  0.00    +0.000 NA
ENDROOT
BRANCH   1   9
ATOM      6  C   UNL     1       3.386   6.255  18.506  0.00  0.00    +0.000 A 
ATOM      7  C   UNL     1       2.687   6.363  19.716  0.00  0.00    +0.000 A 
ATOM      8  C   UNL     1       1.925   7.493  19.972  0.00  0.00    +0.000 A 
ATOM      9  C   UNL     1       1.862   8.542  19.030  0.00  0.00    +0.000 A 
ATOM     10  C   UNL     1       2.585   8.442  17.840  0.00  0.00    +0.000 A 
ATOM     11  C   UNL     1       3.334   7.312  17.580  0.00  0.00    +0.000 A 
BRANCH   6  13
ATOM     12  N   UNL     1       4.777   4.968  16.906  0.00  0.00    +0.000 N 
ATOM     13  C   UNL     1       4.172   5.055  18.199  0.00  0.00    +0.000 C 
ATOM     14  N   UNL     1       4.282   4.109  19.070  0.00  0.00    +0.000 NA
ATOM     15  H   UNL     1       4.399   5.570  16.163  0.00  0.00    +0.000 HD
ATOM     16  H   UNL     1       4.813   3.245  18.899  0.00  0.00    +0.000 HD
BRANCH  12  18
ATOM     17  C   UNL     1       5.969   3.955  15.070  0.00  0.00    +0.000 C 
ATOM     18  C   UNL     1       5.906   4.131  16.589  0.00  0.00    +0.000 C 
ATOM     19  C   UNL     1       7.191   4.803  17.094  0.00  0.00    +0.000 C 
ENDBRANCH  12  18
ENDBRANCH   6  13
ENDBRANCH   1   9
BRANCH   3  20
ATOM     20  C   UNL     1      -1.409  11.770  20.877  0.00  0.00    +0.000 A 
ATOM     21  C   UNL     1      -1.325  11.661  22.267  0.00  0.00    +0.000 A 
ATOM     22  C   UNL     1      -2.302  12.214  23.084  0.00  0.00    +0.000 A 
ATOM     23  C   UNL     1      -3.409  12.898  22.538  0.00  0.00    +0.000 A 
ATOM     24  C   UNL     1      -3.477  13.017  21.133  0.00  0.00    +0.000 A 
ATOM     25  C   UNL     1      -2.499  12.464  20.305  0.00  0.00    +0.000 A 
BRANCH  23  26
ATOM     26  C   UNL     1      -4.463  13.524  23.411  0.00  0.00    +0.000 C 
ATOM     27  N   UNL     1      -4.929  12.912  24.446  0.00  0.00    +0.000 NA
ATOM     28  N   UNL     1      -4.967  14.831  23.119  0.00  0.00    +0.000 N 
ATOM     29  H   UNL     1      -4.652  11.974  24.757  0.00  0.00    +0.000 HD
ATOM     30  H   UNL     1      -4.861  15.244  22.183  0.00  0.00    +0.000 HD
BRANCH  28  31
ATOM     31  C   UNL     1      -5.583  15.667  24.132  0.00  0.00    +0.000 C 
ATOM     32  C   UNL     1      -4.495  16.509  24.799  0.00  0.00    +0.000 C 
ATOM     33  C   UNL     1      -6.660  16.550  23.507  0.00  0.00    +0.000 C 
ENDBRANCH  28  31
ENDBRANCH  23  26
BRANCH  25  34
ATOM     34  O   UNL     1      -2.627  12.600  18.970  0.00  0.00    +0.000 OA
ATOM     35  H   UNL     1      -3.343  13.098  18.550  0.00  0.00    +0.000 HD
ENDBRANCH  25  34
ENDBRANCH   3  20
TORSDOF 7
ENDMDL
MODEL 8
REMARK VINA RESULT:      -7.9      1.562     11.604
REMARK  Name = 
REMARK  11 active torsions:
REMARK  status: ('A' for Active; 'I' for Inactive)
REMARK    1  A    between atoms: C_1  and  C_2
REMARK    2  A    between atoms: C_2  and  C_3
REMARK    3  A    between atoms: C_2  and  N_4
REMARK    4  A    between atoms: C_5  and  C_7
REMARK    5  A    between atoms: C_10  and  N_11
REMARK    6  A    between atoms: C_13  and  C_14
REMARK    7  A    between atoms: C_17  and  C_18
REMARK    8  A    between atoms: N_20  and  C_21
REMARK    9  A    between atoms: C_21  and  C_22
REMARK   10  A    between atoms: C_21  and  C_23
REMARK   11  A    between atoms: C_25  and  O_26
REMARK                            x       y       z     vdW  Elec       q    Type
REMARK                         _______ _______ _______ _____ _____    ______ ____
ROOT
ATOM      1  N   UNL     1       2.872   6.780  18.853  0.00  0.00    +0.000 N 
ATOM      2  C   UNL     1       2.350   8.008  18.916  0.00  0.00    +0.000 A 
ATOM      3  C   UNL     1       1.582   8.047  20.050  0.00  0.00    +0.000 A 
ATOM      4  N   UNL     1       1.675   6.845  20.658  0.00  0.00    +0.000 NA
ATOM      5  N   UNL     1       2.463   6.094  19.908  0.00  0.00    +0.000 NA
ENDROOT
BRANCH   1   9
ATOM      6  C   UNL     1       5.373   5.228  15.823  0.00  0.00    +0.000 A 
ATOM      7  C   UNL     1       5.300   6.614  16.013  0.00  0.00    +0.000 A 
ATOM      8  C   UNL     1       4.483   7.130  17.009  0.00  0.00    +0.000 A 
ATOM      9  C   UNL     1       3.714   6.269  17.821  0.00  0.00    +0.000 A 
ATOM     10  C   UNL     1       3.769   4.891  17.607  0.00  0.00    +0.000 A 
ATOM     11  C   UNL     1       4.590   4.377  16.623  0.00  0.00    +0.000 A 
BRANCH   6  13
ATOM     12  N   UNL     1       5.684   3.732  13.869  0.00  0.00    +0.000 N 
ATOM     13  C   UNL     1       6.254   4.657  14.798  0.00  0.00    +0.000 C 
ATOM     14  N   UNL     1       7.506   4.974  14.766  0.00  0.00    +0.000 NA
ATOM     15  H   UNL     1       4.799   3.280  14.131  0.00  0.00    +0.000 HD
ATOM     16  H   UNL     1       8.165   4.594  14.075  0.00  0.00    +0.000 HD
BRANCH  12  18
ATOM     17  C   UNL     1       5.093   3.077  11.623  0.00  0.00    +0.000 C 
ATOM     18  C   UNL     1       6.239   3.429  12.575  0.00  0.00    +0.000 C 
ATOM     19  C   UNL     1       6.999   4.656  12.050  0.00  0.00    +0.000 C 
ENDBRANCH  12  18
ENDBRANCH   6  13
ENDBRANCH   1   9
BRANCH   3  20
ATOM     20  C   UNL     1       0.743   9.158  20.533  0.00  0.00    +0.000 A 
ATOM     21  C   UNL     1      -0.160   9.732  19.635  0.00  0.00    +0.000 A 
ATOM     22  C   UNL     1      -0.953  10.807  20.014  0.00  0.00    +0.000 A 
ATOM     23  C   UNL     1      -0.869  11.354  21.311  0.00  0.00    +0.000 A 
ATOM     24  C   UNL     1       0.035  10.758  22.216  0.00  0.00    +0.000 A 
ATOM     25  C   UNL     1       0.835   9.677  21.844  0.00  0.00    +0.000 A 
BRANCH  23  26
ATOM     26  C   UNL     1      -1.739  12.504  21.745  0.00  0.00    +0.000 C 
ATOM     27  N   UNL     1      -2.326  13.264  20.884  0.00  0.00    +0.000 NA
ATOM     28  N   UNL     1      -1.949  12.774  23.134  0.00  0.00    +0.000 N 
ATOM     29  H   UNL     1      -2.252  13.176  19.864  0.00  0.00    +0.000 HD
ATOM     30  H   UNL     1      -1.307  12.407  23.848  0.00  0.00    +0.000 HD
BRANCH  28  31
ATOM     31  C   UNL     1      -3.104  13.509  23.614  0.00  0.00    +0.000 C 
ATOM     32  C   UNL     1      -4.049  12.531  24.313  0.00  0.00    +0.000 C 
ATOM     33  C   UNL     1      -2.667  14.624  24.559  0.00  0.00    +0.000 C 
ENDBRANCH  28  31
ENDBRANCH  23  26
BRANCH  25  34
ATOM     34  O   UNL     1       1.689   9.158  22.749  0.00  0.00    +0.000 OA
ATOM     35  H   UNL     1       1.531   8.324  23.214  0.00  0.00    +0.000 HD
ENDBRANCH  25  34
ENDBRANCH   3  20
TORSDOF 7
ENDMDL
MODEL 9
REMARK VINA RESULT:      -7.9      1.041      1.323
REMARK  Name = 
REMARK  11 active torsions:
REMARK  status: ('A' for Active; 'I' for Inactive)
REMARK    1  A    between atoms: C_1  and  C_2
REMARK    2  A    between atoms: C_2  and  C_3
REMARK    3  A    between atoms: C_2  and  N_4
REMARK    4  A    between atoms: C_5  and  C_7
REMARK    5  A    between atoms: C_10  and  N_11
REMARK    6  A    between atoms: C_13  and  C_14
REMARK    7  A    between atoms: C_17  and  C_18
REMARK    8  A    between atoms: N_20  and  C_21
REMARK    9  A    between atoms: C_21  and  C_22
REMARK   10  A    between atoms: C_21  and  C_23
REMARK   11  A    between atoms: C_25  and  O_26
REMARK                            x       y       z     vdW  Elec       q    Type
REMARK                         _______ _______ _______ _____ _____    ______ ____
ROOT
ATOM      1  N   UNL     1       1.221   8.057  20.765  0.00  0.00    +0.000 N 
ATOM      2  C   UNL     1       2.011   8.105  19.689  0.00  0.00    +0.000 A 
ATOM      3  C   UNL     1       2.490   6.835  19.500  0.00  0.00    +0.000 A 
ATOM      4  N   UNL     1       1.961   6.043  20.457  0.00  0.00    +0.000 NA
ATOM      5  N   UNL     1       1.195   6.812  21.214  0.00  0.00    +0.000 NA
ENDROOT
BRANCH   1   9
ATOM      6  C   UNL     1      -0.799  11.334  22.504  0.00  0.00    +0.000 A 
ATOM      7  C   UNL     1      -0.784  10.102  23.170  0.00  0.00    +0.000 A 
ATOM      8  C   UNL     1      -0.120   9.023  22.606  0.00  0.00    +0.000 A 
ATOM      9  C   UNL     1       0.529   9.154  21.359  0.00  0.00    +0.000 A 
ATOM     10  C   UNL     1       0.484  10.376  20.687  0.00  0.00    +0.000 A 
ATOM     11  C   UNL     1      -0.168  11.453  21.254  0.00  0.00    +0.000 A 
BRANCH   6  13
ATOM     12  N   UNL     1      -2.896  12.481  23.170  0.00  0.00    +0.000 N 
ATOM     13  C   UNL     1      -1.468  12.498  23.096  0.00  0.00    +0.000 C 
ATOM     14  N   UNL     1      -0.775  13.507  23.509  0.00  0.00    +0.000 NA
ATOM     15  H   UNL     1      -3.395  11.829  22.553  0.00  0.00    +0.000 HD
ATOM     16  H   UNL     1      -1.196  14.348  23.922  0.00  0.00    +0.000 HD
BRANCH  12  18
ATOM     17  C   UNL     1      -4.454  14.319  23.277  0.00  0.00    +0.000 C 
ATOM     18  C   UNL     1      -3.675  13.278  24.083  0.00  0.00    +0.000 C 
ATOM     19  C   UNL     1      -4.649  12.367  24.844  0.00  0.00    +0.000 C 
ENDBRANCH  12  18
ENDBRANCH   6  13
ENDBRANCH   1   9
BRANCH   3  20
ATOM     20  C   UNL     1       3.454   6.377  18.485  0.00  0.00    +0.000 A 
ATOM     21  C   UNL     1       4.059   5.133  18.674  0.00  0.00    +0.000 A 
ATOM     22  C   UNL     1       5.006   4.659  17.775  0.00  0.00    +0.000 A 
ATOM     23  C   UNL     1       5.387   5.418  16.649  0.00  0.00    +0.000 A 
ATOM     24  C   UNL     1       4.758   6.667  16.458  0.00  0.00    +0.000 A 
ATOM     25  C   UNL     1       3.807   7.151  17.356  0.00  0.00    +0.000 A 
BRANCH  23  26
ATOM     26  C   UNL     1       6.393   4.908  15.653  0.00  0.00    +0.000 C 
ATOM     27  N   UNL     1       7.520   4.407  16.031  0.00  0.00    +0.000 NA
ATOM     28  N   UNL     1       6.115   4.952  14.249  0.00  0.00    +0.000 N 
ATOM     29  H   UNL     1       7.837   4.324  17.004  0.00  0.00    +0.000 HD
ATOM     30  H   UNL     1       5.392   5.578  13.872  0.00  0.00    +0.000 HD
BRANCH  28  31
ATOM     31  C   UNL     1       6.776   4.075  13.301  0.00  0.00    +0.000 C 
ATOM     32  C   UNL     1       5.711   3.264  12.561  0.00  0.00    +0.000 C 
ATOM     33  C   UNL     1       7.624   4.890  12.329  0.00  0.00    +0.000 C 
ENDBRANCH  28  31
ENDBRANCH  23  26
BRANCH  25  34
ATOM     34  O   UNL     1       3.250   8.357  17.126  0.00  0.00    +0.000 OA
ATOM     35  H   UNL     1       2.472   8.487  16.565  0.00  0.00    +0.000 HD
ENDBRANCH  25  34
ENDBRANCH   3  20
TORSDOF 7
ENDMDL
