MODEL 1
REMARK VINA RESULT:      -6.1      0.000      0.000
REMARK  Name = 
REMARK  4 active torsions:
REMARK  status: ('A' for Active; 'I' for Inactive)
REMARK    1  A    between atoms: C_1  and  O_2
REMARK    2  A    between atoms: O_2  and  C_3
REMARK    3  A    between atoms: C_9  and  C_10
REMARK    4  A    between atoms: C_10  and  N_11
REMARK                            x       y       z     vdW  Elec       q    Type
REMARK                         _______ _______ _______ _____ _____    ______ ____
ROOT
ATOM      1  C   UNL     1       7.022   5.058  14.897  0.00  0.00    +0.000 A 
ATOM      2  C   UNL     1       5.932   4.273  14.520  0.00  0.00    +0.000 A 
ATOM      3  C   UNL     1       5.017   3.851  15.477  0.00  0.00    +0.000 A 
ATOM      4  C   UNL     1       5.188   4.218  16.812  0.00  0.00    +0.000 A 
ATOM      5  C   UNL     1       6.297   4.975  17.227  0.00  0.00    +0.000 A 
ATOM      6  C   UNL     1       7.218   5.387  16.247  0.00  0.00    +0.000 A 
ATOM      7  C   UNL     1       6.456   5.280  18.667  0.00  0.00    +0.000 C 
ATOM      8  C   UNL     1       5.383   5.011  19.434  0.00  0.00    +0.000 C 
ATOM      9  C   UNL     1       4.106   4.460  18.892  0.00  0.00    +0.000 C 
ATOM     10  O   UNL     1       4.234   3.739  17.669  0.00  0.00    +0.000 OA
ENDROOT
BRANCH   1  12
ATOM     11  C   UNL     1       7.761   5.149  12.663  0.00  0.00    +0.000 C 
ATOM     12  O   UNL     1       7.972   5.519  14.023  0.00  0.00    +0.000 OA
ENDBRANCH   1  12
BRANCH   7  13
ATOM     13  C   UNL     1       7.751   5.864  19.178  0.00  0.00    +0.000 C 
BRANCH  13  14
ATOM     14  N   UNL     1       8.142   5.400  20.507  0.00  0.00    +0.000 NA
ATOM     15  H   UNL     1       8.147   4.382  20.507  0.00  0.00    +0.000 HD
ATOM     16  H   UNL     1       7.425   5.675  21.175  0.00  0.00    +0.000 HD
ENDBRANCH  13  14
ENDBRANCH   7  13
TORSDOF 3
ENDMDL
MODEL 2
REMARK VINA RESULT:      -6.0      2.779      5.180
REMARK  Name = 
REMARK  4 active torsions:
REMARK  status: ('A' for Active; 'I' for Inactive)
REMARK    1  A    between atoms: C_1  and  O_2
REMARK    2  A    between atoms: O_2  and  C_3
REMARK    3  A    between atoms: C_9  and  C_10
REMARK    4  A    between atoms: C_10  and  N_11
REMARK                            x       y       z     vdW  Elec       q    Type
REMARK                         _______ _______ _______ _____ _____    ______ ____
ROOT
ATOM      1  C   UNL     1       2.758   3.562  18.016  0.00  0.00    +0.000 A 
ATOM      2  C   UNL     1       3.303   3.520  19.299  0.00  0.00    +0.000 A 
ATOM      3  C   UNL     1       4.650   3.804  19.491  0.00  0.00    +0.000 A 
ATOM      4  C   UNL     1       5.453   4.136  18.400  0.00  0.00    +0.000 A 
ATOM      5  C   UNL     1       4.940   4.149  17.092  0.00  0.00    +0.000 A 
ATOM      6  C   UNL     1       3.577   3.851  16.913  0.00  0.00    +0.000 A 
ATOM      7  C   UNL     1       5.858   4.447  15.968  0.00  0.00    +0.000 C 
ATOM      8  C   UNL     1       7.064   4.928  16.322  0.00  0.00    +0.000 C 
ATOM      9  C   UNL     1       7.467   5.166  17.739  0.00  0.00    +0.000 C 
ATOM     10  O   UNL     1       6.764   4.386  18.703  0.00  0.00    +0.000 OA
ENDROOT
BRANCH   1  12
ATOM     11  C   UNL     1       0.789   2.452  18.676  0.00  0.00    +0.000 C 
ATOM     12  O   UNL     1       1.443   3.298  17.733  0.00  0.00    +0.000 OA
ENDBRANCH   1  12
BRANCH   7  13
ATOM     13  C   UNL     1       5.407   4.222  14.544  0.00  0.00    +0.000 C 
BRANCH  13  14
ATOM     14  N   UNL     1       6.375   3.515  13.708  0.00  0.00    +0.000 NA
ATOM     15  H   UNL     1       6.055   3.548  12.742  0.00  0.00    +0.000 HD
ATOM     16  H   UNL     1       6.376   2.530  13.967  0.00  0.00    +0.000 HD
ENDBRANCH  13  14
ENDBRANCH   7  13
TORSDOF 3
ENDMDL
MODEL 3
REMARK VINA RESULT:      -5.9      2.989      3.765
REMARK  Name = 
REMARK  4 active torsions:
REMARK  status: ('A' for Active; 'I' for Inactive)
REMARK    1  A    between atoms: C_1  and  O_2
REMARK    2  A    between atoms: O_2  and  C_3
REMARK    3  A    between atoms: C_9  and  C_10
REMARK    4  A    between atoms: C_10  and  N_11
REMARK                            x       y       z     vdW  Elec       q    Type
REMARK                         _______ _______ _______ _____ _____    ______ ____
ROOT
ATOM      1  C   UNL     1       5.676   4.684  15.863  0.00  0.00    +0.000 A 
ATOM      2  C   UNL     1       5.714   6.068  16.030  0.00  0.00    +0.000 A 
ATOM      3  C   UNL     1       4.808   6.690  16.882  0.00  0.00    +0.000 A 
ATOM      4  C   UNL     1       3.866   5.927  17.570  0.00  0.00    +0.000 A 
ATOM      5  C   UNL     1       3.779   4.536  17.392  0.00  0.00    +0.000 A 
ATOM      6  C   UNL     1       4.697   3.923  16.521  0.00  0.00    +0.000 A 
ATOM      7  C   UNL     1       2.716   3.789  18.103  0.00  0.00    +0.000 C 
ATOM      8  C   UNL     1       2.071   4.480  19.062  0.00  0.00    +0.000 C 
ATOM      9  C   UNL     1       2.396   5.894  19.412  0.00  0.00    +0.000 C 
ATOM     10  O   UNL     1       3.017   6.643  18.371  0.00  0.00    +0.000 OA
ENDROOT
BRANCH   1  12
ATOM     11  C   UNL     1       6.120   3.910  13.684  0.00  0.00    +0.000 C 
ATOM     12  O   UNL     1       6.529   3.987  15.047  0.00  0.00    +0.000 OA
ENDBRANCH   1  12
BRANCH   7  13
ATOM     13  C   UNL     1       2.432   2.350  17.743  0.00  0.00    +0.000 C 
BRANCH  13  14
ATOM     14  N   UNL     1       1.424   1.704  18.580  0.00  0.00    +0.000 NA
ATOM     15  H   UNL     1       1.731   0.755  18.784  0.00  0.00    +0.000 HD
ATOM     16  H   UNL     1       0.563   1.609  18.045  0.00  0.00    +0.000 HD
ENDBRANCH  13  14
ENDBRANCH   7  13
TORSDOF 3
ENDMDL
MODEL 4
REMARK VINA RESULT:      -5.9      3.804      5.404
REMARK  Name = 
REMARK  4 active torsions:
REMARK  status: ('A' for Active; 'I' for Inactive)
REMARK    1  A    between atoms: C_1  and  O_2
REMARK    2  A    between atoms: O_2  and  C_3
REMARK    3  A    between atoms: C_9  and  C_10
REMARK    4  A    between atoms: C_10  and  N_11
REMARK                            x       y       z     vdW  Elec       q    Type
REMARK                         _______ _______ _______ _____ _____    ______ ____
ROOT
ATOM      1  C   UNL     1       2.734   6.829  18.594  0.00  0.00    +0.000 A 
ATOM      2  C   UNL     1       3.734   6.636  17.640  0.00  0.00    +0.000 A 
ATOM      3  C   UNL     1       4.171   5.351  17.343  0.00  0.00    +0.000 A 
ATOM      4  C   UNL     1       3.606   4.256  17.997  0.00  0.00    +0.000 A 
ATOM      5  C   UNL     1       2.625   4.422  18.989  0.00  0.00    +0.000 A 
ATOM      6  C   UNL     1       2.200   5.730  19.284  0.00  0.00    +0.000 A 
ATOM      7  C   UNL     1       2.109   3.225  19.692  0.00  0.00    +0.000 C 
ATOM      8  C   UNL     1       2.449   2.045  19.142  0.00  0.00    +0.000 C 
ATOM      9  C   UNL     1       3.273   1.924  17.904  0.00  0.00    +0.000 C 
ATOM     10  O   UNL     1       4.120   3.039  17.635  0.00  0.00    +0.000 OA
ENDROOT
BRANCH   1  12
ATOM     11  C   UNL     1       2.047   8.959  17.862  0.00  0.00    +0.000 C 
ATOM     12  O   UNL     1       2.241   8.057  18.949  0.00  0.00    +0.000 OA
ENDBRANCH   1  12
BRANCH   7  13
ATOM     13  C   UNL     1       1.253   3.383  20.926  0.00  0.00    +0.000 C 
BRANCH  13  14
ATOM     14  N   UNL     1       1.676   2.569  22.064  0.00  0.00    +0.000 NA
ATOM     15  H   UNL     1       1.668   1.590  21.783  0.00  0.00    +0.000 HD
ATOM     16  H   UNL     1       0.982   2.652  22.804  0.00  0.00    +0.000 HD
ENDBRANCH  13  14
ENDBRANCH   7  13
TORSDOF 3
ENDMDL
MODEL 5
REMARK VINA RESULT:      -5.9      2.564      3.490
REMARK  Name = 
REMARK  4 active torsions:
REMARK  status: ('A' for Active; 'I' for Inactive)
REMARK    1  A    between atoms: C_1  and  O_2
REMARK    2  A    between atoms: O_2  and  C_3
REMARK    3  A    between atoms: C_9  and  C_10
REMARK    4  A    between atoms: C_10  and  N_11
REMARK                            x       y       z     vdW  Elec       q    Type
REMARK                         _______ _______ _______ _____ _____    ______ ____
ROOT
ATOM      1  C   UNL     1       6.323   6.338  16.795  0.00  0.00    +0.000 A 
ATOM      2  C   UNL     1       6.653   5.048  16.380  0.00  0.00    +0.000 A 
ATOM      3  C   UNL     1       5.738   4.013  16.537  0.00  0.00    +0.000 A 
ATOM      4  C   UNL     1       4.490   4.268  17.104  0.00  0.00    +0.000 A 
ATOM      5  C   UNL     1       4.145   5.550  17.566  0.00  0.00    +0.000 A 
ATOM      6  C   UNL     1       5.084   6.584  17.408  0.00  0.00    +0.000 A 
ATOM      7  C   UNL     1       2.828   5.744  18.216  0.00  0.00    +0.000 C 
ATOM      8  C   UNL     1       1.966   4.719  18.086  0.00  0.00    +0.000 C 
ATOM      9  C   UNL     1       2.284   3.471  17.333  0.00  0.00    +0.000 C 
ATOM     10  O   UNL     1       3.674   3.175  17.219  0.00  0.00    +0.000 OA
ENDROOT
BRANCH   1  12
ATOM     11  C   UNL     1       7.840   7.776  17.881  0.00  0.00    +0.000 C 
ATOM     12  O   UNL     1       7.159   7.418  16.680  0.00  0.00    +0.000 OA
ENDBRANCH   1  12
BRANCH   7  13
ATOM     13  C   UNL     1       2.528   7.031  18.946  0.00  0.00    +0.000 C 
BRANCH  13  14
ATOM     14  N   UNL     1       2.267   6.870  20.375  0.00  0.00    +0.000 NA
ATOM     15  H   UNL     1       3.031   7.298  20.895  0.00  0.00    +0.000 HD
ATOM     16  H   UNL     1       2.295   5.879  20.605  0.00  0.00    +0.000 HD
ENDBRANCH  13  14
ENDBRANCH   7  13
TORSDOF 3
ENDMDL
MODEL 6
REMARK VINA RESULT:      -5.8      1.754      4.679
REMARK  Name = 
REMARK  4 active torsions:
REMARK  status: ('A' for Active; 'I' for Inactive)
REMARK    1  A    between atoms: C_1  and  O_2
REMARK    2  A    between atoms: O_2  and  C_3
REMARK    3  A    between atoms: C_9  and  C_10
REMARK    4  A    between atoms: C_10  and  N_11
REMARK                            x       y       z     vdW  Elec       q    Type
REMARK                         _______ _______ _______ _____ _____    ______ ____
ROOT
ATOM      1  C   UNL     1       3.218   4.654  19.587  0.00  0.00    +0.000 A 
ATOM      2  C   UNL     1       2.520   4.142  18.493  0.00  0.00    +0.000 A 
ATOM      3  C   UNL     1       3.169   3.964  17.277  0.00  0.00    +0.000 A 
ATOM      4  C   UNL     1       4.519   4.294  17.155  0.00  0.00    +0.000 A 
ATOM      5  C   UNL     1       5.237   4.848  18.228  0.00  0.00    +0.000 A 
ATOM      6  C   UNL     1       4.563   5.029  19.450  0.00  0.00    +0.000 A 
ATOM      7  C   UNL     1       6.651   5.236  18.018  0.00  0.00    +0.000 C 
ATOM      8  C   UNL     1       7.204   4.793  16.874  0.00  0.00    +0.000 C 
ATOM      9  C   UNL     1       6.472   3.956  15.879  0.00  0.00    +0.000 C 
ATOM     10  O   UNL     1       5.053   4.089  15.911  0.00  0.00    +0.000 OA
ENDROOT
BRANCH   1  12
ATOM     11  C   UNL     1       1.999   3.725  21.376  0.00  0.00    +0.000 C 
ATOM     12  O   UNL     1       2.661   4.861  20.822  0.00  0.00    +0.000 OA
ENDBRANCH   1  12
BRANCH   7  13
ATOM     13  C   UNL     1       7.371   6.060  19.059  0.00  0.00    +0.000 C 
BRANCH  13  14
ATOM     14  N   UNL     1       7.992   5.278  20.126  0.00  0.00    +0.000 NA
ATOM     15  H   UNL     1       7.413   5.352  20.961  0.00  0.00    +0.000 HD
ATOM     16  H   UNL     1       8.885   5.702  20.368  0.00  0.00    +0.000 HD
ENDBRANCH  13  14
ENDBRANCH   7  13
TORSDOF 3
ENDMDL
MODEL 7
REMARK VINA RESULT:      -5.8      3.300      5.813
REMARK  Name = 
REMARK  4 active torsions:
REMARK  status: ('A' for Active; 'I' for Inactive)
REMARK    1  A    between atoms: C_1  and  O_2
REMARK    2  A    between atoms: O_2  and  C_3
REMARK    3  A    between atoms: C_9  and  C_10
REMARK    4  A    between atoms: C_10  and  N_11
REMARK                            x       y       z     vdW  Elec       q    Type
REMARK                         _______ _______ _______ _____ _____    ______ ____
ROOT
ATOM      1  C   UNL     1       1.784   3.411  19.175  0.00  0.00    +0.000 A 
ATOM      2  C   UNL     1       2.444   2.459  18.397  0.00  0.00    +0.000 A 
ATOM      3  C   UNL     1       3.396   2.862  17.468  0.00  0.00    +0.000 A 
ATOM      4  C   UNL     1       3.692   4.217  17.319  0.00  0.00    +0.000 A 
ATOM      5  C   UNL     1       3.016   5.200  18.061  0.00  0.00    +0.000 A 
ATOM      6  C   UNL     1       2.050   4.777  18.991  0.00  0.00    +0.000 A 
ATOM      7  C   UNL     1       3.331   6.626  17.812  0.00  0.00    +0.000 C 
ATOM      8  C   UNL     1       4.426   6.851  17.064  0.00  0.00    +0.000 C 
ATOM      9  C   UNL     1       5.288   5.758  16.523  0.00  0.00    +0.000 C 
ATOM     10  O   UNL     1       4.636   4.500  16.368  0.00  0.00    +0.000 OA
ENDROOT
BRANCH   1  12
ATOM     11  C   UNL     1       1.353   2.746  21.393  0.00  0.00    +0.000 C 
ATOM     12  O   UNL     1       0.834   3.106  20.115  0.00  0.00    +0.000 OA
ENDBRANCH   1  12
BRANCH   7  13
ATOM     13  C   UNL     1       2.454   7.706  18.399  0.00  0.00    +0.000 C 
BRANCH  13  14
ATOM     14  N   UNL     1       2.248   8.859  17.524  0.00  0.00    +0.000 NA
ATOM     15  H   UNL     1       1.809   9.602  18.065  0.00  0.00    +0.000 HD
ATOM     16  H   UNL     1       1.578   8.607  16.801  0.00  0.00    +0.000 HD
ENDBRANCH  13  14
ENDBRANCH   7  13
TORSDOF 3
ENDMDL
MODEL 8
REMARK VINA RESULT:      -5.8      4.639      6.441
REMARK  Name = 
REMARK  4 active torsions:
REMARK  status: ('A' for Active; 'I' for Inactive)
REMARK    1  A    between atoms: C_1  and  O_2
REMARK    2  A    between atoms: O_2  and  C_3
REMARK    3  A    between atoms: C_9  and  C_10
REMARK    4  A    between atoms: C_10  and  N_11
REMARK                            x       y       z     vdW  Elec       q    Type
REMARK                         _______ _______ _______ _____ _____    ______ ____
ROOT
ATOM      1  C   UNL     1       1.838   7.072  20.187  0.00  0.00    +0.000 A 
ATOM      2  C   UNL     1       2.489   7.422  19.004  0.00  0.00    +0.000 A 
ATOM      3  C   UNL     1       2.871   6.435  18.104  0.00  0.00    +0.000 A 
ATOM      4  C   UNL     1       2.601   5.096  18.384  0.00  0.00    +0.000 A 
ATOM      5  C   UNL     1       1.982   4.710  19.586  0.00  0.00    +0.000 A 
ATOM      6  C   UNL     1       1.608   5.721  20.490  0.00  0.00    +0.000 A 
ATOM      7  C   UNL     1       1.778   3.268  19.853  0.00  0.00    +0.000 C 
ATOM      8  C   UNL     1       1.983   2.453  18.802  0.00  0.00    +0.000 C 
ATOM      9  C   UNL     1       2.373   2.945  17.448  0.00  0.00    +0.000 C 
ATOM     10  O   UNL     1       3.032   4.209  17.435  0.00  0.00    +0.000 OA
ENDROOT
BRANCH   1  12
ATOM     11  C   UNL     1       0.908   9.196  20.601  0.00  0.00    +0.000 C 
ATOM     12  O   UNL     1       1.424   7.976  21.131  0.00  0.00    +0.000 OA
ENDBRANCH   1  12
BRANCH   7  13
ATOM     13  C   UNL     1       1.355   2.807  21.228  0.00  0.00    +0.000 C 
BRANCH  13  14
ATOM     14  N   UNL     1       2.460   2.587  22.159  0.00  0.00    +0.000 NA
ATOM     15  H   UNL     1       2.874   3.488  22.389  0.00  0.00    +0.000 HD
ATOM     16  H   UNL     1       3.189   2.058  21.685  0.00  0.00    +0.000 HD
ENDBRANCH  13  14
ENDBRANCH   7  13
TORSDOF 3
ENDMDL
MODEL 9
REMARK VINA RESULT:      -5.8      3.282      4.744
REMARK  Name = 
REMARK  4 active torsions:
REMARK  status: ('A' for Active; 'I' for Inactive)
REMARK    1  A    between atoms: C_1  and  O_2
REMARK    2  A    between atoms: O_2  and  C_3
REMARK    3  A    between atoms: C_9  and  C_10
REMARK    4  A    between atoms: C_10  and  N_11
REMARK                            x       y       z     vdW  Elec       q    Type
REMARK                         _______ _______ _______ _____ _____    ______ ____
ROOT
ATOM      1  C   UNL     1       3.924   6.157  17.503  0.00  0.00    +0.000 A 
ATOM      2  C   UNL     1       3.273   7.085  18.317  0.00  0.00    +0.000 A 
ATOM      3  C   UNL     1       2.430   6.647  19.331  0.00  0.00    +0.000 A 
ATOM      4  C   UNL     1       2.239   5.281  19.535  0.00  0.00    +0.000 A 
ATOM      5  C   UNL     1       2.851   4.324  18.707  0.00  0.00    +0.000 A 
ATOM      6  C   UNL     1       3.695   4.784  17.680  0.00  0.00    +0.000 A 
ATOM      7  C   UNL     1       2.560   2.890  18.935  0.00  0.00    +0.000 C 
ATOM      8  C   UNL     1       1.920   2.609  20.085  0.00  0.00    +0.000 C 
ATOM      9  C   UNL     1       1.534   3.649  21.084  0.00  0.00    +0.000 C 
ATOM     10  O   UNL     1       1.381   4.963  20.553  0.00  0.00    +0.000 OA
ENDROOT
BRANCH   1  12
ATOM     11  C   UNL     1       6.117   6.750  16.883  0.00  0.00    +0.000 C 
ATOM     12  O   UNL     1       4.773   6.496  16.481  0.00  0.00    +0.000 OA
ENDBRANCH   1  12
BRANCH   7  13
ATOM     13  C   UNL     1       2.989   1.860  17.918  0.00  0.00    +0.000 C 
BRANCH  13  14
ATOM     14  N   UNL     1       3.946   0.877  18.419  0.00  0.00    +0.000 NA
ATOM     15  H   UNL     1       4.340   0.373  17.626  0.00  0.00    +0.000 HD
ATOM     16  H   UNL     1       3.445   0.181  18.969  0.00  0.00    +0.000 HD
ENDBRANCH  13  14
ENDBRANCH   7  13
TORSDOF 3
ENDMDL
