MODEL 1
REMARK VINA RESULT:      -7.6      0.000      0.000
REMARK  Name = 
REMARK  8 active torsions:
REMARK  status: ('A' for Active; 'I' for Inactive)
REMARK    1  A    between atoms: C_8  and  O_9
REMARK    2  A    between atoms: O_9  and  C_10
REMARK    3  A    between atoms: C_10  and  C_11
REMARK    4  A    between atoms: C_11  and  N_12
REMARK    5  A    between atoms: C_22  and  O_23
REMARK    6  A    between atoms: O_23  and  C_24
REMARK    7  A    between atoms: C_24  and  C_25
REMARK    8  A    between atoms: C_25  and  N_26
REMARK                            x       y       z     vdW  Elec       q    Type
REMARK                         _______ _______ _______ _____ _____    ______ ____
ROOT
ATOM      1  C   UNL     1       1.004   8.639  20.723  0.00  0.00    +0.000 A 
ATOM      2  C   UNL     1       1.151   7.347  21.226  0.00  0.00    +0.000 A 
ATOM      3  C   UNL     1       1.814   6.408  20.454  0.00  0.00    +0.000 A 
ATOM      4  S   UNL     1       2.092   4.799  20.861  0.00  0.00    +0.000 S 
ATOM      5  C   UNL     1       2.879   4.451  19.415  0.00  0.00    +0.000 A 
ATOM      6  C   UNL     1       3.391   3.225  19.016  0.00  0.00    +0.000 A 
ATOM      7  C   UNL     1       3.992   3.133  17.755  0.00  0.00    +0.000 A 
ATOM      8  C   UNL     1       4.094   4.264  16.916  0.00  0.00    +0.000 A 
ATOM      9  C   UNL     1       3.562   5.505  17.350  0.00  0.00    +0.000 A 
ATOM     10  C   UNL     1       2.950   5.584  18.608  0.00  0.00    +0.000 A 
ATOM     11  C   UNL     1       2.335   6.709  19.198  0.00  0.00    +0.000 A 
ATOM     12  C   UNL     1       2.195   8.015  18.677  0.00  0.00    +0.000 A 
ATOM     13  C   UNL     1       1.524   8.999  19.447  0.00  0.00    +0.000 A 
ENDROOT
BRANCH   8  14
ATOM     14  O   UNL     1       4.694   4.110  15.709  0.00  0.00    +0.000 OA
BRANCH  14  15
ATOM     15  C   UNL     1       5.993   3.682  15.510  0.00  0.00    +0.000 C 
BRANCH  15  16
ATOM     16  C   UNL     1       6.904   4.872  15.181  0.00  0.00    +0.000 C 
BRANCH  16  17
ATOM     17  N   UNL     1       7.570   5.433  16.380  0.00  0.00    +0.000 NA
ATOM     18  C   UNL     1       6.970   6.716  16.821  0.00  0.00    +0.000 C 
ATOM     19  C   UNL     1       7.762   7.291  17.999  0.00  0.00    +0.000 C 
ATOM     20  C   UNL     1       7.754   6.301  19.162  0.00  0.00    +0.000 C 
ATOM     21  C   UNL     1       8.316   4.957  18.692  0.00  0.00    +0.000 C 
ATOM     22  C   UNL     1       7.515   4.449  17.486  0.00  0.00    +0.000 C 
ENDBRANCH  16  17
ENDBRANCH  15  16
ENDBRANCH  14  15
ENDBRANCH   8  14
BRANCH  13  23
ATOM     23  O   UNL     1       1.377  10.270  18.955  0.00  0.00    +0.000 OA
BRANCH  23  24
ATOM     24  C   UNL     1       1.006  11.338  19.760  0.00  0.00    +0.000 C 
BRANCH  24  25
ATOM     25  C   UNL     1       0.007  12.298  19.096  0.00  0.00    +0.000 C 
BRANCH  25  26
ATOM     26  N   UNL     1      -1.383  11.762  19.132  0.00  0.00    +0.000 NA
ATOM     27  C   UNL     1      -2.296  12.779  19.707  0.00  0.00    +0.000 C 
ATOM     28  C   UNL     1      -3.731  12.236  19.823  0.00  0.00    +0.000 C 
ATOM     29  C   UNL     1      -4.238  11.802  18.448  0.00  0.00    +0.000 C 
ATOM     30  C   UNL     1      -3.288  10.757  17.879  0.00  0.00    +0.000 C 
ATOM     31  C   UNL     1      -1.870  11.332  17.795  0.00  0.00    +0.000 C 
ENDBRANCH  25  26
ENDBRANCH  24  25
ENDBRANCH  23  24
ENDBRANCH  13  23
TORSDOF 8
ENDMDL
MODEL 2
REMARK VINA RESULT:      -7.5      0.545      9.041
REMARK  Name = 
REMARK  8 active torsions:
REMARK  status: ('A' for Active; 'I' for Inactive)
REMARK    1  A    between atoms: C_8  and  O_9
REMARK    2  A    between atoms: O_9  and  C_10
REMARK    3  A    between atoms: C_10  and  C_11
REMARK    4  A    between atoms: C_11  and  N_12
REMARK    5  A    between atoms: C_22  and  O_23
REMARK    6  A    between atoms: O_23  and  C_24
REMARK    7  A    between atoms: C_24  and  C_25
REMARK    8  A    between atoms: C_25  and  N_26
REMARK                            x       y       z     vdW  Elec       q    Type
REMARK                         _______ _______ _______ _____ _____    ______ ____
ROOT
ATOM      1  C   UNL     1       4.028   3.289  18.021  0.00  0.00    +0.000 A 
ATOM      2  C   UNL     1       3.419   3.429  19.267  0.00  0.00    +0.000 A 
ATOM      3  C   UNL     1       2.840   4.646  19.587  0.00  0.00    +0.000 A 
ATOM      4  S   UNL     1       2.066   5.033  21.030  0.00  0.00    +0.000 S 
ATOM      5  C   UNL     1       1.738   6.616  20.560  0.00  0.00    +0.000 A 
ATOM      6  C   UNL     1       1.107   7.597  21.312  0.00  0.00    +0.000 A 
ATOM      7  C   UNL     1       0.949   8.868  20.748  0.00  0.00    +0.000 A 
ATOM      8  C   UNL     1       1.403   9.143  19.440  0.00  0.00    +0.000 A 
ATOM      9  C   UNL     1       2.045   8.121  18.695  0.00  0.00    +0.000 A 
ATOM     10  C   UNL     1       2.211   6.856  19.272  0.00  0.00    +0.000 A 
ATOM     11  C   UNL     1       2.849   5.730  18.711  0.00  0.00    +0.000 A 
ATOM     12  C   UNL     1       3.461   5.600  17.444  0.00  0.00    +0.000 A 
ATOM     13  C   UNL     1       4.058   4.364  17.087  0.00  0.00    +0.000 A 
ENDROOT
BRANCH   8  14
ATOM     14  O   UNL     1       1.214  10.394  18.949  0.00  0.00    +0.000 OA
BRANCH  14  15
ATOM     15  C   UNL     1       0.449  11.379  19.544  0.00  0.00    +0.000 C 
BRANCH  15  16
ATOM     16  C   UNL     1      -0.144  12.312  18.480  0.00  0.00    +0.000 C 
BRANCH  16  17
ATOM     17  N   UNL     1      -1.434  11.821  17.942  0.00  0.00    +0.000 NA
ATOM     18  C   UNL     1      -1.360  10.418  17.466  0.00  0.00    +0.000 C 
ATOM     19  C   UNL     1      -2.693  10.004  16.835  0.00  0.00    +0.000 C 
ATOM     20  C   UNL     1      -3.815  10.132  17.862  0.00  0.00    +0.000 C 
ATOM     21  C   UNL     1      -3.854  11.564  18.400  0.00  0.00    +0.000 C 
ATOM     22  C   UNL     1      -2.485  11.942  18.981  0.00  0.00    +0.000 C 
ENDBRANCH  16  17
ENDBRANCH  15  16
ENDBRANCH  14  15
ENDBRANCH   8  14
BRANCH  13  23
ATOM     23  O   UNL     1       4.659   4.222  15.863  0.00  0.00    +0.000 OA
BRANCH  23  24
ATOM     24  C   UNL     1       5.919   3.661  15.717  0.00  0.00    +0.000 C 
BRANCH  24  25
ATOM     25  C   UNL     1       6.998   4.663  15.277  0.00  0.00    +0.000 C 
BRANCH  25  26
ATOM     26  N   UNL     1       7.634   5.339  16.444  0.00  0.00    +0.000 NA
ATOM     27  C   UNL     1       7.004   6.664  16.659  0.00  0.00    +0.000 C 
ATOM     28  C   UNL     1       7.681   7.421  17.815  0.00  0.00    +0.000 C 
ATOM     29  C   UNL     1       7.601   6.595  19.097  0.00  0.00    +0.000 C 
ATOM     30  C   UNL     1       8.255   5.242  18.855  0.00  0.00    +0.000 C 
ATOM     31  C   UNL     1       7.563   4.529  17.688  0.00  0.00    +0.000 C 
ENDBRANCH  25  26
ENDBRANCH  24  25
ENDBRANCH  23  24
ENDBRANCH  13  23
TORSDOF 8
ENDMDL
MODEL 3
REMARK VINA RESULT:      -7.5      0.670      1.133
REMARK  Name = 
REMARK  8 active torsions:
REMARK  status: ('A' for Active; 'I' for Inactive)
REMARK    1  A    between atoms: C_8  and  O_9
REMARK    2  A    between atoms: O_9  and  C_10
REMARK    3  A    between atoms: C_10  and  C_11
REMARK    4  A    between atoms: C_11  and  N_12
REMARK    5  A    between atoms: C_22  and  O_23
REMARK    6  A    between atoms: O_23  and  C_24
REMARK    7  A    between atoms: C_24  and  C_25
REMARK    8  A    between atoms: C_25  and  N_26
REMARK                            x       y       z     vdW  Elec       q    Type
REMARK                         _______ _______ _______ _____ _____    ______ ____
ROOT
ATOM      1  C   UNL     1       1.160   8.374  20.835  0.00  0.00    +0.000 A 
ATOM      2  C   UNL     1       1.261   7.082  21.349  0.00  0.00    +0.000 A 
ATOM      3  C   UNL     1       1.847   6.103  20.565  0.00  0.00    +0.000 A 
ATOM      4  S   UNL     1       2.060   4.487  20.981  0.00  0.00    +0.000 S 
ATOM      5  C   UNL     1       2.773   4.085  19.510  0.00  0.00    +0.000 A 
ATOM      6  C   UNL     1       3.208   2.830  19.108  0.00  0.00    +0.000 A 
ATOM      7  C   UNL     1       3.755   2.695  17.827  0.00  0.00    +0.000 A 
ATOM      8  C   UNL     1       3.881   3.810  16.971  0.00  0.00    +0.000 A 
ATOM      9  C   UNL     1       3.429   5.081  17.409  0.00  0.00    +0.000 A 
ATOM     10  C   UNL     1       2.869   5.204  18.687  0.00  0.00    +0.000 A 
ATOM     11  C   UNL     1       2.334   6.364  19.286  0.00  0.00    +0.000 A 
ATOM     12  C   UNL     1       2.240   7.670  18.755  0.00  0.00    +0.000 A 
ATOM     13  C   UNL     1       1.648   8.695  19.536  0.00  0.00    +0.000 A 
ENDROOT
BRANCH   8  14
ATOM     14  O   UNL     1       4.427   3.614  15.744  0.00  0.00    +0.000 OA
BRANCH  14  15
ATOM     15  C   UNL     1       5.456   4.359  15.198  0.00  0.00    +0.000 C 
BRANCH  15  16
ATOM     16  C   UNL     1       6.737   4.186  16.024  0.00  0.00    +0.000 C 
BRANCH  16  17
ATOM     17  N   UNL     1       6.870   5.202  17.095  0.00  0.00    +0.000 NA
ATOM     18  C   UNL     1       7.846   4.808  18.141  0.00  0.00    +0.000 C 
ATOM     19  C   UNL     1       7.865   5.849  19.264  0.00  0.00    +0.000 C 
ATOM     20  C   UNL     1       8.249   7.215  18.700  0.00  0.00    +0.000 C 
ATOM     21  C   UNL     1       7.279   7.595  17.579  0.00  0.00    +0.000 C 
ATOM     22  C   UNL     1       7.268   6.501  16.503  0.00  0.00    +0.000 C 
ENDBRANCH  16  17
ENDBRANCH  15  16
ENDBRANCH  14  15
ENDBRANCH   8  14
BRANCH  13  23
ATOM     23  O   UNL     1       1.546   9.966  19.035  0.00  0.00    +0.000 OA
BRANCH  23  24
ATOM     24  C   UNL     1       0.847  10.968  19.692  0.00  0.00    +0.000 C 
BRANCH  24  25
ATOM     25  C   UNL     1      -0.095  11.769  18.779  0.00  0.00    +0.000 C 
BRANCH  25  26
ATOM     26  N   UNL     1      -1.457  11.165  18.721  0.00  0.00    +0.000 NA
ATOM     27  C   UNL     1      -2.480  12.238  18.723  0.00  0.00    +0.000 C 
ATOM     28  C   UNL     1      -3.901  11.650  18.733  0.00  0.00    +0.000 C 
ATOM     29  C   UNL     1      -4.101  10.746  17.518  0.00  0.00    +0.000 C 
ATOM     30  C   UNL     1      -3.042   9.652  17.537  0.00  0.00    +0.000 C 
ATOM     31  C   UNL     1      -1.644  10.279  17.543  0.00  0.00    +0.000 C 
ENDBRANCH  25  26
ENDBRANCH  24  25
ENDBRANCH  23  24
ENDBRANCH  13  23
TORSDOF 8
ENDMDL
MODEL 4
REMARK VINA RESULT:      -7.4      1.655      2.876
REMARK  Name = 
REMARK  8 active torsions:
REMARK  status: ('A' for Active; 'I' for Inactive)
REMARK    1  A    between atoms: C_8  and  O_9
REMARK    2  A    between atoms: O_9  and  C_10
REMARK    3  A    between atoms: C_10  and  C_11
REMARK    4  A    between atoms: C_11  and  N_12
REMARK    5  A    between atoms: C_22  and  O_23
REMARK    6  A    between atoms: O_23  and  C_24
REMARK    7  A    between atoms: C_24  and  C_25
REMARK    8  A    between atoms: C_25  and  N_26
REMARK                            x       y       z     vdW  Elec       q    Type
REMARK                         _______ _______ _______ _____ _____    ______ ____
ROOT
ATOM      1  C   UNL     1       1.159   8.653  20.578  0.00  0.00    +0.000 A 
ATOM      2  C   UNL     1       1.249   7.373  21.123  0.00  0.00    +0.000 A 
ATOM      3  C   UNL     1       1.883   6.385  20.389  0.00  0.00    +0.000 A 
ATOM      4  S   UNL     1       2.093   4.780  20.848  0.00  0.00    +0.000 S 
ATOM      5  C   UNL     1       2.881   4.357  19.423  0.00  0.00    +0.000 A 
ATOM      6  C   UNL     1       3.348   3.100  19.068  0.00  0.00    +0.000 A 
ATOM      7  C   UNL     1       3.960   2.945  17.819  0.00  0.00    +0.000 A 
ATOM      8  C   UNL     1       4.115   4.044  16.946  0.00  0.00    +0.000 A 
ATOM      9  C   UNL     1       3.628   5.318  17.336  0.00  0.00    +0.000 A 
ATOM     10  C   UNL     1       3.006   5.461  18.582  0.00  0.00    +0.000 A 
ATOM     11  C   UNL     1       2.430   6.626  19.130  0.00  0.00    +0.000 A 
ATOM     12  C   UNL     1       2.348   7.920  18.568  0.00  0.00    +0.000 A 
ATOM     13  C   UNL     1       1.707   8.953  19.298  0.00  0.00    +0.000 A 
ENDROOT
BRANCH   8  14
ATOM     14  O   UNL     1       4.722   3.830  15.752  0.00  0.00    +0.000 OA
BRANCH  14  15
ATOM     15  C   UNL     1       5.430   4.775  15.033  0.00  0.00    +0.000 C 
BRANCH  15  16
ATOM     16  C   UNL     1       6.938   4.523  15.159  0.00  0.00    +0.000 C 
BRANCH  16  17
ATOM     17  N   UNL     1       7.548   5.251  16.297  0.00  0.00    +0.000 NA
ATOM     18  C   UNL     1       6.884   6.550  16.568  0.00  0.00    +0.000 C 
ATOM     19  C   UNL     1       7.618   7.295  17.687  0.00  0.00    +0.000 C 
ATOM     20  C   UNL     1       7.620   6.451  18.959  0.00  0.00    +0.000 C 
ATOM     21  C   UNL     1       8.248   5.087  18.666  0.00  0.00    +0.000 C 
ATOM     22  C   UNL     1       7.503   4.404  17.512  0.00  0.00    +0.000 C 
ENDBRANCH  16  17
ENDBRANCH  15  16
ENDBRANCH  14  15
ENDBRANCH   8  14
BRANCH  13  23
ATOM     23  O   UNL     1       1.616  10.212  18.766  0.00  0.00    +0.000 OA
BRANCH  23  24
ATOM     24  C   UNL     1       0.433  10.937  18.774  0.00  0.00    +0.000 C 
BRANCH  24  25
ATOM     25  C   UNL     1       0.456  12.153  19.713  0.00  0.00    +0.000 C 
BRANCH  25  26
ATOM     26  N   UNL     1       1.745  12.898  19.623  0.00  0.00    +0.000 NA
ATOM     27  C   UNL     1       1.786  13.676  18.362  0.00  0.00    +0.000 C 
ATOM     28  C   UNL     1       3.131  14.405  18.203  0.00  0.00    +0.000 C 
ATOM     29  C   UNL     1       3.367  15.334  19.393  0.00  0.00    +0.000 C 
ATOM     30  C   UNL     1       3.323  14.513  20.675  0.00  0.00    +0.000 C 
ATOM     31  C   UNL     1       1.975  13.793  20.787  0.00  0.00    +0.000 C 
ENDBRANCH  25  26
ENDBRANCH  24  25
ENDBRANCH  23  24
ENDBRANCH  13  23
TORSDOF 8
ENDMDL
MODEL 5
REMARK VINA RESULT:      -7.4      0.670      9.076
REMARK  Name = 
REMARK  8 active torsions:
REMARK  status: ('A' for Active; 'I' for Inactive)
REMARK    1  A    between atoms: C_8  and  O_9
REMARK    2  A    between atoms: O_9  and  C_10
REMARK    3  A    between atoms: C_10  and  C_11
REMARK    4  A    between atoms: C_11  and  N_12
REMARK    5  A    between atoms: C_22  and  O_23
REMARK    6  A    between atoms: O_23  and  C_24
REMARK    7  A    between atoms: C_24  and  C_25
REMARK    8  A    between atoms: C_25  and  N_26
REMARK                            x       y       z     vdW  Elec       q    Type
REMARK                         _______ _______ _______ _____ _____    ______ ____
ROOT
ATOM      1  C   UNL     1       4.008   2.963  17.407  0.00  0.00    +0.000 A 
ATOM      2  C   UNL     1       3.385   2.945  18.653  0.00  0.00    +0.000 A 
ATOM      3  C   UNL     1       2.873   4.130  19.154  0.00  0.00    +0.000 A 
ATOM      4  S   UNL     1       2.097   4.335  20.633  0.00  0.00    +0.000 S 
ATOM      5  C   UNL     1       1.872   5.988  20.413  0.00  0.00    +0.000 A 
ATOM      6  C   UNL     1       1.285   6.877  21.303  0.00  0.00    +0.000 A 
ATOM      7  C   UNL     1       1.213   8.228  20.943  0.00  0.00    +0.000 A 
ATOM      8  C   UNL     1       1.706   8.674  19.698  0.00  0.00    +0.000 A 
ATOM      9  C   UNL     1       2.300   7.743  18.808  0.00  0.00    +0.000 A 
ATOM     10  C   UNL     1       2.381   6.396  19.182  0.00  0.00    +0.000 A 
ATOM     11  C   UNL     1       2.962   5.334  18.458  0.00  0.00    +0.000 A 
ATOM     12  C   UNL     1       3.588   5.365  17.192  0.00  0.00    +0.000 A 
ATOM     13  C   UNL     1       4.119   4.166  16.652  0.00  0.00    +0.000 A 
ENDROOT
BRANCH   8  14
ATOM     14  O   UNL     1       1.600   9.995  19.407  0.00  0.00    +0.000 OA
BRANCH  14  15
ATOM     15  C   UNL     1       0.481  10.776  19.628  0.00  0.00    +0.000 C 
BRANCH  15  16
ATOM     16  C   UNL     1      -0.231  11.078  18.303  0.00  0.00    +0.000 C 
BRANCH  16  17
ATOM     17  N   UNL     1      -1.687  10.808  18.361  0.00  0.00    +0.000 NA
ATOM     18  C   UNL     1      -2.489  12.034  18.594  0.00  0.00    +0.000 C 
ATOM     19  C   UNL     1      -3.971  11.676  18.740  0.00  0.00    +0.000 C 
ATOM     20  C   UNL     1      -4.464  10.980  17.474  0.00  0.00    +0.000 C 
ATOM     21  C   UNL     1      -3.599   9.749  17.198  0.00  0.00    +0.000 C 
ATOM     22  C   UNL     1      -2.123  10.157  17.103  0.00  0.00    +0.000 C 
ENDBRANCH  16  17
ENDBRANCH  15  16
ENDBRANCH  14  15
ENDBRANCH   8  14
BRANCH  13  23
ATOM     23  O   UNL     1       4.732   4.179  15.427  0.00  0.00    +0.000 OA
BRANCH  23  24
ATOM     24  C   UNL     1       6.051   3.784  15.254  0.00  0.00    +0.000 C 
BRANCH  24  25
ATOM     25  C   UNL     1       7.025   4.952  15.038  0.00  0.00    +0.000 C 
BRANCH  25  26
ATOM     26  N   UNL     1       7.639   5.405  16.318  0.00  0.00    +0.000 NA
ATOM     27  C   UNL     1       7.050   6.705  16.722  0.00  0.00    +0.000 C 
ATOM     28  C   UNL     1       7.709   7.238  18.007  0.00  0.00    +0.000 C 
ATOM     29  C   UNL     1       7.548   6.222  19.136  0.00  0.00    +0.000 C 
ATOM     30  C   UNL     1       8.161   4.898  18.701  0.00  0.00    +0.000 C 
ATOM     31  C   UNL     1       7.489   4.411  17.413  0.00  0.00    +0.000 C 
ENDBRANCH  25  26
ENDBRANCH  24  25
ENDBRANCH  23  24
ENDBRANCH  13  23
TORSDOF 8
ENDMDL
MODEL 6
REMARK VINA RESULT:      -7.4      3.163      8.847
REMARK  Name = 
REMARK  8 active torsions:
REMARK  status: ('A' for Active; 'I' for Inactive)
REMARK    1  A    between atoms: C_8  and  O_9
REMARK    2  A    between atoms: O_9  and  C_10
REMARK    3  A    between atoms: C_10  and  C_11
REMARK    4  A    between atoms: C_11  and  N_12
REMARK    5  A    between atoms: C_22  and  O_23
REMARK    6  A    between atoms: O_23  and  C_24
REMARK    7  A    between atoms: C_24  and  C_25
REMARK    8  A    between atoms: C_25  and  N_26
REMARK                            x       y       z     vdW  Elec       q    Type
REMARK                         _______ _______ _______ _____ _____    ______ ____
ROOT
ATOM      1  C   UNL     1       7.011   5.604  16.477  0.00  0.00    +0.000 A 
ATOM      2  C   UNL     1       6.235   4.459  16.654  0.00  0.00    +0.000 A 
ATOM      3  C   UNL     1       5.105   4.544  17.450  0.00  0.00    +0.000 A 
ATOM      4  S   UNL     1       4.038   3.291  17.804  0.00  0.00    +0.000 S 
ATOM      5  C   UNL     1       3.065   4.247  18.790  0.00  0.00    +0.000 A 
ATOM      6  C   UNL     1       1.940   3.846  19.494  0.00  0.00    +0.000 A 
ATOM      7  C   UNL     1       1.276   4.792  20.284  0.00  0.00    +0.000 A 
ATOM      8  C   UNL     1       1.729   6.127  20.349  0.00  0.00    +0.000 A 
ATOM      9  C   UNL     1       2.882   6.510  19.617  0.00  0.00    +0.000 A 
ATOM     10  C   UNL     1       3.548   5.553  18.841  0.00  0.00    +0.000 A 
ATOM     11  C   UNL     1       4.721   5.727  18.078  0.00  0.00    +0.000 A 
ATOM     12  C   UNL     1       5.498   6.894  17.904  0.00  0.00    +0.000 A 
ATOM     13  C   UNL     1       6.659   6.839  17.092  0.00  0.00    +0.000 A 
ENDROOT
BRANCH   8  14
ATOM     14  O   UNL     1       1.038   6.998  21.128  0.00  0.00    +0.000 OA
BRANCH  14  15
ATOM     15  C   UNL     1       1.426   8.292  21.419  0.00  0.00    +0.000 C 
BRANCH  15  16
ATOM     16  C   UNL     1       0.667   9.290  20.535  0.00  0.00    +0.000 C 
BRANCH  16  17
ATOM     17  N   UNL     1       0.541  10.628  21.160  0.00  0.00    +0.000 NA
ATOM     18  C   UNL     1       0.658  11.733  20.176  0.00  0.00    +0.000 C 
ATOM     19  C   UNL     1       0.617  13.085  20.894  0.00  0.00    +0.000 C 
ATOM     20  C   UNL     1      -0.694  13.226  21.663  0.00  0.00    +0.000 C 
ATOM     21  C   UNL     1      -0.846  12.053  22.635  0.00  0.00    +0.000 C 
ATOM     22  C   UNL     1      -0.755  10.726  21.870  0.00  0.00    +0.000 C 
ENDBRANCH  16  17
ENDBRANCH  15  16
ENDBRANCH  14  15
ENDBRANCH   8  14
BRANCH  13  23
ATOM     23  O   UNL     1       7.426   7.961  16.916  0.00  0.00    +0.000 OA
BRANCH  23  24
ATOM     24  C   UNL     1       8.286   8.433  17.896  0.00  0.00    +0.000 C 
BRANCH  24  25
ATOM     25  C   UNL     1       8.351   9.966  17.980  0.00  0.00    +0.000 C 
BRANCH  25  26
ATOM     26  N   UNL     1       9.515  10.427  18.791  0.00  0.00    +0.000 NA
ATOM     27  C   UNL     1      10.434  11.220  17.939  0.00  0.00    +0.000 C 
ATOM     28  C   UNL     1      11.682  11.656  18.726  0.00  0.00    +0.000 C 
ATOM     29  C   UNL     1      11.269  12.477  19.947  0.00  0.00    +0.000 C 
ATOM     30  C   UNL     1      10.329  11.643  20.807  0.00  0.00    +0.000 C 
ATOM     31  C   UNL     1       9.110  11.217  19.983  0.00  0.00    +0.000 C 
ENDBRANCH  25  26
ENDBRANCH  24  25
ENDBRANCH  23  24
ENDBRANCH  13  23
TORSDOF 8
ENDMDL
MODEL 7
REMARK VINA RESULT:      -7.4      3.065      4.460
REMARK  Name = 
REMARK  8 active torsions:
REMARK  status: ('A' for Active; 'I' for Inactive)
REMARK    1  A    between atoms: C_8  and  O_9
REMARK    2  A    between atoms: O_9  and  C_10
REMARK    3  A    between atoms: C_10  and  C_11
REMARK    4  A    between atoms: C_11  and  N_12
REMARK    5  A    between atoms: C_22  and  O_23
REMARK    6  A    between atoms: O_23  and  C_24
REMARK    7  A    between atoms: C_24  and  C_25
REMARK    8  A    between atoms: C_25  and  N_26
REMARK                            x       y       z     vdW  Elec       q    Type
REMARK                         _______ _______ _______ _____ _____    ______ ____
ROOT
ATOM      1  C   UNL     1       1.156   4.695  20.250  0.00  0.00    +0.000 A 
ATOM      2  C   UNL     1       1.851   3.776  19.465  0.00  0.00    +0.000 A 
ATOM      3  C   UNL     1       3.015   4.189  18.839  0.00  0.00    +0.000 A 
ATOM      4  S   UNL     1       3.998   3.253  17.844  0.00  0.00    +0.000 S 
ATOM      5  C   UNL     1       5.078   4.507  17.541  0.00  0.00    +0.000 A 
ATOM      6  C   UNL     1       6.198   4.466  16.723  0.00  0.00    +0.000 A 
ATOM      7  C   UNL     1       6.961   5.631  16.581  0.00  0.00    +0.000 A 
ATOM      8  C   UNL     1       6.613   6.814  17.267  0.00  0.00    +0.000 A 
ATOM      9  C   UNL     1       5.463   6.827  18.098  0.00  0.00    +0.000 A 
ATOM     10  C   UNL     1       4.697   5.661  18.223  0.00  0.00    +0.000 A 
ATOM     11  C   UNL     1       3.511   5.485  18.965  0.00  0.00    +0.000 A 
ATOM     12  C   UNL     1       2.817   6.424  19.760  0.00  0.00    +0.000 A 
ATOM     13  C   UNL     1       1.624   6.030  20.417  0.00  0.00    +0.000 A 
ENDROOT
BRANCH   8  14
ATOM     14  O   UNL     1       7.398   7.907  17.092  0.00  0.00    +0.000 OA
BRANCH  14  15
ATOM     15  C   UNL     1       8.334   8.373  17.997  0.00  0.00    +0.000 C 
BRANCH  15  16
ATOM     16  C   UNL     1       8.366   9.907  17.992  0.00  0.00    +0.000 C 
BRANCH  16  17
ATOM     17  N   UNL     1       9.555  10.457  18.683  0.00  0.00    +0.000 NA
ATOM     18  C   UNL     1      10.366  11.342  17.812  0.00  0.00    +0.000 C 
ATOM     19  C   UNL     1      11.627  11.799  18.551  0.00  0.00    +0.000 C 
ATOM     20  C   UNL     1      11.241  12.553  19.820  0.00  0.00    +0.000 C 
ATOM     21  C   UNL     1      10.353  11.664  20.693  0.00  0.00    +0.000 C 
ATOM     22  C   UNL     1       9.128  11.201  19.892  0.00  0.00    +0.000 C 
ENDBRANCH  16  17
ENDBRANCH  15  16
ENDBRANCH  14  15
ENDBRANCH   8  14
BRANCH  13  23
ATOM     23  O   UNL     1       0.938   6.929  21.189  0.00  0.00    +0.000 OA
BRANCH  23  24
ATOM     24  C   UNL     1       1.405   8.215  21.423  0.00  0.00    +0.000 C 
BRANCH  24  25
ATOM     25  C   UNL     1       0.293   9.268  21.540  0.00  0.00    +0.000 C 
BRANCH  25  26
ATOM     26  N   UNL     1       0.394  10.301  20.470  0.00  0.00    +0.000 NA
ATOM     27  C   UNL     1      -0.770  10.193  19.559  0.00  0.00    +0.000 C 
ATOM     28  C   UNL     1      -0.665  11.201  18.401  0.00  0.00    +0.000 C 
ATOM     29  C   UNL     1      -0.569  12.622  18.953  0.00  0.00    +0.000 C 
ATOM     30  C   UNL     1       0.634  12.711  19.882  0.00  0.00    +0.000 C 
ATOM     31  C   UNL     1       0.498  11.682  21.010  0.00  0.00    +0.000 C 
ENDBRANCH  25  26
ENDBRANCH  24  25
ENDBRANCH  23  24
ENDBRANCH  13  23
TORSDOF 8
ENDMDL
MODEL 8
REMARK VINA RESULT:      -7.2      1.215      1.828
REMARK  Name = 
REMARK  8 active torsions:
REMARK  status: ('A' for Active; 'I' for Inactive)
REMARK    1  A    between atoms: C_8  and  O_9
REMARK    2  A    between atoms: O_9  and  C_10
REMARK    3  A    between atoms: C_10  and  C_11
REMARK    4  A    between atoms: C_11  and  N_12
REMARK    5  A    between atoms: C_22  and  O_23
REMARK    6  A    between atoms: O_23  and  C_24
REMARK    7  A    between atoms: C_24  and  C_25
REMARK    8  A    between atoms: C_25  and  N_26
REMARK                            x       y       z     vdW  Elec       q    Type
REMARK                         _______ _______ _______ _____ _____    ______ ____
ROOT
ATOM      1  C   UNL     1       1.102   8.931  20.125  0.00  0.00    +0.000 A 
ATOM      2  C   UNL     1       1.276   7.768  20.873  0.00  0.00    +0.000 A 
ATOM      3  C   UNL     1       1.932   6.698  20.288  0.00  0.00    +0.000 A 
ATOM      4  S   UNL     1       2.239   5.205  21.002  0.00  0.00    +0.000 S 
ATOM      5  C   UNL     1       2.996   4.580  19.634  0.00  0.00    +0.000 A 
ATOM      6  C   UNL     1       3.513   3.302  19.476  0.00  0.00    +0.000 A 
ATOM      7  C   UNL     1       4.085   2.964  18.244  0.00  0.00    +0.000 A 
ATOM      8  C   UNL     1       4.153   3.904  17.194  0.00  0.00    +0.000 A 
ATOM      9  C   UNL     1       3.617   5.204  17.384  0.00  0.00    +0.000 A 
ATOM     10  C   UNL     1       3.034   5.529  18.615  0.00  0.00    +0.000 A 
ATOM     11  C   UNL     1       2.420   6.744  18.983  0.00  0.00    +0.000 A 
ATOM     12  C   UNL     1       2.252   7.919  18.216  0.00  0.00    +0.000 A 
ATOM     13  C   UNL     1       1.588   9.032  18.789  0.00  0.00    +0.000 A 
ENDROOT
BRANCH   8  14
ATOM     14  O   UNL     1       4.727   3.516  16.027  0.00  0.00    +0.000 OA
BRANCH  14  15
ATOM     15  C   UNL     1       5.363   4.354  15.130  0.00  0.00    +0.000 C 
BRANCH  15  16
ATOM     16  C   UNL     1       6.810   4.609  15.570  0.00  0.00    +0.000 C 
BRANCH  16  17
ATOM     17  N   UNL     1       6.900   5.447  16.789  0.00  0.00    +0.000 NA
ATOM     18  C   UNL     1       7.678   4.800  17.874  0.00  0.00    +0.000 C 
ATOM     19  C   UNL     1       7.652   5.670  19.134  0.00  0.00    +0.000 C 
ATOM     20  C   UNL     1       8.249   7.042  18.830  0.00  0.00    +0.000 C 
ATOM     21  C   UNL     1       7.486   7.685  17.670  0.00  0.00    +0.000 C 
ATOM     22  C   UNL     1       7.508   6.755  16.450  0.00  0.00    +0.000 C 
ENDBRANCH  16  17
ENDBRANCH  15  16
ENDBRANCH  14  15
ENDBRANCH   8  14
BRANCH  13  23
ATOM     23  O   UNL     1       1.414  10.178  18.058  0.00  0.00    +0.000 OA
BRANCH  23  24
ATOM     24  C   UNL     1       2.322  11.226  18.094  0.00  0.00    +0.000 C 
BRANCH  24  25
ATOM     25  C   UNL     1       1.732  12.540  18.628  0.00  0.00    +0.000 C 
BRANCH  25  26
ATOM     26  N   UNL     1       0.517  12.304  19.458  0.00  0.00    +0.000 NA
ATOM     27  C   UNL     1       0.831  12.549  20.887  0.00  0.00    +0.000 C 
ATOM     28  C   UNL     1      -0.384  12.250  21.782  0.00  0.00    +0.000 C 
ATOM     29  C   UNL     1      -1.571  13.113  21.357  0.00  0.00    +0.000 C 
ATOM     30  C   UNL     1      -1.877  12.843  19.890  0.00  0.00    +0.000 C 
ATOM     31  C   UNL     1      -0.639  13.138  19.036  0.00  0.00    +0.000 C 
ENDBRANCH  25  26
ENDBRANCH  24  25
ENDBRANCH  23  24
ENDBRANCH  13  23
TORSDOF 8
ENDMDL
MODEL 9
REMARK VINA RESULT:      -7.2      2.953      8.582
REMARK  Name = 
REMARK  8 active torsions:
REMARK  status: ('A' for Active; 'I' for Inactive)
REMARK    1  A    between atoms: C_8  and  O_9
REMARK    2  A    between atoms: O_9  and  C_10
REMARK    3  A    between atoms: C_10  and  C_11
REMARK    4  A    between atoms: C_11  and  N_12
REMARK    5  A    between atoms: C_22  and  O_23
REMARK    6  A    between atoms: O_23  and  C_24
REMARK    7  A    between atoms: C_24  and  C_25
REMARK    8  A    between atoms: C_25  and  N_26
REMARK                            x       y       z     vdW  Elec       q    Type
REMARK                         _______ _______ _______ _____ _____    ______ ____
ROOT
ATOM      1  C   UNL     1       6.933   5.357  16.204  0.00  0.00    +0.000 A 
ATOM      2  C   UNL     1       5.996   4.329  16.287  0.00  0.00    +0.000 A 
ATOM      3  C   UNL     1       4.918   4.484  17.142  0.00  0.00    +0.000 A 
ATOM      4  S   UNL     1       3.683   3.371  17.403  0.00  0.00    +0.000 S 
ATOM      5  C   UNL     1       2.900   4.335  18.538  0.00  0.00    +0.000 A 
ATOM      6  C   UNL     1       1.748   4.024  19.247  0.00  0.00    +0.000 A 
ATOM      7  C   UNL     1       1.263   4.956  20.171  0.00  0.00    +0.000 A 
ATOM      8  C   UNL     1       1.917   6.192  20.366  0.00  0.00    +0.000 A 
ATOM      9  C   UNL     1       3.093   6.484  19.627  0.00  0.00    +0.000 A 
ATOM     10  C   UNL     1       3.578   5.539  18.714  0.00  0.00    +0.000 A 
ATOM     11  C   UNL     1       4.740   5.627  17.919  0.00  0.00    +0.000 A 
ATOM     12  C   UNL     1       5.682   6.677  17.842  0.00  0.00    +0.000 A 
ATOM     13  C   UNL     1       6.794   6.548  16.972  0.00  0.00    +0.000 A 
ENDROOT
BRANCH   8  14
ATOM     14  O   UNL     1       1.393   7.055  21.272  0.00  0.00    +0.000 OA
BRANCH  14  15
ATOM     15  C   UNL     1       0.331   7.909  21.041  0.00  0.00    +0.000 C 
BRANCH  15  16
ATOM     16  C   UNL     1       0.837   9.276  20.563  0.00  0.00    +0.000 C 
BRANCH  16  17
ATOM     17  N   UNL     1      -0.240  10.118  19.992  0.00  0.00    +0.000 NA
ATOM     18  C   UNL     1      -0.114  11.546  20.374  0.00  0.00    +0.000 C 
ATOM     19  C   UNL     1      -1.306  12.344  19.835  0.00  0.00    +0.000 C 
ATOM     20  C   UNL     1      -1.363  12.229  18.314  0.00  0.00    +0.000 C 
ATOM     21  C   UNL     1      -1.431  10.753  17.916  0.00  0.00    +0.000 C 
ATOM     22  C   UNL     1      -0.239   9.994  18.515  0.00  0.00    +0.000 C 
ENDBRANCH  16  17
ENDBRANCH  15  16
ENDBRANCH  14  15
ENDBRANCH   8  14
BRANCH  13  23
ATOM     23  O   UNL     1       7.718   7.557  16.888  0.00  0.00    +0.000 OA
BRANCH  23  24
ATOM     24  C   UNL     1       7.608   8.727  17.626  0.00  0.00    +0.000 C 
BRANCH  24  25
ATOM     25  C   UNL     1       8.822   9.011  18.524  0.00  0.00    +0.000 C 
BRANCH  25  26
ATOM     26  N   UNL     1       8.964  10.465  18.819  0.00  0.00    +0.000 NA
ATOM     27  C   UNL     1       9.348  10.652  20.239  0.00  0.00    +0.000 C 
ATOM     28  C   UNL     1       9.438  12.145  20.599  0.00  0.00    +0.000 C 
ATOM     29  C   UNL     1      10.452  12.840  19.692  0.00  0.00    +0.000 C 
ATOM     30  C   UNL     1      10.038  12.638  18.241  0.00  0.00    +0.000 C 
ATOM     31  C   UNL     1       9.945  11.140  17.929  0.00  0.00    +0.000 C 
ENDBRANCH  25  26
ENDBRANCH  24  25
ENDBRANCH  23  24
ENDBRANCH  13  23
TORSDOF 8
ENDMDL
