MODEL 1
REMARK VINA RESULT:      -8.1      0.000      0.000
REMARK  Name = 
REMARK  6 active torsions:
REMARK  status: ('A' for Active; 'I' for Inactive)
REMARK    1  A    between atoms: C_2  and  C_4
REMARK    2  A    between atoms: C_6  and  C_7
REMARK    3  A    between atoms: C_8  and  C_9
REMARK    4  A    between atoms: C_14  and  N_15
REMARK    5  A    between atoms: N_15  and  C_16
REMARK    6  A    between atoms: C_19  and  O_20
REMARK                            x       y       z     vdW  Elec       q    Type
REMARK                         _______ _______ _______ _____ _____    ______ ____
ROOT
ATOM      1  C   UNL     1       6.516   5.479  16.343  0.00  0.00    +0.000 A 
ATOM      2  C   UNL     1       7.166   6.695  16.626  0.00  0.00    +0.000 A 
ATOM      3  C   UNL     1       7.421   7.062  17.952  0.00  0.00    +0.000 A 
ATOM      4  C   UNL     1       6.977   6.238  18.984  0.00  0.00    +0.000 A 
ATOM      5  C   UNL     1       6.279   5.055  18.701  0.00  0.00    +0.000 A 
ATOM      6  C   UNL     1       6.026   4.650  17.384  0.00  0.00    +0.000 A 
ENDROOT
BRANCH   1   8
ATOM      7  N   UNL     1       7.417   5.224  14.083  0.00  0.00    +0.000 N 
ATOM      8  C   UNL     1       6.344   5.066  14.911  0.00  0.00    +0.000 C 
ATOM      9  O   UNL     1       5.308   4.547  14.499  0.00  0.00    +0.000 OA
ATOM     10  H   UNL     1       7.341   4.786  13.168  0.00  0.00    +0.000 HD
ATOM     11  H   UNL     1       8.351   5.371  14.440  0.00  0.00    +0.000 HD
ENDBRANCH   1   8
BRANCH   3  12
ATOM     12  C   UNL     1       8.188   8.234  18.259  0.00  0.00    +0.000 C 
ATOM     13  C   UNL     1       8.772   9.251  18.521  0.00  0.00    +0.000 C 
BRANCH  13  14
ATOM     14  C   UNL     1       9.430  10.482  18.861  0.00  0.00    +0.000 C 
ATOM     15  C   UNL     1      10.317  11.144  17.839  0.00  0.00    +0.000 C 
ATOM     16  C   UNL     1       8.992  11.757  18.186  0.00  0.00    +0.000 C 
ENDBRANCH  13  14
ENDBRANCH   3  12
BRANCH   6  17
ATOM     17  N   UNL     1       5.412   3.425  17.113  0.00  0.00    +0.000 N 
ATOM     18  H   UNL     1       5.674   3.064  16.186  0.00  0.00    +0.000 HD
BRANCH  17  19
ATOM     19  C   UNL     1       4.059   3.047  17.527  0.00  0.00    +0.000 C 
ATOM     20  C   UNL     1       3.994   2.414  18.929  0.00  0.00    +0.000 C 
ATOM     21  C   UNL     1       2.543   2.159  19.355  0.00  0.00    +0.000 C 
ATOM     22  C   UNL     1       1.726   3.449  19.336  0.00  0.00    +0.000 C 
ATOM     23  C   UNL     1       1.773   4.103  17.958  0.00  0.00    +0.000 C 
ATOM     24  C   UNL     1       3.206   4.334  17.497  0.00  0.00    +0.000 C 
BRANCH  22  25
ATOM     25  O   UNL     1       0.376   3.174  19.692  0.00  0.00    +0.000 OA
ATOM     26  H   UNL     1      -0.208   3.606  19.046  0.00  0.00    +0.000 HD
ENDBRANCH  22  25
ENDBRANCH  17  19
ENDBRANCH   6  17
TORSDOF 6
ENDMDL
MODEL 2
REMARK VINA RESULT:      -7.8      1.258      1.556
REMARK  Name = 
REMARK  6 active torsions:
REMARK  status: ('A' for Active; 'I' for Inactive)
REMARK    1  A    between atoms: C_2  and  C_4
REMARK    2  A    between atoms: C_6  and  C_7
REMARK    3  A    between atoms: C_8  and  C_9
REMARK    4  A    between atoms: C_14  and  N_15
REMARK    5  A    between atoms: N_15  and  C_16
REMARK    6  A    between atoms: C_19  and  O_20
REMARK                            x       y       z     vdW  Elec       q    Type
REMARK                         _______ _______ _______ _____ _____    ______ ____
ROOT
ATOM      1  C   UNL     1       6.396   6.207  17.097  0.00  0.00    +0.000 A 
ATOM      2  C   UNL     1       6.998   7.477  17.158  0.00  0.00    +0.000 A 
ATOM      3  C   UNL     1       7.870   7.791  18.206  0.00  0.00    +0.000 A 
ATOM      4  C   UNL     1       8.090   6.853  19.213  0.00  0.00    +0.000 A 
ATOM      5  C   UNL     1       7.444   5.609  19.181  0.00  0.00    +0.000 A 
ATOM      6  C   UNL     1       6.582   5.257  18.135  0.00  0.00    +0.000 A 
ENDROOT
BRANCH   1   8
ATOM      7  N   UNL     1       4.892   6.893  15.294  0.00  0.00    +0.000 N 
ATOM      8  C   UNL     1       5.544   5.865  15.911  0.00  0.00    +0.000 C 
ATOM      9  O   UNL     1       5.474   4.722  15.462  0.00  0.00    +0.000 OA
ATOM     10  H   UNL     1       4.462   6.673  14.399  0.00  0.00    +0.000 HD
ATOM     11  H   UNL     1       5.149   7.858  15.449  0.00  0.00    +0.000 HD
ENDBRANCH   1   8
BRANCH   3  12
ATOM     12  C   UNL     1       8.589   9.032  18.222  0.00  0.00    +0.000 C 
ATOM     13  C   UNL     1       9.145  10.096  18.282  0.00  0.00    +0.000 C 
BRANCH  13  14
ATOM     14  C   UNL     1       9.794  11.371  18.401  0.00  0.00    +0.000 C 
ATOM     15  C   UNL     1      10.994  11.500  19.303  0.00  0.00    +0.000 C 
ATOM     16  C   UNL     1      11.172  11.549  17.813  0.00  0.00    +0.000 C 
ENDBRANCH  13  14
ENDBRANCH   3  12
BRANCH   6  17
ATOM     17  N   UNL     1       6.017   3.981  18.065  0.00  0.00    +0.000 N 
ATOM     18  H   UNL     1       6.084   3.586  17.118  0.00  0.00    +0.000 HD
BRANCH  17  19
ATOM     19  C   UNL     1       4.829   3.541  18.799  0.00  0.00    +0.000 C 
ATOM     20  C   UNL     1       4.060   4.690  19.479  0.00  0.00    +0.000 C 
ATOM     21  C   UNL     1       2.762   4.185  20.120  0.00  0.00    +0.000 C 
ATOM     22  C   UNL     1       1.863   3.505  19.090  0.00  0.00    +0.000 C 
ATOM     23  C   UNL     1       2.599   2.362  18.397  0.00  0.00    +0.000 C 
ATOM     24  C   UNL     1       3.910   2.832  17.781  0.00  0.00    +0.000 C 
BRANCH  22  25
ATOM     25  O   UNL     1       0.689   3.008  19.722  0.00  0.00    +0.000 OA
ATOM     26  H   UNL     1       0.857   2.943  20.678  0.00  0.00    +0.000 HD
ENDBRANCH  22  25
ENDBRANCH  17  19
ENDBRANCH   6  17
TORSDOF 6
ENDMDL
MODEL 3
REMARK VINA RESULT:      -7.5      1.327      1.835
REMARK  Name = 
REMARK  6 active torsions:
REMARK  status: ('A' for Active; 'I' for Inactive)
REMARK    1  A    between atoms: C_2  and  C_4
REMARK    2  A    between atoms: C_6  and  C_7
REMARK    3  A    between atoms: C_8  and  C_9
REMARK    4  A    between atoms: C_14  and  N_15
REMARK    5  A    between atoms: N_15  and  C_16
REMARK    6  A    between atoms: C_19  and  O_20
REMARK                            x       y       z     vdW  Elec       q    Type
REMARK                         _______ _______ _______ _____ _____    ______ ____
ROOT
ATOM      1  C   UNL     1       6.737   6.358  17.090  0.00  0.00    +0.000 A 
ATOM      2  C   UNL     1       7.356   7.618  17.189  0.00  0.00    +0.000 A 
ATOM      3  C   UNL     1       8.119   7.938  18.317  0.00  0.00    +0.000 A 
ATOM      4  C   UNL     1       8.212   7.019  19.360  0.00  0.00    +0.000 A 
ATOM      5  C   UNL     1       7.547   5.787  19.284  0.00  0.00    +0.000 A 
ATOM      6  C   UNL     1       6.792   5.427  18.160  0.00  0.00    +0.000 A 
ENDROOT
BRANCH   1   8
ATOM      7  N   UNL     1       4.982   6.824  15.451  0.00  0.00    +0.000 N 
ATOM      8  C   UNL     1       6.007   6.006  15.827  0.00  0.00    +0.000 C 
ATOM      9  O   UNL     1       6.345   5.061  15.117  0.00  0.00    +0.000 OA
ATOM     10  H   UNL     1       4.613   6.673  14.516  0.00  0.00    +0.000 HD
ATOM     11  H   UNL     1       4.865   7.748  15.841  0.00  0.00    +0.000 HD
ENDBRANCH   1   8
BRANCH   3  12
ATOM     12  C   UNL     1       8.858   9.165  18.384  0.00  0.00    +0.000 C 
ATOM     13  C   UNL     1       9.420  10.224  18.466  0.00  0.00    +0.000 C 
BRANCH  13  14
ATOM     14  C   UNL     1      10.063  11.501  18.602  0.00  0.00    +0.000 C 
ATOM     15  C   UNL     1      11.465  11.560  19.152  0.00  0.00    +0.000 C 
ATOM     16  C   UNL     1      11.221  11.838  17.697  0.00  0.00    +0.000 C 
ENDBRANCH  13  14
ENDBRANCH   3  12
BRANCH   6  17
ATOM     17  N   UNL     1       6.211   4.162  18.057  0.00  0.00    +0.000 N 
ATOM     18  H   UNL     1       6.632   3.610  17.298  0.00  0.00    +0.000 HD
BRANCH  17  19
ATOM     19  C   UNL     1       4.796   3.860  18.283  0.00  0.00    +0.000 C 
ATOM     20  C   UNL     1       4.101   3.204  17.075  0.00  0.00    +0.000 C 
ATOM     21  C   UNL     1       2.663   2.797  17.416  0.00  0.00    +0.000 C 
ATOM     22  C   UNL     1       2.625   1.845  18.608  0.00  0.00    +0.000 C 
ATOM     23  C   UNL     1       3.309   2.466  19.823  0.00  0.00    +0.000 C 
ATOM     24  C   UNL     1       4.730   2.911  19.499  0.00  0.00    +0.000 C 
BRANCH  22  25
ATOM     25  O   UNL     1       1.277   1.520  18.928  0.00  0.00    +0.000 OA
ATOM     26  H   UNL     1       0.756   2.341  18.936  0.00  0.00    +0.000 HD
ENDBRANCH  22  25
ENDBRANCH  17  19
ENDBRANCH   6  17
TORSDOF 6
ENDMDL
MODEL 4
REMARK VINA RESULT:      -7.5      2.828      5.745
REMARK  Name = 
REMARK  6 active torsions:
REMARK  status: ('A' for Active; 'I' for Inactive)
REMARK    1  A    between atoms: C_2  and  C_4
REMARK    2  A    between atoms: C_6  and  C_7
REMARK    3  A    between atoms: C_8  and  C_9
REMARK    4  A    between atoms: C_14  and  N_15
REMARK    5  A    between atoms: N_15  and  C_16
REMARK    6  A    between atoms: C_19  and  O_20
REMARK                            x       y       z     vdW  Elec       q    Type
REMARK                         _______ _______ _______ _____ _____    ______ ____
ROOT
ATOM      1  C   UNL     1       6.411   5.567  16.998  0.00  0.00    +0.000 A 
ATOM      2  C   UNL     1       6.740   5.014  15.746  0.00  0.00    +0.000 A 
ATOM      3  C   UNL     1       5.805   4.237  15.055  0.00  0.00    +0.000 A 
ATOM      4  C   UNL     1       4.570   3.973  15.644  0.00  0.00    +0.000 A 
ATOM      5  C   UNL     1       4.266   4.476  16.917  0.00  0.00    +0.000 A 
ATOM      6  C   UNL     1       5.173   5.275  17.626  0.00  0.00    +0.000 A 
ENDROOT
BRANCH   1   8
ATOM      7  N   UNL     1       7.634   7.684  17.082  0.00  0.00    +0.000 N 
ATOM      8  C   UNL     1       7.397   6.476  17.671  0.00  0.00    +0.000 C 
ATOM      9  O   UNL     1       7.930   6.188  18.740  0.00  0.00    +0.000 OA
ATOM     10  H   UNL     1       8.167   8.351  17.633  0.00  0.00    +0.000 HD
ATOM     11  H   UNL     1       7.015   8.067  16.381  0.00  0.00    +0.000 HD
ENDBRANCH   1   8
BRANCH   3  12
ATOM     12  C   UNL     1       6.073   3.767  13.727  0.00  0.00    +0.000 C 
ATOM     13  C   UNL     1       6.259   3.317  12.628  0.00  0.00    +0.000 C 
BRANCH  13  14
ATOM     14  C   UNL     1       6.438   2.757  11.318  0.00  0.00    +0.000 C 
ATOM     15  C   UNL     1       7.565   1.785  11.085  0.00  0.00    +0.000 C 
ATOM     16  C   UNL     1       6.147   1.293  11.101  0.00  0.00    +0.000 C 
ENDBRANCH  13  14
ENDBRANCH   3  12
BRANCH   6  17
ATOM     17  N   UNL     1       4.824   5.847  18.851  0.00  0.00    +0.000 N 
ATOM     18  H   UNL     1       5.620   6.330  19.288  0.00  0.00    +0.000 HD
BRANCH  17  19
ATOM     19  C   UNL     1       3.890   5.267  19.820  0.00  0.00    +0.000 C 
ATOM     20  C   UNL     1       2.423   5.674  19.586  0.00  0.00    +0.000 C 
ATOM     21  C   UNL     1       1.484   4.937  20.548  0.00  0.00    +0.000 C 
ATOM     22  C   UNL     1       1.625   3.423  20.410  0.00  0.00    +0.000 C 
ATOM     23  C   UNL     1       3.071   2.989  20.634  0.00  0.00    +0.000 C 
ATOM     24  C   UNL     1       4.029   3.733  19.712  0.00  0.00    +0.000 C 
BRANCH  22  25
ATOM     25  O   UNL     1       0.776   2.768  21.344  0.00  0.00    +0.000 OA
ATOM     26  H   UNL     1       1.056   3.015  22.242  0.00  0.00    +0.000 HD
ENDBRANCH  22  25
ENDBRANCH  17  19
ENDBRANCH   6  17
TORSDOF 6
ENDMDL
MODEL 5
REMARK VINA RESULT:      -7.1      3.945      6.887
REMARK  Name = 
REMARK  6 active torsions:
REMARK  status: ('A' for Active; 'I' for Inactive)
REMARK    1  A    between atoms: C_2  and  C_4
REMARK    2  A    between atoms: C_6  and  C_7
REMARK    3  A    between atoms: C_8  and  C_9
REMARK    4  A    between atoms: C_14  and  N_15
REMARK    5  A    between atoms: N_15  and  C_16
REMARK    6  A    between atoms: C_19  and  O_20
REMARK                            x       y       z     vdW  Elec       q    Type
REMARK                         _______ _______ _______ _____ _____    ______ ____
ROOT
ATOM      1  C   UNL     1       2.341   4.571  20.095  0.00  0.00    +0.000 A 
ATOM      2  C   UNL     1       1.849   5.684  20.802  0.00  0.00    +0.000 A 
ATOM      3  C   UNL     1       1.991   6.970  20.272  0.00  0.00    +0.000 A 
ATOM      4  C   UNL     1       2.672   7.140  19.068  0.00  0.00    +0.000 A 
ATOM      5  C   UNL     1       3.212   6.035  18.394  0.00  0.00    +0.000 A 
ATOM      6  C   UNL     1       3.069   4.732  18.888  0.00  0.00    +0.000 A 
ENDROOT
BRANCH   1   8
ATOM      7  N   UNL     1       2.341   2.995  21.967  0.00  0.00    +0.000 N 
ATOM      8  C   UNL     1       2.088   3.196  20.641  0.00  0.00    +0.000 C 
ATOM      9  O   UNL     1       1.613   2.295  19.952  0.00  0.00    +0.000 OA
ATOM     10  H   UNL     1       2.006   2.117  22.355  0.00  0.00    +0.000 HD
ATOM     11  H   UNL     1       2.452   3.764  22.612  0.00  0.00    +0.000 HD
ENDBRANCH   1   8
BRANCH   3  12
ATOM     12  C   UNL     1       1.391   8.104  20.913  0.00  0.00    +0.000 C 
ATOM     13  C   UNL     1       0.931   9.044  21.504  0.00  0.00    +0.000 C 
BRANCH  13  14
ATOM     14  C   UNL     1       0.426  10.175  22.231  0.00  0.00    +0.000 C 
ATOM     15  C   UNL     1      -0.900  10.769  21.831  0.00  0.00    +0.000 C 
ATOM     16  C   UNL     1      -0.784   9.997  23.114  0.00  0.00    +0.000 C 
ENDBRANCH  13  14
ENDBRANCH   3  12
BRANCH   6  17
ATOM     17  N   UNL     1       3.530   3.631  18.162  0.00  0.00    +0.000 N 
ATOM     18  H   UNL     1       3.463   2.761  18.705  0.00  0.00    +0.000 HD
BRANCH  17  19
ATOM     19  C   UNL     1       4.654   3.649  17.223  0.00  0.00    +0.000 C 
ATOM     20  C   UNL     1       4.321   4.305  15.871  0.00  0.00    +0.000 C 
ATOM     21  C   UNL     1       5.567   4.408  14.983  0.00  0.00    +0.000 C 
ATOM     22  C   UNL     1       6.678   5.194  15.675  0.00  0.00    +0.000 C 
ATOM     23  C   UNL     1       7.028   4.568  17.023  0.00  0.00    +0.000 C 
ATOM     24  C   UNL     1       5.799   4.424  17.910  0.00  0.00    +0.000 C 
BRANCH  22  25
ATOM     25  O   UNL     1       7.834   5.234  14.847  0.00  0.00    +0.000 OA
ATOM     26  H   UNL     1       8.608   5.415  15.407  0.00  0.00    +0.000 HD
ENDBRANCH  22  25
ENDBRANCH  17  19
ENDBRANCH   6  17
TORSDOF 6
ENDMDL
MODEL 6
REMARK VINA RESULT:      -7.1      4.167      6.859
REMARK  Name = 
REMARK  6 active torsions:
REMARK  status: ('A' for Active; 'I' for Inactive)
REMARK    1  A    between atoms: C_2  and  C_4
REMARK    2  A    between atoms: C_6  and  C_7
REMARK    3  A    between atoms: C_8  and  C_9
REMARK    4  A    between atoms: C_14  and  N_15
REMARK    5  A    between atoms: N_15  and  C_16
REMARK    6  A    between atoms: C_19  and  O_20
REMARK                            x       y       z     vdW  Elec       q    Type
REMARK                         _______ _______ _______ _____ _____    ______ ____
ROOT
ATOM      1  C   UNL     1       2.224   4.811  20.559  0.00  0.00    +0.000 A 
ATOM      2  C   UNL     1       1.573   5.963  21.036  0.00  0.00    +0.000 A 
ATOM      3  C   UNL     1       1.759   7.191  20.393  0.00  0.00    +0.000 A 
ATOM      4  C   UNL     1       2.636   7.268  19.313  0.00  0.00    +0.000 A 
ATOM      5  C   UNL     1       3.329   6.130  18.876  0.00  0.00    +0.000 A 
ATOM      6  C   UNL     1       3.149   4.882  19.486  0.00  0.00    +0.000 A 
ENDROOT
BRANCH   1   8
ATOM      7  N   UNL     1       0.764   2.871  20.861  0.00  0.00    +0.000 N 
ATOM      8  C   UNL     1       1.930   3.491  21.209  0.00  0.00    +0.000 C 
ATOM      9  O   UNL     1       2.722   2.946  21.975  0.00  0.00    +0.000 OA
ATOM     10  H   UNL     1       0.661   1.909  21.175  0.00  0.00    +0.000 HD
ATOM     11  H   UNL     1       0.241   3.139  20.040  0.00  0.00    +0.000 HD
ENDBRANCH   1   8
BRANCH   3  12
ATOM     12  C   UNL     1       1.011   8.351  20.784  0.00  0.00    +0.000 C 
ATOM     13  C   UNL     1       0.445   9.357  21.117  0.00  0.00    +0.000 C 
BRANCH  13  14
ATOM     14  C   UNL     1      -0.196  10.586  21.493  0.00  0.00    +0.000 C 
ATOM     15  C   UNL     1       0.371  11.890  20.994  0.00  0.00    +0.000 C 
ATOM     16  C   UNL     1      -0.929  11.382  20.442  0.00  0.00    +0.000 C 
ENDBRANCH  13  14
ENDBRANCH   3  12
BRANCH   6  17
ATOM     17  N   UNL     1       3.772   3.738  18.983  0.00  0.00    +0.000 N 
ATOM     18  H   UNL     1       3.904   3.024  19.712  0.00  0.00    +0.000 HD
BRANCH  17  19
ATOM     19  C   UNL     1       4.819   3.727  17.958  0.00  0.00    +0.000 C 
ATOM     20  C   UNL     1       4.341   4.220  16.580  0.00  0.00    +0.000 C 
ATOM     21  C   UNL     1       5.507   4.306  15.588  0.00  0.00    +0.000 C 
ATOM     22  C   UNL     1       6.611   5.224  16.107  0.00  0.00    +0.000 C 
ATOM     23  C   UNL     1       7.104   4.762  17.476  0.00  0.00    +0.000 C 
ATOM     24  C   UNL     1       5.957   4.635  18.471  0.00  0.00    +0.000 C 
BRANCH  22  25
ATOM     25  O   UNL     1       7.696   5.249  15.188  0.00  0.00    +0.000 OA
ATOM     26  H   UNL     1       8.352   5.894  15.501  0.00  0.00    +0.000 HD
ENDBRANCH  22  25
ENDBRANCH  17  19
ENDBRANCH   6  17
TORSDOF 6
ENDMDL
MODEL 7
REMARK VINA RESULT:      -7.0      4.703      7.143
REMARK  Name = 
REMARK  6 active torsions:
REMARK  status: ('A' for Active; 'I' for Inactive)
REMARK    1  A    between atoms: C_2  and  C_4
REMARK    2  A    between atoms: C_6  and  C_7
REMARK    3  A    between atoms: C_8  and  C_9
REMARK    4  A    between atoms: C_14  and  N_15
REMARK    5  A    between atoms: N_15  and  C_16
REMARK    6  A    between atoms: C_19  and  O_20
REMARK                            x       y       z     vdW  Elec       q    Type
REMARK                         _______ _______ _______ _____ _____    ______ ____
ROOT
ATOM      1  C   UNL     1       2.330   5.044  19.672  0.00  0.00    +0.000 A 
ATOM      2  C   UNL     1       3.052   4.462  18.614  0.00  0.00    +0.000 A 
ATOM      3  C   UNL     1       3.735   5.273  17.701  0.00  0.00    +0.000 A 
ATOM      4  C   UNL     1       3.645   6.658  17.821  0.00  0.00    +0.000 A 
ATOM      5  C   UNL     1       2.878   7.236  18.842  0.00  0.00    +0.000 A 
ATOM      6  C   UNL     1       2.199   6.452  19.784  0.00  0.00    +0.000 A 
ENDROOT
BRANCH   1   8
ATOM      7  N   UNL     1       0.559   3.483  20.315  0.00  0.00    +0.000 N 
ATOM      8  C   UNL     1       1.690   4.148  20.692  0.00  0.00    +0.000 C 
ATOM      9  O   UNL     1       2.184   3.960  21.802  0.00  0.00    +0.000 OA
ATOM     10  H   UNL     1       0.238   2.757  20.950  0.00  0.00    +0.000 HD
ATOM     11  H   UNL     1       0.294   3.387  19.345  0.00  0.00    +0.000 HD
ENDBRANCH   1   8
BRANCH   3  12
ATOM     12  C   UNL     1       4.576   4.701  16.690  0.00  0.00    +0.000 C 
ATOM     13  C   UNL     1       5.321   4.278  15.847  0.00  0.00    +0.000 C 
BRANCH  13  14
ATOM     14  C   UNL     1       6.248   3.798  14.862  0.00  0.00    +0.000 C 
ATOM     15  C   UNL     1       5.872   3.873  13.405  0.00  0.00    +0.000 C 
ATOM     16  C   UNL     1       6.929   4.789  13.951  0.00  0.00    +0.000 C 
ENDBRANCH  13  14
ENDBRANCH   3  12
BRANCH   6  17
ATOM     17  N   UNL     1       1.515   7.038  20.851  0.00  0.00    +0.000 N 
ATOM     18  H   UNL     1       0.693   6.486  21.127  0.00  0.00    +0.000 HD
BRANCH  17  19
ATOM     19  C   UNL     1       1.347   8.479  21.058  0.00  0.00    +0.000 C 
ATOM     20  C   UNL     1       0.860   9.232  19.806  0.00  0.00    +0.000 C 
ATOM     21  C   UNL     1       0.581  10.707  20.121  0.00  0.00    +0.000 C 
ATOM     22  C   UNL     1      -0.449  10.850  21.238  0.00  0.00    +0.000 C 
ATOM     23  C   UNL     1       0.004  10.110  22.494  0.00  0.00    +0.000 C 
ATOM     24  C   UNL     1       0.321   8.650  22.200  0.00  0.00    +0.000 C 
BRANCH  22  25
ATOM     25  O   UNL     1      -0.654  12.226  21.537  0.00  0.00    +0.000 OA
ATOM     26  H   UNL     1      -0.535  12.740  20.721  0.00  0.00    +0.000 HD
ENDBRANCH  22  25
ENDBRANCH  17  19
ENDBRANCH   6  17
TORSDOF 6
ENDMDL
MODEL 8
REMARK VINA RESULT:      -7.0      4.683      7.282
REMARK  Name = 
REMARK  6 active torsions:
REMARK  status: ('A' for Active; 'I' for Inactive)
REMARK    1  A    between atoms: C_2  and  C_4
REMARK    2  A    between atoms: C_6  and  C_7
REMARK    3  A    between atoms: C_8  and  C_9
REMARK    4  A    between atoms: C_14  and  N_15
REMARK    5  A    between atoms: N_15  and  C_16
REMARK    6  A    between atoms: C_19  and  O_20
REMARK                            x       y       z     vdW  Elec       q    Type
REMARK                         _______ _______ _______ _____ _____    ______ ____
ROOT
ATOM      1  C   UNL     1       1.973   5.696  20.138  0.00  0.00    +0.000 A 
ATOM      2  C   UNL     1       1.334   6.602  21.005  0.00  0.00    +0.000 A 
ATOM      3  C   UNL     1       1.271   7.960  20.678  0.00  0.00    +0.000 A 
ATOM      4  C   UNL     1       1.894   8.411  19.516  0.00  0.00    +0.000 A 
ATOM      5  C   UNL     1       2.581   7.515  18.683  0.00  0.00    +0.000 A 
ATOM      6  C   UNL     1       2.644   6.146  18.972  0.00  0.00    +0.000 A 
ENDROOT
BRANCH   1   8
ATOM      7  N   UNL     1       0.719   3.621  20.468  0.00  0.00    +0.000 N 
ATOM      8  C   UNL     1       1.940   4.232  20.467  0.00  0.00    +0.000 C 
ATOM      9  O   UNL     1       2.964   3.582  20.666  0.00  0.00    +0.000 OA
ATOM     10  H   UNL     1       0.731   2.606  20.523  0.00  0.00    +0.000 HD
ATOM     11  H   UNL     1      -0.090   4.044  20.036  0.00  0.00    +0.000 HD
ENDBRANCH   1   8
BRANCH   3  12
ATOM     12  C   UNL     1       0.520   8.880  21.482  0.00  0.00    +0.000 C 
ATOM     13  C   UNL     1      -0.094   9.700  22.110  0.00  0.00    +0.000 C 
BRANCH  13  14
ATOM     14  C   UNL     1      -0.837  10.704  22.819  0.00  0.00    +0.000 C 
ATOM     15  C   UNL     1      -0.571  12.157  22.524  0.00  0.00    +0.000 C 
ATOM     16  C   UNL     1      -1.855  11.527  22.069  0.00  0.00    +0.000 C 
ENDBRANCH  13  14
ENDBRANCH   3  12
BRANCH   6  17
ATOM     17  N   UNL     1       3.251   5.250  18.088  0.00  0.00    +0.000 N 
ATOM     18  H   UNL     1       3.386   4.325  18.516  0.00  0.00    +0.000 HD
BRANCH  17  19
ATOM     19  C   UNL     1       4.282   5.598  17.108  0.00  0.00    +0.000 C 
ATOM     20  C   UNL     1       5.628   5.997  17.739  0.00  0.00    +0.000 C 
ATOM     21  C   UNL     1       6.698   6.224  16.665  0.00  0.00    +0.000 C 
ATOM     22  C   UNL     1       6.887   4.980  15.800  0.00  0.00    +0.000 C 
ATOM     23  C   UNL     1       5.567   4.557  15.161  0.00  0.00    +0.000 C 
ATOM     24  C   UNL     1       4.477   4.359  16.206  0.00  0.00    +0.000 C 
BRANCH  22  25
ATOM     25  O   UNL     1       7.853   5.235  14.787  0.00  0.00    +0.000 OA
ATOM     26  H   UNL     1       7.858   6.188  14.598  0.00  0.00    +0.000 HD
ENDBRANCH  22  25
ENDBRANCH  17  19
ENDBRANCH   6  17
TORSDOF 6
ENDMDL
MODEL 9
REMARK VINA RESULT:      -7.0      6.454      7.843
REMARK  Name = 
REMARK  6 active torsions:
REMARK  status: ('A' for Active; 'I' for Inactive)
REMARK    1  A    between atoms: C_2  and  C_4
REMARK    2  A    between atoms: C_6  and  C_7
REMARK    3  A    between atoms: C_8  and  C_9
REMARK    4  A    between atoms: C_14  and  N_15
REMARK    5  A    between atoms: N_15  and  C_16
REMARK    6  A    between atoms: C_19  and  O_20
REMARK                            x       y       z     vdW  Elec       q    Type
REMARK                         _______ _______ _______ _____ _____    ______ ____
ROOT
ATOM      1  C   UNL     1       1.340   9.236  19.352  0.00  0.00    +0.000 A 
ATOM      2  C   UNL     1       0.471  10.147  19.982  0.00  0.00    +0.000 A 
ATOM      3  C   UNL     1       0.001   9.888  21.274  0.00  0.00    +0.000 A 
ATOM      4  C   UNL     1       0.359   8.697  21.903  0.00  0.00    +0.000 A 
ATOM      5  C   UNL     1       1.178   7.765  21.250  0.00  0.00    +0.000 A 
ATOM      6  C   UNL     1       1.682   8.004  19.965  0.00  0.00    +0.000 A 
ENDROOT
BRANCH   1   8
ATOM      7  N   UNL     1       2.153  10.907  17.759  0.00  0.00    +0.000 N 
ATOM      8  C   UNL     1       1.905   9.587  18.007  0.00  0.00    +0.000 C 
ATOM      9  O   UNL     1       2.196   8.730  17.175  0.00  0.00    +0.000 OA
ATOM     10  H   UNL     1       2.689  11.108  16.919  0.00  0.00    +0.000 HD
ATOM     11  H   UNL     1       2.199  11.590  18.502  0.00  0.00    +0.000 HD
ENDBRANCH   1   8
BRANCH   3  12
ATOM     12  C   UNL     1      -0.783  10.857  21.983  0.00  0.00    +0.000 C 
ATOM     13  C   UNL     1      -1.382  11.705  22.589  0.00  0.00    +0.000 C 
BRANCH  13  14
ATOM     14  C   UNL     1      -2.064  12.750  23.298  0.00  0.00    +0.000 C 
ATOM     15  C   UNL     1      -3.232  13.439  22.641  0.00  0.00    +0.000 C 
ATOM     16  C   UNL     1      -3.468  12.505  23.793  0.00  0.00    +0.000 C 
ENDBRANCH  13  14
ENDBRANCH   3  12
BRANCH   6  17
ATOM     17  N   UNL     1       2.570   7.111  19.362  0.00  0.00    +0.000 N 
ATOM     18  H   UNL     1       3.009   7.516  18.524  0.00  0.00    +0.000 HD
BRANCH  17  19
ATOM     19  C   UNL     1       2.387   5.660  19.281  0.00  0.00    +0.000 C 
ATOM     20  C   UNL     1       1.919   5.171  17.898  0.00  0.00    +0.000 C 
ATOM     21  C   UNL     1       1.869   3.640  17.839  0.00  0.00    +0.000 C 
ATOM     22  C   UNL     1       3.230   3.028  18.166  0.00  0.00    +0.000 C 
ATOM     23  C   UNL     1       3.722   3.497  19.532  0.00  0.00    +0.000 C 
ATOM     24  C   UNL     1       3.748   5.017  19.627  0.00  0.00    +0.000 C 
BRANCH  22  25
ATOM     25  O   UNL     1       3.141   1.608  18.147  0.00  0.00    +0.000 OA
ATOM     26  H   UNL     1       2.732   1.335  17.309  0.00  0.00    +0.000 HD
ENDBRANCH  22  25
ENDBRANCH  17  19
ENDBRANCH   6  17
TORSDOF 6
ENDMDL
