MODEL 1
REMARK VINA RESULT:      -6.9      0.000      0.000
REMARK  Name = 
REMARK  5 active torsions:
REMARK  status: ('A' for Active; 'I' for Inactive)
REMARK    1  A    between atoms: C_1  and  C_2
REMARK    2  A    between atoms: C_2  and  C_3
REMARK    3  A    between atoms: C_9  and  C_10
REMARK    4  A    between atoms: C_11  and  O_12
REMARK    5  A    between atoms: C_16  and  C_17
REMARK                            x       y       z     vdW  Elec       q    Type
REMARK                         _______ _______ _______ _____ _____    ______ ____
ROOT
ATOM      1  C   UNL     1      10.173  11.307  19.215  0.00  0.00    +0.000 C 
ATOM      2  C   UNL     1      10.263  11.425  20.750  0.00  0.00    +0.000 C 
ATOM      3  C   UNL     1       9.576  12.722  21.206  0.00  0.00    +0.000 C 
ATOM      4  C   UNL     1      10.449  13.915  20.731  0.00  0.00    +0.000 C 
ATOM      5  C   UNL     1       9.983  15.261  21.321  0.00  0.00    +0.000 C 
ATOM      6  C   UNL     1       9.591  15.188  22.781  0.00  0.00    +0.000 C 
ATOM      7  C   UNL     1       8.597  14.083  23.161  0.00  0.00    +0.000 C 
ATOM      8  C   UNL     1       8.457  14.180  24.706  0.00  0.00    +0.000 C 
ATOM      9  C   UNL     1       7.151  14.064  22.564  0.00  0.00    +0.000 C 
ATOM     10  C   UNL     1       6.671  12.649  22.933  0.00  0.00    +0.000 C 
ATOM     11  C   UNL     1       7.935  11.767  22.931  0.00  0.00    +0.000 C 
ATOM     12  C   UNL     1       9.148  12.709  22.703  0.00  0.00    +0.000 C 
ATOM     13  C   UNL     1      10.548  13.962  19.138  0.00  0.00    +0.000 C 
ATOM     14  C   UNL     1       9.269  14.602  18.531  0.00  0.00    +0.000 C 
ATOM     15  C   UNL     1      11.748  14.870  18.714  0.00  0.00    +0.000 C 
ATOM     16  C   UNL     1      11.989  14.830  17.200  0.00  0.00    +0.000 C 
ATOM     17  C   UNL     1      12.333  13.416  16.752  0.00  0.00    +0.000 C 
ATOM     18  C   UNL     1      11.575  12.346  17.477  0.00  0.00    +0.000 C 
ATOM     19  C   UNL     1      10.756  12.544  18.539  0.00  0.00    +0.000 C 
ENDROOT
BRANCH   1  21
ATOM     20  C   UNL     1       8.600   9.478  18.266  0.00  0.00    +0.000 C 
ATOM     21  C   UNL     1       8.742  10.897  18.788  0.00  0.00    +0.000 C 
ENDBRANCH   1  21
BRANCH   9  22
ATOM     22  O   UNL     1       7.067  14.243  21.157  0.00  0.00    +0.000 OA
ATOM     23  H   UNL     1       6.588  13.490  20.760  0.00  0.00    +0.000 HD
ENDBRANCH   9  22
TORSDOF 2
ENDMDL
MODEL 2
REMARK VINA RESULT:      -6.4      7.889     11.654
REMARK  Name = 
REMARK  5 active torsions:
REMARK  status: ('A' for Active; 'I' for Inactive)
REMARK    1  A    between atoms: C_1  and  C_2
REMARK    2  A    between atoms: C_2  and  C_3
REMARK    3  A    between atoms: C_9  and  C_10
REMARK    4  A    between atoms: C_11  and  O_12
REMARK    5  A    between atoms: C_16  and  C_17
REMARK                            x       y       z     vdW  Elec       q    Type
REMARK                         _______ _______ _______ _____ _____    ______ ____
ROOT
ATOM      1  C   UNL     1       1.745   4.669  17.942  0.00  0.00    +0.000 C 
ATOM      2  C   UNL     1       2.663   5.901  17.799  0.00  0.00    +0.000 C 
ATOM      3  C   UNL     1       4.130   5.466  17.935  0.00  0.00    +0.000 C 
ATOM      4  C   UNL     1       4.367   5.048  19.412  0.00  0.00    +0.000 C 
ATOM      5  C   UNL     1       5.857   4.805  19.727  0.00  0.00    +0.000 C 
ATOM      6  C   UNL     1       6.788   5.823  19.106  0.00  0.00    +0.000 C 
ATOM      7  C   UNL     1       6.610   6.076  17.603  0.00  0.00    +0.000 C 
ATOM      8  C   UNL     1       7.611   7.216  17.264  0.00  0.00    +0.000 C 
ATOM      9  C   UNL     1       6.843   4.931  16.563  0.00  0.00    +0.000 C 
ATOM     10  C   UNL     1       6.228   5.528  15.286  0.00  0.00    +0.000 C 
ATOM     11  C   UNL     1       5.083   6.443  15.763  0.00  0.00    +0.000 C 
ATOM     12  C   UNL     1       5.141   6.475  17.314  0.00  0.00    +0.000 C 
ATOM     13  C   UNL     1       3.460   3.797  19.812  0.00  0.00    +0.000 C 
ATOM     14  C   UNL     1       4.092   2.476  19.294  0.00  0.00    +0.000 C 
ATOM     15  C   UNL     1       3.388   3.678  21.369  0.00  0.00    +0.000 C 
ATOM     16  C   UNL     1       2.405   2.588  21.815  0.00  0.00    +0.000 C 
ATOM     17  C   UNL     1       0.996   2.913  21.338  0.00  0.00    +0.000 C 
ATOM     18  C   UNL     1       0.943   3.540  19.978  0.00  0.00    +0.000 C 
ATOM     19  C   UNL     1       2.017   3.938  19.253  0.00  0.00    +0.000 C 
ENDROOT
BRANCH   1  21
ATOM     20  C   UNL     1       2.598   2.531  16.750  0.00  0.00    +0.000 C 
ATOM     21  C   UNL     1       1.787   3.812  16.653  0.00  0.00    +0.000 C 
ENDBRANCH   1  21
BRANCH   9  22
ATOM     22  O   UNL     1       6.209   3.694  16.862  0.00  0.00    +0.000 OA
ATOM     23  H   UNL     1       5.739   3.765  17.715  0.00  0.00    +0.000 HD
ENDBRANCH   9  22
TORSDOF 2
ENDMDL
MODEL 3
REMARK VINA RESULT:      -6.3      2.119      5.082
REMARK  Name = 
REMARK  5 active torsions:
REMARK  status: ('A' for Active; 'I' for Inactive)
REMARK    1  A    between atoms: C_1  and  C_2
REMARK    2  A    between atoms: C_2  and  C_3
REMARK    3  A    between atoms: C_9  and  C_10
REMARK    4  A    between atoms: C_11  and  O_12
REMARK    5  A    between atoms: C_16  and  C_17
REMARK                            x       y       z     vdW  Elec       q    Type
REMARK                         _______ _______ _______ _____ _____    ______ ____
ROOT
ATOM      1  C   UNL     1       9.626  13.732  21.260  0.00  0.00    +0.000 C 
ATOM      2  C   UNL     1      10.770  14.729  20.984  0.00  0.00    +0.000 C 
ATOM      3  C   UNL     1      10.569  15.370  19.602  0.00  0.00    +0.000 C 
ATOM      4  C   UNL     1      10.820  14.274  18.529  0.00  0.00    +0.000 C 
ATOM      5  C   UNL     1      10.869  14.847  17.099  0.00  0.00    +0.000 C 
ATOM      6  C   UNL     1      11.623  16.154  16.987  0.00  0.00    +0.000 C 
ATOM      7  C   UNL     1      11.218  17.257  17.973  0.00  0.00    +0.000 C 
ATOM      8  C   UNL     1      12.206  18.426  17.701  0.00  0.00    +0.000 C 
ATOM      9  C   UNL     1       9.774  17.857  17.957  0.00  0.00    +0.000 C 
ATOM     10  C   UNL     1       9.732  18.629  19.288  0.00  0.00    +0.000 C 
ATOM     11  C   UNL     1      10.650  17.850  20.249  0.00  0.00    +0.000 C 
ATOM     12  C   UNL     1      11.323  16.721  19.424  0.00  0.00    +0.000 C 
ATOM     13  C   UNL     1       9.765  13.083  18.661  0.00  0.00    +0.000 C 
ATOM     14  C   UNL     1       8.414  13.476  18.003  0.00  0.00    +0.000 C 
ATOM     15  C   UNL     1      10.291  11.829  17.889  0.00  0.00    +0.000 C 
ATOM     16  C   UNL     1       9.395  10.605  18.108  0.00  0.00    +0.000 C 
ATOM     17  C   UNL     1       9.361  10.225  19.583  0.00  0.00    +0.000 C 
ATOM     18  C   UNL     1       9.365  11.400  20.514  0.00  0.00    +0.000 C 
ATOM     19  C   UNL     1       9.528  12.694  20.147  0.00  0.00    +0.000 C 
ENDROOT
BRANCH   1  21
ATOM     20  C   UNL     1       7.259  13.662  22.315  0.00  0.00    +0.000 C 
ATOM     21  C   UNL     1       8.323  14.489  21.614  0.00  0.00    +0.000 C 
ENDBRANCH   1  21
BRANCH   9  22
ATOM     22  O   UNL     1       8.716  16.908  17.925  0.00  0.00    +0.000 OA
ATOM     23  H   UNL     1       7.864  17.371  17.807  0.00  0.00    +0.000 HD
ENDBRANCH   9  22
TORSDOF 2
ENDMDL
MODEL 4
REMARK VINA RESULT:      -6.2      8.470     11.245
REMARK  Name = 
REMARK  5 active torsions:
REMARK  status: ('A' for Active; 'I' for Inactive)
REMARK    1  A    between atoms: C_1  and  C_2
REMARK    2  A    between atoms: C_2  and  C_3
REMARK    3  A    between atoms: C_9  and  C_10
REMARK    4  A    between atoms: C_11  and  O_12
REMARK    5  A    between atoms: C_16  and  C_17
REMARK                            x       y       z     vdW  Elec       q    Type
REMARK                         _______ _______ _______ _____ _____    ______ ____
ROOT
ATOM      1  C   UNL     1       5.718   6.050  18.141  0.00  0.00    +0.000 C 
ATOM      2  C   UNL     1       4.237   6.203  18.543  0.00  0.00    +0.000 C 
ATOM      3  C   UNL     1       3.568   4.820  18.571  0.00  0.00    +0.000 C 
ATOM      4  C   UNL     1       3.462   4.312  17.107  0.00  0.00    +0.000 C 
ATOM      5  C   UNL     1       2.607   3.035  16.984  0.00  0.00    +0.000 C 
ATOM      6  C   UNL     1       1.356   3.050  17.835  0.00  0.00    +0.000 C 
ATOM      7  C   UNL     1       1.549   3.405  19.315  0.00  0.00    +0.000 C 
ATOM      8  C   UNL     1       0.113   3.441  19.912  0.00  0.00    +0.000 C 
ATOM      9  C   UNL     1       2.417   2.500  20.251  0.00  0.00    +0.000 C 
ATOM     10  C   UNL     1       2.605   3.401  21.484  0.00  0.00    +0.000 C 
ATOM     11  C   UNL     1       2.603   4.846  20.947  0.00  0.00    +0.000 C 
ATOM     12  C   UNL     1       2.272   4.771  19.433  0.00  0.00    +0.000 C 
ATOM     13  C   UNL     1       4.907   4.130  16.452  0.00  0.00    +0.000 C 
ATOM     14  C   UNL     1       5.550   2.793  16.913  0.00  0.00    +0.000 C 
ATOM     15  C   UNL     1       4.771   4.049  14.897  0.00  0.00    +0.000 C 
ATOM     16  C   UNL     1       6.139   4.029  14.203  0.00  0.00    +0.000 C 
ATOM     17  C   UNL     1       6.909   5.307  14.506  0.00  0.00    +0.000 C 
ATOM     18  C   UNL     1       6.720   5.815  15.904  0.00  0.00    +0.000 C 
ATOM     19  C   UNL     1       5.848   5.313  16.812  0.00  0.00    +0.000 C 
ENDROOT
BRANCH   1  21
ATOM     20  C   UNL     1       8.026   5.819  19.298  0.00  0.00    +0.000 C 
ATOM     21  C   UNL     1       6.543   5.489  19.325  0.00  0.00    +0.000 C 
ENDBRANCH   1  21
BRANCH   9  22
ATOM     22  O   UNL     1       3.689   2.129  19.736  0.00  0.00    +0.000 OA
ATOM     23  H   UNL     1       4.326   2.854  19.882  0.00  0.00    +0.000 HD
ENDBRANCH   9  22
TORSDOF 2
ENDMDL
MODEL 5
REMARK VINA RESULT:      -5.8      8.283     10.948
REMARK  Name = 
REMARK  5 active torsions:
REMARK  status: ('A' for Active; 'I' for Inactive)
REMARK    1  A    between atoms: C_1  and  C_2
REMARK    2  A    between atoms: C_2  and  C_3
REMARK    3  A    between atoms: C_9  and  C_10
REMARK    4  A    between atoms: C_11  and  O_12
REMARK    5  A    between atoms: C_16  and  C_17
REMARK                            x       y       z     vdW  Elec       q    Type
REMARK                         _______ _______ _______ _____ _____    ______ ____
ROOT
ATOM      1  C   UNL     1      -1.409  12.858  22.880  0.00  0.00    +0.000 C 
ATOM      2  C   UNL     1      -0.388  14.002  22.715  0.00  0.00    +0.000 C 
ATOM      3  C   UNL     1       0.060  14.082  21.247  0.00  0.00    +0.000 C 
ATOM      4  C   UNL     1       0.920  12.824  20.942  0.00  0.00    +0.000 C 
ATOM      5  C   UNL     1       1.612  12.900  19.567  0.00  0.00    +0.000 C 
ATOM      6  C   UNL     1       2.185  14.263  19.244  0.00  0.00    +0.000 C 
ATOM      7  C   UNL     1       1.234  15.454  19.412  0.00  0.00    +0.000 C 
ATOM      8  C   UNL     1       2.102  16.710  19.113  0.00  0.00    +0.000 C 
ATOM      9  C   UNL     1      -0.064  15.573  18.548  0.00  0.00    +0.000 C 
ATOM     10  C   UNL     1      -0.839  16.681  19.283  0.00  0.00    +0.000 C 
ATOM     11  C   UNL     1      -0.444  16.550  20.767  0.00  0.00    +0.000 C 
ATOM     12  C   UNL     1       0.660  15.463  20.851  0.00  0.00    +0.000 C 
ATOM     13  C   UNL     1       0.066  11.485  21.109  0.00  0.00    +0.000 C 
ATOM     14  C   UNL     1      -0.814  11.239  19.852  0.00  0.00    +0.000 C 
ATOM     15  C   UNL     1       1.030  10.260  21.228  0.00  0.00    +0.000 C 
ATOM     16  C   UNL     1       0.273   8.964  21.544  0.00  0.00    +0.000 C 
ATOM     17  C   UNL     1      -0.449   9.082  22.881  0.00  0.00    +0.000 C 
ATOM     18  C   UNL     1      -1.027  10.440  23.143  0.00  0.00    +0.000 C 
ATOM     19  C   UNL     1      -0.836  11.538  22.373  0.00  0.00    +0.000 C 
ENDROOT
BRANCH   1  21
ATOM     20  C   UNL     1      -3.991  12.810  23.106  0.00  0.00    +0.000 C 
ATOM     21  C   UNL     1      -2.786  13.277  22.308  0.00  0.00    +0.000 C 
ENDBRANCH   1  21
BRANCH   9  22
ATOM     22  O   UNL     1      -0.864  14.400  18.479  0.00  0.00    +0.000 OA
ATOM     23  H   UNL     1      -1.570  14.523  17.816  0.00  0.00    +0.000 HD
ENDBRANCH   9  22
TORSDOF 2
ENDMDL
MODEL 6
REMARK VINA RESULT:      -5.7      1.340      6.044
REMARK  Name = 
REMARK  5 active torsions:
REMARK  status: ('A' for Active; 'I' for Inactive)
REMARK    1  A    between atoms: C_1  and  C_2
REMARK    2  A    between atoms: C_2  and  C_3
REMARK    3  A    between atoms: C_9  and  C_10
REMARK    4  A    between atoms: C_11  and  O_12
REMARK    5  A    between atoms: C_16  and  C_17
REMARK                            x       y       z     vdW  Elec       q    Type
REMARK                         _______ _______ _______ _____ _____    ______ ____
ROOT
ATOM      1  C   UNL     1       9.278  15.645  23.005  0.00  0.00    +0.000 C 
ATOM      2  C   UNL     1      10.477  15.200  22.142  0.00  0.00    +0.000 C 
ATOM      3  C   UNL     1      10.017  14.135  21.135  0.00  0.00    +0.000 C 
ATOM      4  C   UNL     1       9.685  12.842  21.929  0.00  0.00    +0.000 C 
ATOM      5  C   UNL     1       9.427  11.632  21.009  0.00  0.00    +0.000 C 
ATOM      6  C   UNL     1      10.383  11.536  19.840  0.00  0.00    +0.000 C 
ATOM      7  C   UNL     1      10.548  12.805  18.994  0.00  0.00    +0.000 C 
ATOM      8  C   UNL     1      11.642  12.453  17.946  0.00  0.00    +0.000 C 
ATOM      9  C   UNL     1       9.336  13.412  18.213  0.00  0.00    +0.000 C 
ATOM     10  C   UNL     1       9.869  14.803  17.825  0.00  0.00    +0.000 C 
ATOM     11  C   UNL     1      10.837  15.207  18.954  0.00  0.00    +0.000 C 
ATOM     12  C   UNL     1      10.963  13.988  19.906  0.00  0.00    +0.000 C 
ATOM     13  C   UNL     1       8.482  13.083  22.950  0.00  0.00    +0.000 C 
ATOM     14  C   UNL     1       7.117  13.029  22.209  0.00  0.00    +0.000 C 
ATOM     15  C   UNL     1       8.459  11.938  24.015  0.00  0.00    +0.000 C 
ATOM     16  C   UNL     1       7.422  12.198  25.114  0.00  0.00    +0.000 C 
ATOM     17  C   UNL     1       7.750  13.483  25.864  0.00  0.00    +0.000 C 
ATOM     18  C   UNL     1       8.294  14.574  24.992  0.00  0.00    +0.000 C 
ATOM     19  C   UNL     1       8.622  14.446  23.683  0.00  0.00    +0.000 C 
ENDROOT
BRANCH   1  21
ATOM     20  C   UNL     1       9.040  17.663  21.395  0.00  0.00    +0.000 C 
ATOM     21  C   UNL     1       8.343  16.573  22.192  0.00  0.00    +0.000 C 
ENDBRANCH   1  21
BRANCH   9  22
ATOM     22  O   UNL     1       8.135  13.554  18.959  0.00  0.00    +0.000 OA
ATOM     23  H   UNL     1       7.480  12.898  18.653  0.00  0.00    +0.000 HD
ENDBRANCH   9  22
TORSDOF 2
ENDMDL
MODEL 7
REMARK VINA RESULT:      -5.7      2.083      3.451
REMARK  Name = 
REMARK  5 active torsions:
REMARK  status: ('A' for Active; 'I' for Inactive)
REMARK    1  A    between atoms: C_1  and  C_2
REMARK    2  A    between atoms: C_2  and  C_3
REMARK    3  A    between atoms: C_9  and  C_10
REMARK    4  A    between atoms: C_11  and  O_12
REMARK    5  A    between atoms: C_16  and  C_17
REMARK                            x       y       z     vdW  Elec       q    Type
REMARK                         _______ _______ _______ _____ _____    ______ ____
ROOT
ATOM      1  C   UNL     1       9.777  12.910  21.575  0.00  0.00    +0.000 C 
ATOM      2  C   UNL     1       9.565  14.405  21.893  0.00  0.00    +0.000 C 
ATOM      3  C   UNL     1       8.680  15.039  20.809  0.00  0.00    +0.000 C 
ATOM      4  C   UNL     1       9.505  15.095  19.494  0.00  0.00    +0.000 C 
ATOM      5  C   UNL     1       8.806  15.915  18.391  0.00  0.00    +0.000 C 
ATOM      6  C   UNL     1       8.156  17.187  18.891  0.00  0.00    +0.000 C 
ATOM      7  C   UNL     1       7.223  17.041  20.099  0.00  0.00    +0.000 C 
ATOM      8  C   UNL     1       6.785  18.491  20.450  0.00  0.00    +0.000 C 
ATOM      9  C   UNL     1       5.924  16.174  20.009  0.00  0.00    +0.000 C 
ATOM     10  C   UNL     1       5.524  16.040  21.490  0.00  0.00    +0.000 C 
ATOM     11  C   UNL     1       6.847  16.064  22.281  0.00  0.00    +0.000 C 
ATOM     12  C   UNL     1       7.982  16.355  21.264  0.00  0.00    +0.000 C 
ATOM     13  C   UNL     1       9.896  13.631  18.993  0.00  0.00    +0.000 C 
ATOM     14  C   UNL     1       8.698  12.966  18.262  0.00  0.00    +0.000 C 
ATOM     15  C   UNL     1      11.060  13.725  17.953  0.00  0.00    +0.000 C 
ATOM     16  C   UNL     1      11.583  12.341  17.552  0.00  0.00    +0.000 C 
ATOM     17  C   UNL     1      12.143  11.610  18.765  0.00  0.00    +0.000 C 
ATOM     18  C   UNL     1      11.371  11.847  20.028  0.00  0.00    +0.000 C 
ATOM     19  C   UNL     1      10.352  12.728  20.174  0.00  0.00    +0.000 C 
ENDROOT
BRANCH   1  21
ATOM     20  C   UNL     1       8.176  11.971  23.385  0.00  0.00    +0.000 C 
ATOM     21  C   UNL     1       8.499  12.101  21.906  0.00  0.00    +0.000 C 
ENDBRANCH   1  21
BRANCH   9  22
ATOM     22  O   UNL     1       6.088  14.881  19.442  0.00  0.00    +0.000 OA
ATOM     23  H   UNL     1       5.328  14.318  19.687  0.00  0.00    +0.000 HD
ENDBRANCH   9  22
TORSDOF 2
ENDMDL
MODEL 8
REMARK VINA RESULT:      -5.5     10.810     14.416
REMARK  Name = 
REMARK  5 active torsions:
REMARK  status: ('A' for Active; 'I' for Inactive)
REMARK    1  A    between atoms: C_1  and  C_2
REMARK    2  A    between atoms: C_2  and  C_3
REMARK    3  A    between atoms: C_9  and  C_10
REMARK    4  A    between atoms: C_11  and  O_12
REMARK    5  A    between atoms: C_16  and  C_17
REMARK                            x       y       z     vdW  Elec       q    Type
REMARK                         _______ _______ _______ _____ _____    ______ ____
ROOT
ATOM      1  C   UNL     1      -4.112  13.199  24.101  0.00  0.00    +0.000 C 
ATOM      2  C   UNL     1      -3.012  12.317  23.475  0.00  0.00    +0.000 C 
ATOM      3  C   UNL     1      -2.791  12.733  22.012  0.00  0.00    +0.000 C 
ATOM      4  C   UNL     1      -4.050  12.314  21.204  0.00  0.00    +0.000 C 
ATOM      5  C   UNL     1      -3.857  12.475  19.683  0.00  0.00    +0.000 C 
ATOM      6  C   UNL     1      -2.498  12.030  19.187  0.00  0.00    +0.000 C 
ATOM      7  C   UNL     1      -1.285  12.606  19.927  0.00  0.00    +0.000 C 
ATOM      8  C   UNL     1      -0.051  11.913  19.282  0.00  0.00    +0.000 C 
ATOM      9  C   UNL     1      -1.003  14.144  19.931  0.00  0.00    +0.000 C 
ATOM     10  C   UNL     1       0.055  14.274  21.041  0.00  0.00    +0.000 C 
ATOM     11  C   UNL     1      -0.262  13.153  22.050  0.00  0.00    +0.000 C 
ATOM     12  C   UNL     1      -1.408  12.302  21.442  0.00  0.00    +0.000 C 
ATOM     13  C   UNL     1      -5.353  13.076  21.726  0.00  0.00    +0.000 C 
ATOM     14  C   UNL     1      -5.410  14.517  21.148  0.00  0.00    +0.000 C 
ATOM     15  C   UNL     1      -6.632  12.337  21.214  0.00  0.00    +0.000 C 
ATOM     16  C   UNL     1      -7.914  12.932  21.811  0.00  0.00    +0.000 C 
ATOM     17  C   UNL     1      -7.909  12.795  23.328  0.00  0.00    +0.000 C 
ATOM     18  C   UNL     1      -6.561  12.991  23.952  0.00  0.00    +0.000 C 
ATOM     19  C   UNL     1      -5.394  13.135  23.278  0.00  0.00    +0.000 C 
ENDROOT
BRANCH   1  21
ATOM     20  C   UNL     1      -4.576  15.739  24.328  0.00  0.00    +0.000 C 
ATOM     21  C   UNL     1      -3.560  14.612  24.409  0.00  0.00    +0.000 C 
ENDBRANCH   1  21
BRANCH   9  22
ATOM     22  O   UNL     1      -2.117  14.971  20.238  0.00  0.00    +0.000 OA
ATOM     23  H   UNL     1      -2.482  14.718  21.108  0.00  0.00    +0.000 HD
ENDBRANCH   9  22
TORSDOF 2
ENDMDL
MODEL 9
REMARK VINA RESULT:      -5.5      9.826     12.418
REMARK  Name = 
REMARK  5 active torsions:
REMARK  status: ('A' for Active; 'I' for Inactive)
REMARK    1  A    between atoms: C_1  and  C_2
REMARK    2  A    between atoms: C_2  and  C_3
REMARK    3  A    between atoms: C_9  and  C_10
REMARK    4  A    between atoms: C_11  and  O_12
REMARK    5  A    between atoms: C_16  and  C_17
REMARK                            x       y       z     vdW  Elec       q    Type
REMARK                         _______ _______ _______ _____ _____    ______ ____
ROOT
ATOM      1  C   UNL     1      -0.583  12.123  22.617  0.00  0.00    +0.000 C 
ATOM      2  C   UNL     1      -1.338  13.199  23.423  0.00  0.00    +0.000 C 
ATOM      3  C   UNL     1      -2.695  13.479  22.760  0.00  0.00    +0.000 C 
ATOM      4  C   UNL     1      -2.426  14.204  21.413  0.00  0.00    +0.000 C 
ATOM      5  C   UNL     1      -3.717  14.737  20.761  0.00  0.00    +0.000 C 
ATOM      6  C   UNL     1      -4.684  15.367  21.740  0.00  0.00    +0.000 C 
ATOM      7  C   UNL     1      -5.036  14.532  22.977  0.00  0.00    +0.000 C 
ATOM      8  C   UNL     1      -5.950  15.449  23.838  0.00  0.00    +0.000 C 
ATOM      9  C   UNL     1      -5.763  13.154  22.835  0.00  0.00    +0.000 C 
ATOM     10  C   UNL     1      -5.589  12.553  24.241  0.00  0.00    +0.000 C 
ATOM     11  C   UNL     1      -4.250  13.106  24.766  0.00  0.00    +0.000 C 
ATOM     12  C   UNL     1      -3.736  14.130  23.719  0.00  0.00    +0.000 C 
ATOM     13  C   UNL     1      -1.590  13.279  20.416  0.00  0.00    +0.000 C 
ATOM     14  C   UNL     1      -2.519  12.245  19.722  0.00  0.00    +0.000 C 
ATOM     15  C   UNL     1      -0.972  14.158  19.280  0.00  0.00    +0.000 C 
ATOM     16  C   UNL     1      -0.030  13.349  18.379  0.00  0.00    +0.000 C 
ATOM     17  C   UNL     1       1.137  12.797  19.186  0.00  0.00    +0.000 C 
ATOM     18  C   UNL     1       0.765  12.355  20.569  0.00  0.00    +0.000 C 
ATOM     19  C   UNL     1      -0.443  12.536  21.155  0.00  0.00    +0.000 C 
ENDROOT
BRANCH   1  21
ATOM     20  C   UNL     1      -0.185   9.615  23.139  0.00  0.00    +0.000 C 
ATOM     21  C   UNL     1      -1.191  10.724  22.883  0.00  0.00    +0.000 C 
ENDBRANCH   1  21
BRANCH   9  22
ATOM     22  O   UNL     1      -5.215  12.268  21.868  0.00  0.00    +0.000 OA
ATOM     23  H   UNL     1      -4.245  12.231  21.972  0.00  0.00    +0.000 HD
ENDBRANCH   9  22
TORSDOF 2
ENDMDL
