MODEL 1
REMARK VINA RESULT:      -8.4      0.000      0.000
REMARK  Name = 
REMARK  6 active torsions:
REMARK  status: ('A' for Active; 'I' for Inactive)
REMARK    1  A    between atoms: C_1  and  C_2
REMARK    2  A    between atoms: N_5  and  C_6
REMARK    3  A    between atoms: C_11  and  C_12
REMARK    4  A    between atoms: N_13  and  N_14
REMARK    5  A    between atoms: C_15  and  C_17
REMARK    6  A    between atoms: C_24  and  C_25
REMARK                            x       y       z     vdW  Elec       q    Type
REMARK                         _______ _______ _______ _____ _____    ______ ____
ROOT
ATOM      1  C   UNL     1       2.382   4.966  19.944  0.00  0.00    +0.000 A 
ATOM      2  N   UNL     1       1.991   4.597  21.189  0.00  0.00    +0.000 NA
ATOM      3  C   UNL     1       2.162   3.280  21.359  0.00  0.00    +0.000 A 
ATOM      4  O   UNL     1       1.911   2.629  22.357  0.00  0.00    +0.000 OA
ATOM      5  S   UNL     1       2.829   2.508  19.902  0.00  0.00    +0.000 S 
ATOM      6  C   UNL     1       2.868   4.032  19.106  0.00  0.00    +0.000 A 
ENDROOT
BRANCH   1  11
ATOM      7  C   UNL     1       1.413  10.441  18.529  0.00  0.00    +0.000 C 
ATOM      8  C   UNL     1       1.712   9.026  18.940  0.00  0.00    +0.000 A 
ATOM      9  C   UNL     1       2.261   8.143  18.015  0.00  0.00    +0.000 A 
ATOM     10  C   UNL     1       2.465   6.812  18.359  0.00  0.00    +0.000 A 
ATOM     11  N   UNL     1       2.208   6.341  19.603  0.00  0.00    +0.000 N 
ATOM     12  C   UNL     1       1.673   7.197  20.519  0.00  0.00    +0.000 A 
ATOM     13  C   UNL     1       1.405   8.540  20.216  0.00  0.00    +0.000 A 
ATOM     14  C   UNL     1       0.753   9.413  21.253  0.00  0.00    +0.000 C 
ENDBRANCH   1  11
BRANCH   6  15
ATOM     15  C   UNL     1       3.484   4.158  17.780  0.00  0.00    +0.000 C 
ATOM     16  N   UNL     1       4.756   4.133  17.543  0.00  0.00    +0.000 NA
BRANCH  16  17
ATOM     17  N   UNL     1       5.172   4.268  16.236  0.00  0.00    +0.000 N 
ATOM     18  C   UNL     1       6.489   4.467  15.849  0.00  0.00    +0.000 C 
ATOM     19  O   UNL     1       7.446   4.616  16.604  0.00  0.00    +0.000 OA
ATOM     20  H   UNL     1       4.520   3.864  15.573  0.00  0.00    +0.000 HD
BRANCH  18  21
ATOM     21  C   UNL     1       6.755   4.497  14.389  0.00  0.00    +0.000 A 
ATOM     22  C   UNL     1       7.683   5.359  13.809  0.00  0.00    +0.000 A 
ATOM     23  C   UNL     1       7.895   5.242  12.446  0.00  0.00    +0.000 A 
ATOM     24  N   UNL     1       7.263   4.344  11.660  0.00  0.00    +0.000 NA
ATOM     25  C   UNL     1       6.377   3.520  12.254  0.00  0.00    +0.000 A 
ATOM     26  C   UNL     1       6.091   3.555  13.601  0.00  0.00    +0.000 A 
ENDBRANCH  18  21
ENDBRANCH  16  17
ENDBRANCH   6  15
TORSDOF 4
ENDMDL
MODEL 2
REMARK VINA RESULT:      -8.2      0.725      1.182
REMARK  Name = 
REMARK  6 active torsions:
REMARK  status: ('A' for Active; 'I' for Inactive)
REMARK    1  A    between atoms: C_1  and  C_2
REMARK    2  A    between atoms: N_5  and  C_6
REMARK    3  A    between atoms: C_11  and  C_12
REMARK    4  A    between atoms: N_13  and  N_14
REMARK    5  A    between atoms: C_15  and  C_17
REMARK    6  A    between atoms: C_24  and  C_25
REMARK                            x       y       z     vdW  Elec       q    Type
REMARK                         _______ _______ _______ _____ _____    ______ ____
ROOT
ATOM      1  C   UNL     1       2.310   4.732  19.916  0.00  0.00    +0.000 A 
ATOM      2  N   UNL     1       1.800   4.492  21.150  0.00  0.00    +0.000 NA
ATOM      3  C   UNL     1       1.865   3.184  21.434  0.00  0.00    +0.000 A 
ATOM      4  O   UNL     1       1.494   2.635  22.455  0.00  0.00    +0.000 OA
ATOM      5  S   UNL     1       2.585   2.254  20.099  0.00  0.00    +0.000 S 
ATOM      6  C   UNL     1       2.791   3.702  19.195  0.00  0.00    +0.000 A 
ENDROOT
BRANCH   1  11
ATOM      7  C   UNL     1       1.836  10.124  18.016  0.00  0.00    +0.000 C 
ATOM      8  C   UNL     1       2.004   8.730  18.555  0.00  0.00    +0.000 A 
ATOM      9  C   UNL     1       2.540   7.738  17.741  0.00  0.00    +0.000 A 
ATOM     10  C   UNL     1       2.623   6.429  18.200  0.00  0.00    +0.000 A 
ATOM     11  N   UNL     1       2.258   6.082  19.458  0.00  0.00    +0.000 N 
ATOM     12  C   UNL     1       1.735   7.046  20.267  0.00  0.00    +0.000 A 
ATOM     13  C   UNL     1       1.586   8.374  19.843  0.00  0.00    +0.000 A 
ATOM     14  C   UNL     1       0.941   9.373  20.763  0.00  0.00    +0.000 C 
ENDBRANCH   1  11
BRANCH   6  15
ATOM     15  C   UNL     1       3.512   3.680  17.917  0.00  0.00    +0.000 C 
ATOM     16  N   UNL     1       4.792   3.543  17.786  0.00  0.00    +0.000 NA
BRANCH  16  17
ATOM     17  N   UNL     1       5.315   3.545  16.511  0.00  0.00    +0.000 N 
ATOM     18  C   UNL     1       5.501   4.684  15.741  0.00  0.00    +0.000 C 
ATOM     19  O   UNL     1       5.169   5.824  16.052  0.00  0.00    +0.000 OA
ATOM     20  H   UNL     1       5.874   2.722  16.315  0.00  0.00    +0.000 HD
BRANCH  18  21
ATOM     21  C   UNL     1       6.163   4.496  14.426  0.00  0.00    +0.000 A 
ATOM     22  C   UNL     1       5.675   3.626  13.453  0.00  0.00    +0.000 A 
ATOM     23  C   UNL     1       6.338   3.594  12.239  0.00  0.00    +0.000 A 
ATOM     24  N   UNL     1       7.416   4.353  11.948  0.00  0.00    +0.000 NA
ATOM     25  C   UNL     1       7.859   5.189  12.909  0.00  0.00    +0.000 A 
ATOM     26  C   UNL     1       7.273   5.298  14.151  0.00  0.00    +0.000 A 
ENDBRANCH  18  21
ENDBRANCH  16  17
ENDBRANCH   6  15
TORSDOF 4
ENDMDL
MODEL 3
REMARK VINA RESULT:      -8.2      3.470      8.154
REMARK  Name = 
REMARK  6 active torsions:
REMARK  status: ('A' for Active; 'I' for Inactive)
REMARK    1  A    between atoms: C_1  and  C_2
REMARK    2  A    between atoms: N_5  and  C_6
REMARK    3  A    between atoms: C_11  and  C_12
REMARK    4  A    between atoms: N_13  and  N_14
REMARK    5  A    between atoms: C_15  and  C_17
REMARK    6  A    between atoms: C_24  and  C_25
REMARK                            x       y       z     vdW  Elec       q    Type
REMARK                         _______ _______ _______ _____ _____    ______ ____
ROOT
ATOM      1  C   UNL     1       3.272   4.541  18.927  0.00  0.00    +0.000 A 
ATOM      2  N   UNL     1       3.276   3.205  18.691  0.00  0.00    +0.000 NA
ATOM      3  C   UNL     1       2.183   2.637  19.216  0.00  0.00    +0.000 A 
ATOM      4  O   UNL     1       1.880   1.458  19.183  0.00  0.00    +0.000 OA
ATOM      5  S   UNL     1       1.141   3.831  20.024  0.00  0.00    +0.000 S 
ATOM      6  C   UNL     1       2.239   5.084  19.598  0.00  0.00    +0.000 A 
ENDROOT
BRANCH   1  11
ATOM      7  C   UNL     1       7.798   7.659  17.283  0.00  0.00    +0.000 C 
ATOM      8  C   UNL     1       6.641   6.790  17.692  0.00  0.00    +0.000 A 
ATOM      9  C   UNL     1       5.414   6.934  17.054  0.00  0.00    +0.000 A 
ATOM     10  C   UNL     1       4.316   6.195  17.478  0.00  0.00    +0.000 A 
ATOM     11  N   UNL     1       4.407   5.272  18.467  0.00  0.00    +0.000 N 
ATOM     12  C   UNL     1       5.606   5.119  19.098  0.00  0.00    +0.000 A 
ATOM     13  C   UNL     1       6.736   5.869  18.742  0.00  0.00    +0.000 A 
ATOM     14  C   UNL     1       8.010   5.697  19.523  0.00  0.00    +0.000 C 
ENDBRANCH   1  11
BRANCH   6  15
ATOM     15  C   UNL     1       1.903   6.487  19.872  0.00  0.00    +0.000 C 
ATOM     16  N   UNL     1       1.694   6.988  21.047  0.00  0.00    +0.000 NA
BRANCH  16  17
ATOM     17  N   UNL     1       1.385   8.328  21.132  0.00  0.00    +0.000 N 
ATOM     18  C   UNL     1       0.163   8.825  21.560  0.00  0.00    +0.000 C 
ATOM     19  O   UNL     1      -0.823   8.155  21.854  0.00  0.00    +0.000 OA
ATOM     20  H   UNL     1       2.208   8.916  21.201  0.00  0.00    +0.000 HD
BRANCH  18  21
ATOM     21  C   UNL     1       0.049  10.301  21.672  0.00  0.00    +0.000 A 
ATOM     22  C   UNL     1      -0.823  10.925  22.562  0.00  0.00    +0.000 A 
ATOM     23  C   UNL     1      -0.784  12.307  22.625  0.00  0.00    +0.000 A 
ATOM     24  N   UNL     1       0.046  13.073  21.884  0.00  0.00    +0.000 NA
ATOM     25  C   UNL     1       0.881  12.437  21.039  0.00  0.00    +0.000 A 
ATOM     26  C   UNL     1       0.923  11.067  20.897  0.00  0.00    +0.000 A 
ENDBRANCH  18  21
ENDBRANCH  16  17
ENDBRANCH   6  15
TORSDOF 4
ENDMDL
MODEL 4
REMARK VINA RESULT:      -7.9      3.446      7.337
REMARK  Name = 
REMARK  6 active torsions:
REMARK  status: ('A' for Active; 'I' for Inactive)
REMARK    1  A    between atoms: C_1  and  C_2
REMARK    2  A    between atoms: N_5  and  C_6
REMARK    3  A    between atoms: C_11  and  C_12
REMARK    4  A    between atoms: N_13  and  N_14
REMARK    5  A    between atoms: C_15  and  C_17
REMARK    6  A    between atoms: C_24  and  C_25
REMARK                            x       y       z     vdW  Elec       q    Type
REMARK                         _______ _______ _______ _____ _____    ______ ____
ROOT
ATOM      1  C   UNL     1       5.233   4.889  18.162  0.00  0.00    +0.000 A 
ATOM      2  N   UNL     1       6.323   4.084  18.219  0.00  0.00    +0.000 NA
ATOM      3  C   UNL     1       7.428   4.774  17.911  0.00  0.00    +0.000 A 
ATOM      4  O   UNL     1       8.570   4.352  17.868  0.00  0.00    +0.000 OA
ATOM      5  S   UNL     1       7.062   6.475  17.541  0.00  0.00    +0.000 S 
ATOM      6  C   UNL     1       5.393   6.186  17.839  0.00  0.00    +0.000 A 
ENDROOT
BRANCH   1  11
ATOM      7  C   UNL     1       0.297   2.181  19.265  0.00  0.00    +0.000 C 
ATOM      8  C   UNL     1       1.563   2.946  18.993  0.00  0.00    +0.000 A 
ATOM      9  C   UNL     1       2.037   3.049  17.690  0.00  0.00    +0.000 A 
ATOM     10  C   UNL     1       3.248   3.682  17.436  0.00  0.00    +0.000 A 
ATOM     11  N   UNL     1       3.972   4.273  18.418  0.00  0.00    +0.000 N 
ATOM     12  C   UNL     1       3.516   4.182  19.699  0.00  0.00    +0.000 A 
ATOM     13  C   UNL     1       2.324   3.517  20.020  0.00  0.00    +0.000 A 
ATOM     14  C   UNL     1       1.913   3.397  21.462  0.00  0.00    +0.000 C 
ENDBRANCH   1  11
BRANCH   6  15
ATOM     15  C   UNL     1       4.438   7.300  17.836  0.00  0.00    +0.000 C 
ATOM     16  N   UNL     1       3.190   7.211  17.502  0.00  0.00    +0.000 NA
BRANCH  16  17
ATOM     17  N   UNL     1       2.426   8.357  17.550  0.00  0.00    +0.000 N 
ATOM     18  C   UNL     1       1.792   8.829  18.690  0.00  0.00    +0.000 C 
ATOM     19  O   UNL     1       1.764   8.269  19.782  0.00  0.00    +0.000 OA
ATOM     20  H   UNL     1       2.646   9.007  16.804  0.00  0.00    +0.000 HD
BRANCH  18  21
ATOM     21  C   UNL     1       1.087  10.130  18.567  0.00  0.00    +0.000 A 
ATOM     22  C   UNL     1      -0.300  10.233  18.493  0.00  0.00    +0.000 A 
ATOM     23  C   UNL     1      -0.842  11.506  18.455  0.00  0.00    +0.000 A 
ATOM     24  N   UNL     1      -0.108  12.639  18.492  0.00  0.00    +0.000 NA
ATOM     25  C   UNL     1       1.231  12.504  18.571  0.00  0.00    +0.000 A 
ATOM     26  C   UNL     1       1.871  11.284  18.613  0.00  0.00    +0.000 A 
ENDBRANCH  18  21
ENDBRANCH  16  17
ENDBRANCH   6  15
TORSDOF 4
ENDMDL
MODEL 5
REMARK VINA RESULT:      -7.9      3.269      7.392
REMARK  Name = 
REMARK  6 active torsions:
REMARK  status: ('A' for Active; 'I' for Inactive)
REMARK    1  A    between atoms: C_1  and  C_2
REMARK    2  A    between atoms: N_5  and  C_6
REMARK    3  A    between atoms: C_11  and  C_12
REMARK    4  A    between atoms: N_13  and  N_14
REMARK    5  A    between atoms: C_15  and  C_17
REMARK    6  A    between atoms: C_24  and  C_25
REMARK                            x       y       z     vdW  Elec       q    Type
REMARK                         _______ _______ _______ _____ _____    ______ ____
ROOT
ATOM      1  C   UNL     1       5.080   4.904  17.964  0.00  0.00    +0.000 A 
ATOM      2  N   UNL     1       6.169   4.095  17.974  0.00  0.00    +0.000 NA
ATOM      3  C   UNL     1       7.248   4.762  17.544  0.00  0.00    +0.000 A 
ATOM      4  O   UNL     1       8.381   4.330  17.431  0.00  0.00    +0.000 OA
ATOM      5  S   UNL     1       6.858   6.444  17.119  0.00  0.00    +0.000 S 
ATOM      6  C   UNL     1       5.218   6.182  17.564  0.00  0.00    +0.000 A 
ENDROOT
BRANCH   1  11
ATOM      7  C   UNL     1       0.237   2.279  19.562  0.00  0.00    +0.000 C 
ATOM      8  C   UNL     1       1.483   3.021  19.167  0.00  0.00    +0.000 A 
ATOM      9  C   UNL     1       1.783   3.192  17.820  0.00  0.00    +0.000 A 
ATOM     10  C   UNL     1       2.973   3.803  17.443  0.00  0.00    +0.000 A 
ATOM     11  N   UNL     1       3.842   4.310  18.351  0.00  0.00    +0.000 N 
ATOM     12  C   UNL     1       3.558   4.152  19.674  0.00  0.00    +0.000 A 
ATOM     13  C   UNL     1       2.394   3.505  20.114  0.00  0.00    +0.000 A 
ATOM     14  C   UNL     1       2.174   3.306  21.588  0.00  0.00    +0.000 C 
ENDBRANCH   1  11
BRANCH   6  15
ATOM     15  C   UNL     1       4.268   7.301  17.581  0.00  0.00    +0.000 C 
ATOM     16  N   UNL     1       3.117   7.293  18.172  0.00  0.00    +0.000 NA
BRANCH  16  17
ATOM     17  N   UNL     1       2.341   8.429  18.090  0.00  0.00    +0.000 N 
ATOM     18  C   UNL     1       1.581   8.936  19.133  0.00  0.00    +0.000 C 
ATOM     19  O   UNL     1       1.439   8.420  20.237  0.00  0.00    +0.000 OA
ATOM     20  H   UNL     1       2.636   9.052  17.346  0.00  0.00    +0.000 HD
BRANCH  18  21
ATOM     21  C   UNL     1       0.882  10.222  18.881  0.00  0.00    +0.000 A 
ATOM     22  C   UNL     1       1.521  11.457  18.967  0.00  0.00    +0.000 A 
ATOM     23  C   UNL     1       0.782  12.580  18.637  0.00  0.00    +0.000 A 
ATOM     24  N   UNL     1      -0.507  12.542  18.236  0.00  0.00    +0.000 NA
ATOM     25  C   UNL     1      -1.093  11.330  18.156  0.00  0.00    +0.000 A 
ATOM     26  C   UNL     1      -0.448  10.152  18.463  0.00  0.00    +0.000 A 
ENDBRANCH  18  21
ENDBRANCH  16  17
ENDBRANCH   6  15
TORSDOF 4
ENDMDL
MODEL 6
REMARK VINA RESULT:      -7.8      3.442      7.780
REMARK  Name = 
REMARK  6 active torsions:
REMARK  status: ('A' for Active; 'I' for Inactive)
REMARK    1  A    between atoms: C_1  and  C_2
REMARK    2  A    between atoms: N_5  and  C_6
REMARK    3  A    between atoms: C_11  and  C_12
REMARK    4  A    between atoms: N_13  and  N_14
REMARK    5  A    between atoms: C_15  and  C_17
REMARK    6  A    between atoms: C_24  and  C_25
REMARK                            x       y       z     vdW  Elec       q    Type
REMARK                         _______ _______ _______ _____ _____    ______ ____
ROOT
ATOM      1  C   UNL     1       3.215   4.483  18.988  0.00  0.00    +0.000 A 
ATOM      2  N   UNL     1       3.125   3.187  18.600  0.00  0.00    +0.000 NA
ATOM      3  C   UNL     1       2.054   2.608  19.158  0.00  0.00    +0.000 A 
ATOM      4  O   UNL     1       1.686   1.455  19.019  0.00  0.00    +0.000 OA
ATOM      5  S   UNL     1       1.157   3.741  20.195  0.00  0.00    +0.000 S 
ATOM      6  C   UNL     1       2.279   4.987  19.813  0.00  0.00    +0.000 A 
ENDROOT
BRANCH   1  11
ATOM      7  C   UNL     1       7.707   7.605  17.258  0.00  0.00    +0.000 C 
ATOM      8  C   UNL     1       6.560   6.735  17.692  0.00  0.00    +0.000 A 
ATOM      9  C   UNL     1       5.331   6.847  17.049  0.00  0.00    +0.000 A 
ATOM     10  C   UNL     1       4.242   6.108  17.493  0.00  0.00    +0.000 A 
ATOM     11  N   UNL     1       4.343   5.214  18.507  0.00  0.00    +0.000 N 
ATOM     12  C   UNL     1       5.542   5.093  19.143  0.00  0.00    +0.000 A 
ATOM     13  C   UNL     1       6.664   5.845  18.767  0.00  0.00    +0.000 A 
ATOM     14  C   UNL     1       7.939   5.710  19.553  0.00  0.00    +0.000 C 
ENDBRANCH   1  11
BRANCH   6  15
ATOM     15  C   UNL     1       2.047   6.359  20.278  0.00  0.00    +0.000 C 
ATOM     16  N   UNL     1       1.773   7.369  19.515  0.00  0.00    +0.000 NA
BRANCH  16  17
ATOM     17  N   UNL     1       1.585   8.597  20.111  0.00  0.00    +0.000 N 
ATOM     18  C   UNL     1       0.931   9.665  19.516  0.00  0.00    +0.000 C 
ATOM     19  O   UNL     1       0.495   9.693  18.369  0.00  0.00    +0.000 OA
ATOM     20  H   UNL     1       1.638   8.553  21.123  0.00  0.00    +0.000 HD
BRANCH  18  21
ATOM     21  C   UNL     1       0.746  10.879  20.351  0.00  0.00    +0.000 A 
ATOM     22  C   UNL     1       1.412  12.077  20.099  0.00  0.00    +0.000 A 
ATOM     23  C   UNL     1       1.100  13.159  20.904  0.00  0.00    +0.000 A 
ATOM     24  N   UNL     1       0.192  13.118  21.903  0.00  0.00    +0.000 NA
ATOM     25  C   UNL     1      -0.439  11.946  22.115  0.00  0.00    +0.000 A 
ATOM     26  C   UNL     1      -0.202  10.809  21.374  0.00  0.00    +0.000 A 
ENDBRANCH  18  21
ENDBRANCH  16  17
ENDBRANCH   6  15
TORSDOF 4
ENDMDL
MODEL 7
REMARK VINA RESULT:      -7.8      3.342      7.696
REMARK  Name = 
REMARK  6 active torsions:
REMARK  status: ('A' for Active; 'I' for Inactive)
REMARK    1  A    between atoms: C_1  and  C_2
REMARK    2  A    between atoms: N_5  and  C_6
REMARK    3  A    between atoms: C_11  and  C_12
REMARK    4  A    between atoms: N_13  and  N_14
REMARK    5  A    between atoms: C_15  and  C_17
REMARK    6  A    between atoms: C_24  and  C_25
REMARK                            x       y       z     vdW  Elec       q    Type
REMARK                         _______ _______ _______ _____ _____    ______ ____
ROOT
ATOM      1  C   UNL     1       4.041   3.954  18.700  0.00  0.00    +0.000 A 
ATOM      2  N   UNL     1       4.230   2.743  18.119  0.00  0.00    +0.000 NA
ATOM      3  C   UNL     1       3.335   1.860  18.582  0.00  0.00    +0.000 A 
ATOM      4  O   UNL     1       3.229   0.688  18.268  0.00  0.00    +0.000 OA
ATOM      5  S   UNL     1       2.244   2.594  19.780  0.00  0.00    +0.000 S 
ATOM      6  C   UNL     1       3.045   4.104  19.592  0.00  0.00    +0.000 A 
ENDROOT
BRANCH   1  11
ATOM      7  C   UNL     1       7.658   8.233  17.469  0.00  0.00    +0.000 C 
ATOM      8  C   UNL     1       6.751   7.071  17.764  0.00  0.00    +0.000 A 
ATOM      9  C   UNL     1       5.511   6.991  17.138  0.00  0.00    +0.000 A 
ATOM     10  C   UNL     1       4.631   5.967  17.465  0.00  0.00    +0.000 A 
ATOM     11  N   UNL     1       4.960   4.984  18.338  0.00  0.00    +0.000 N 
ATOM     12  C   UNL     1       6.174   5.049  18.955  0.00  0.00    +0.000 A 
ATOM     13  C   UNL     1       7.085   6.083  18.698  0.00  0.00    +0.000 A 
ATOM     14  C   UNL     1       8.379   6.131  19.463  0.00  0.00    +0.000 C 
ENDBRANCH   1  11
BRANCH   6  15
ATOM     15  C   UNL     1       2.527   5.304  20.261  0.00  0.00    +0.000 C 
ATOM     16  N   UNL     1       2.324   6.447  19.690  0.00  0.00    +0.000 NA
BRANCH  16  17
ATOM     17  N   UNL     1       1.835   7.478  20.462  0.00  0.00    +0.000 N 
ATOM     18  C   UNL     1       1.381   8.688  19.959  0.00  0.00    +0.000 C 
ATOM     19  O   UNL     1       1.412   9.035  18.782  0.00  0.00    +0.000 OA
ATOM     20  H   UNL     1       1.503   7.165  21.368  0.00  0.00    +0.000 HD
BRANCH  18  21
ATOM     21  C   UNL     1       0.806   9.641  20.941  0.00  0.00    +0.000 A 
ATOM     22  C   UNL     1       0.637  10.997  20.667  0.00  0.00    +0.000 A 
ATOM     23  C   UNL     1       0.021  11.769  21.636  0.00  0.00    +0.000 A 
ATOM     24  N   UNL     1      -0.425  11.285  22.815  0.00  0.00    +0.000 NA
ATOM     25  C   UNL     1      -0.253   9.968  23.046  0.00  0.00    +0.000 A 
ATOM     26  C   UNL     1       0.349   9.112  22.150  0.00  0.00    +0.000 A 
ENDBRANCH  18  21
ENDBRANCH  16  17
ENDBRANCH   6  15
TORSDOF 4
ENDMDL
MODEL 8
REMARK VINA RESULT:      -7.7      2.658      7.918
REMARK  Name = 
REMARK  6 active torsions:
REMARK  status: ('A' for Active; 'I' for Inactive)
REMARK    1  A    between atoms: C_1  and  C_2
REMARK    2  A    between atoms: N_5  and  C_6
REMARK    3  A    between atoms: C_11  and  C_12
REMARK    4  A    between atoms: N_13  and  N_14
REMARK    5  A    between atoms: C_15  and  C_17
REMARK    6  A    between atoms: C_24  and  C_25
REMARK                            x       y       z     vdW  Elec       q    Type
REMARK                         _______ _______ _______ _____ _____    ______ ____
ROOT
ATOM      1  C   UNL     1       4.489   4.901  17.405  0.00  0.00    +0.000 A 
ATOM      2  N   UNL     1       5.364   4.096  16.752  0.00  0.00    +0.000 NA
ATOM      3  C   UNL     1       5.966   4.769  15.763  0.00  0.00    +0.000 A 
ATOM      4  O   UNL     1       6.802   4.343  14.987  0.00  0.00    +0.000 OA
ATOM      5  S   UNL     1       5.399   6.453  15.670  0.00  0.00    +0.000 S 
ATOM      6  C   UNL     1       4.359   6.182  17.012  0.00  0.00    +0.000 A 
ENDROOT
BRANCH   1  11
ATOM      7  C   UNL     1       1.269   2.688  21.605  0.00  0.00    +0.000 C 
ATOM      8  C   UNL     1       2.131   3.210  20.489  0.00  0.00    +0.000 A 
ATOM      9  C   UNL     1       3.248   3.983  20.787  0.00  0.00    +0.000 A 
ATOM     10  C   UNL     1       4.005   4.538  19.763  0.00  0.00    +0.000 A 
ATOM     11  N   UNL     1       3.734   4.300  18.456  0.00  0.00    +0.000 N 
ATOM     12  C   UNL     1       2.645   3.541  18.151  0.00  0.00    +0.000 A 
ATOM     13  C   UNL     1       1.819   2.991  19.142  0.00  0.00    +0.000 A 
ATOM     14  C   UNL     1       0.595   2.218  18.735  0.00  0.00    +0.000 C 
ENDBRANCH   1  11
BRANCH   6  15
ATOM     15  C   UNL     1       3.611   7.297  17.605  0.00  0.00    +0.000 C 
ATOM     16  N   UNL     1       2.410   7.220  18.081  0.00  0.00    +0.000 NA
BRANCH  16  17
ATOM     17  N   UNL     1       1.848   8.365  18.603  0.00  0.00    +0.000 N 
ATOM     18  C   UNL     1       1.436   8.507  19.920  0.00  0.00    +0.000 C 
ATOM     19  O   UNL     1       1.450   7.628  20.776  0.00  0.00    +0.000 OA
ATOM     20  H   UNL     1       2.078   9.194  18.066  0.00  0.00    +0.000 HD
BRANCH  18  21
ATOM     21  C   UNL     1       0.937   9.847  20.318  0.00  0.00    +0.000 A 
ATOM     22  C   UNL     1       1.012  10.959  19.483  0.00  0.00    +0.000 A 
ATOM     23  C   UNL     1       0.446  12.137  19.939  0.00  0.00    +0.000 A 
ATOM     24  N   UNL     1      -0.173  12.262  21.133  0.00  0.00    +0.000 NA
ATOM     25  C   UNL     1      -0.235  11.165  21.914  0.00  0.00    +0.000 A 
ATOM     26  C   UNL     1       0.298   9.946  21.556  0.00  0.00    +0.000 A 
ENDBRANCH  18  21
ENDBRANCH  16  17
ENDBRANCH   6  15
TORSDOF 4
ENDMDL
MODEL 9
REMARK VINA RESULT:      -7.7      2.980      7.871
REMARK  Name = 
REMARK  6 active torsions:
REMARK  status: ('A' for Active; 'I' for Inactive)
REMARK    1  A    between atoms: C_1  and  C_2
REMARK    2  A    between atoms: N_5  and  C_6
REMARK    3  A    between atoms: C_11  and  C_12
REMARK    4  A    between atoms: N_13  and  N_14
REMARK    5  A    between atoms: C_15  and  C_17
REMARK    6  A    between atoms: C_24  and  C_25
REMARK                            x       y       z     vdW  Elec       q    Type
REMARK                         _______ _______ _______ _____ _____    ______ ____
ROOT
ATOM      1  C   UNL     1       4.538   4.583  17.149  0.00  0.00    +0.000 A 
ATOM      2  N   UNL     1       5.219   3.777  16.297  0.00  0.00    +0.000 NA
ATOM      3  C   UNL     1       5.757   4.497  15.304  0.00  0.00    +0.000 A 
ATOM      4  O   UNL     1       6.427   4.083  14.375  0.00  0.00    +0.000 OA
ATOM      5  S   UNL     1       5.379   6.228  15.465  0.00  0.00    +0.000 S 
ATOM      6  C   UNL     1       4.503   5.908  16.910  0.00  0.00    +0.000 A 
ENDROOT
BRANCH   1  11
ATOM      7  C   UNL     1       1.723   2.247  21.568  0.00  0.00    +0.000 C 
ATOM      8  C   UNL     1       2.457   2.804  20.379  0.00  0.00    +0.000 A 
ATOM      9  C   UNL     1       3.791   3.177  20.508  0.00  0.00    +0.000 A 
ATOM     10  C   UNL     1       4.455   3.768  19.441  0.00  0.00    +0.000 A 
ATOM     11  N   UNL     1       3.867   3.942  18.232  0.00  0.00    +0.000 N 
ATOM     12  C   UNL     1       2.561   3.577  18.092  0.00  0.00    +0.000 A 
ATOM     13  C   UNL     1       1.827   3.016  19.147  0.00  0.00    +0.000 A 
ATOM     14  C   UNL     1       0.372   2.698  18.944  0.00  0.00    +0.000 C 
ENDBRANCH   1  11
BRANCH   6  15
ATOM     15  C   UNL     1       3.974   7.015  17.715  0.00  0.00    +0.000 C 
ATOM     16  N   UNL     1       2.728   7.187  18.019  0.00  0.00    +0.000 NA
BRANCH  16  17
ATOM     17  N   UNL     1       2.395   8.284  18.784  0.00  0.00    +0.000 N 
ATOM     18  C   UNL     1       1.394   9.189  18.464  0.00  0.00    +0.000 C 
ATOM     19  O   UNL     1       0.719   9.182  17.439  0.00  0.00    +0.000 OA
ATOM     20  H   UNL     1       2.681   8.187  19.753  0.00  0.00    +0.000 HD
BRANCH  18  21
ATOM     21  C   UNL     1       1.121  10.256  19.459  0.00  0.00    +0.000 A 
ATOM     22  C   UNL     1       1.313  11.609  19.187  0.00  0.00    +0.000 A 
ATOM     23  C   UNL     1       0.952  12.513  20.170  0.00  0.00    +0.000 A 
ATOM     24  N   UNL     1       0.425  12.159  21.363  0.00  0.00    +0.000 NA
ATOM     25  C   UNL     1       0.245  10.843  21.591  0.00  0.00    +0.000 A 
ATOM     26  C   UNL     1       0.572   9.861  20.681  0.00  0.00    +0.000 A 
ENDBRANCH  18  21
ENDBRANCH  16  17
ENDBRANCH   6  15
TORSDOF 4
ENDMDL
