MODEL 1
REMARK VINA RESULT:     -10.3      0.000      0.000
REMARK  Name = 
REMARK  5 active torsions:
REMARK  status: ('A' for Active; 'I' for Inactive)
REMARK    1  A    between atoms: C_2  and  C_3
REMARK    2  A    between atoms: C_2  and  C_10
REMARK    3  A    between atoms: C_4  and  C_5
REMARK    4  A    between atoms: C_13  and  N_14
REMARK    5  A    between atoms: N_14  and  C_15
REMARK                            x       y       z     vdW  Elec       q    Type
REMARK                         _______ _______ _______ _____ _____    ______ ____
ROOT
ATOM      1  N   UNL     1       2.671   5.138  19.225  0.00  0.00    +0.000 N 
ATOM      2  H   UNL     1       3.436   5.058  19.906  0.00  0.00    +0.000 HD
ENDROOT
BRANCH   1   3
ATOM      3  C   UNL     1       3.427   4.235  18.008  0.00  0.00    +0.000 A 
ATOM      4  C   UNL     1       3.470   2.954  18.474  0.00  0.00    +0.000 A 
ATOM      5  C   UNL     1       4.477   2.811  19.392  0.00  0.00    +0.000 A 
ATOM      6  N   UNL     1       5.515   3.684  19.516  0.00  0.00    +0.000 NA
ATOM      7  C   UNL     1       5.724   4.575  18.527  0.00  0.00    +0.000 A 
ATOM      8  C   UNL     1       6.997   5.135  18.466  0.00  0.00    +0.000 A 
ATOM      9  C   UNL     1       7.561   5.692  17.326  0.00  0.00    +0.000 A 
ATOM     10  C   UNL     1       6.891   5.343  16.167  0.00  0.00    +0.000 A 
ATOM     11  N   UNL     1       7.420   5.305  14.890  0.00  0.00    +0.000 N 
ATOM     12  C   UNL     1       6.600   4.577  14.080  0.00  0.00    +0.000 A 
ATOM     13  C   UNL     1       5.418   4.368  14.796  0.00  0.00    +0.000 A 
ATOM     14  C   UNL     1       5.570   4.832  16.181  0.00  0.00    +0.000 A 
ATOM     15  C   UNL     1       4.770   4.744  17.515  0.00  0.00    +0.000 A 
ATOM     16  H   UNL     1       8.383   5.584  14.661  0.00  0.00    +0.000 HD
ENDBRANCH   1   3
BRANCH   1  20
ATOM     17  C   UNL     1       1.336   9.473  19.476  0.00  0.00    +0.000 A 
ATOM     18  C   UNL     1       1.263   8.602  20.592  0.00  0.00    +0.000 A 
ATOM     19  C   UNL     1       1.714   7.199  20.585  0.00  0.00    +0.000 A 
ATOM     20  C   UNL     1       2.271   6.580  19.455  0.00  0.00    +0.000 A 
ATOM     21  C   UNL     1       2.431   7.505  18.375  0.00  0.00    +0.000 A 
ATOM     22  C   UNL     1       1.973   8.894  18.375  0.00  0.00    +0.000 A 
BRANCH  17  24
ATOM     23  O   UNL     1       1.275  11.779  20.229  0.00  0.00    +0.000 OA
ATOM     24  C   UNL     1       0.724  10.917  19.536  0.00  0.00    +0.000 C 
BRANCH  24  25
ATOM     25  C   UNL     1      -0.573  11.283  18.779  0.00  0.00    +0.000 C 
ATOM     26  C   UNL     1      -1.385  10.402  18.136  0.00  0.00    +0.000 C 
BRANCH  26  27
ATOM     27  C   UNL     1      -2.586  10.779  17.406  0.00  0.00    +0.000 A 
ATOM     28  C   UNL     1      -2.944  10.677  16.069  0.00  0.00    +0.000 A 
ATOM     29  C   UNL     1      -4.260  11.146  15.746  0.00  0.00    +0.000 A 
ATOM     30  C   UNL     1      -4.913  11.635  16.854  0.00  0.00    +0.000 A 
ATOM     31  S   UNL     1      -3.925  11.522  18.252  0.00  0.00    +0.000 S 
ENDBRANCH  26  27
ENDBRANCH  24  25
ENDBRANCH  17  24
ENDBRANCH   1  20
TORSDOF 5
ENDMDL
MODEL 2
REMARK VINA RESULT:      -9.8      2.203      2.643
REMARK  Name = 
REMARK  5 active torsions:
REMARK  status: ('A' for Active; 'I' for Inactive)
REMARK    1  A    between atoms: C_2  and  C_3
REMARK    2  A    between atoms: C_2  and  C_10
REMARK    3  A    between atoms: C_4  and  C_5
REMARK    4  A    between atoms: C_13  and  N_14
REMARK    5  A    between atoms: N_14  and  C_15
REMARK                            x       y       z     vdW  Elec       q    Type
REMARK                         _______ _______ _______ _____ _____    ______ ____
ROOT
ATOM      1  N   UNL     1       2.420   4.757  18.632  0.00  0.00    +0.000 N 
ATOM      2  H   UNL     1       2.830   4.398  19.504  0.00  0.00    +0.000 HD
ENDROOT
BRANCH   1   3
ATOM      3  C   UNL     1       3.473   3.931  17.594  0.00  0.00    +0.000 A 
ATOM      4  C   UNL     1       3.693   2.719  18.182  0.00  0.00    +0.000 A 
ATOM      5  C   UNL     1       4.589   2.842  19.212  0.00  0.00    +0.000 A 
ATOM      6  N   UNL     1       5.426   3.906  19.361  0.00  0.00    +0.000 NA
ATOM      7  C   UNL     1       5.586   4.745  18.319  0.00  0.00    +0.000 A 
ATOM      8  C   UNL     1       6.733   5.536  18.342  0.00  0.00    +0.000 A 
ATOM      9  C   UNL     1       7.320   6.106  17.220  0.00  0.00    +0.000 A 
ATOM     10  C   UNL     1       6.873   5.550  16.035  0.00  0.00    +0.000 A 
ATOM     11  N   UNL     1       7.553   5.522  14.831  0.00  0.00    +0.000 N 
ATOM     12  C   UNL     1       6.985   4.590  14.011  0.00  0.00    +0.000 A 
ATOM     13  C   UNL     1       5.784   4.210  14.614  0.00  0.00    +0.000 A 
ATOM     14  C   UNL     1       5.677   4.795  15.957  0.00  0.00    +0.000 A 
ATOM     15  C   UNL     1       4.749   4.652  17.201  0.00  0.00    +0.000 A 
ATOM     16  H   UNL     1       8.468   5.964  14.680  0.00  0.00    +0.000 HD
ENDBRANCH   1   3
BRANCH   1  20
ATOM     17  C   UNL     1       1.416   9.110  19.454  0.00  0.00    +0.000 A 
ATOM     18  C   UNL     1       1.512   8.155  20.497  0.00  0.00    +0.000 A 
ATOM     19  C   UNL     1       1.870   6.739  20.300  0.00  0.00    +0.000 A 
ATOM     20  C   UNL     1       2.158   6.191  19.040  0.00  0.00    +0.000 A 
ATOM     21  C   UNL     1       2.158   7.193  18.019  0.00  0.00    +0.000 A 
ATOM     22  C   UNL     1       1.791   8.596  18.211  0.00  0.00    +0.000 A 
BRANCH  17  24
ATOM     23  O   UNL     1       1.556  11.528  19.297  0.00  0.00    +0.000 OA
ATOM     24  C   UNL     1       0.913  10.569  19.739  0.00  0.00    +0.000 C 
BRANCH  24  25
ATOM     25  C   UNL     1      -0.348  10.843  20.590  0.00  0.00    +0.000 C 
ATOM     26  C   UNL     1      -0.798  12.072  20.958  0.00  0.00    +0.000 C 
BRANCH  26  27
ATOM     27  C   UNL     1      -1.973  12.300  21.785  0.00  0.00    +0.000 A 
ATOM     28  C   UNL     1      -2.226  12.099  23.135  0.00  0.00    +0.000 A 
ATOM     29  C   UNL     1      -3.532  12.487  23.581  0.00  0.00    +0.000 A 
ATOM     30  C   UNL     1      -4.299  12.975  22.550  0.00  0.00    +0.000 A 
ATOM     31  S   UNL     1      -3.432  12.949  21.069  0.00  0.00    +0.000 S 
ENDBRANCH  26  27
ENDBRANCH  24  25
ENDBRANCH  17  24
ENDBRANCH   1  20
TORSDOF 5
ENDMDL
MODEL 3
REMARK VINA RESULT:      -9.8      2.789      3.965
REMARK  Name = 
REMARK  5 active torsions:
REMARK  status: ('A' for Active; 'I' for Inactive)
REMARK    1  A    between atoms: C_2  and  C_3
REMARK    2  A    between atoms: C_2  and  C_10
REMARK    3  A    between atoms: C_4  and  C_5
REMARK    4  A    between atoms: C_13  and  N_14
REMARK    5  A    between atoms: N_14  and  C_15
REMARK                            x       y       z     vdW  Elec       q    Type
REMARK                         _______ _______ _______ _____ _____    ______ ____
ROOT
ATOM      1  N   UNL     1       2.543   5.354  18.943  0.00  0.00    +0.000 N 
ATOM      2  H   UNL     1       3.217   5.258  19.714  0.00  0.00    +0.000 HD
ENDROOT
BRANCH   1   3
ATOM      3  C   UNL     1       3.392   4.379  17.849  0.00  0.00    +0.000 A 
ATOM      4  C   UNL     1       3.475   3.152  18.437  0.00  0.00    +0.000 A 
ATOM      5  C   UNL     1       4.447   3.147  19.403  0.00  0.00    +0.000 A 
ATOM      6  N   UNL     1       5.437   4.079  19.481  0.00  0.00    +0.000 NA
ATOM      7  C   UNL     1       5.646   4.882  18.419  0.00  0.00    +0.000 A 
ATOM      8  C   UNL     1       6.893   5.497  18.353  0.00  0.00    +0.000 A 
ATOM      9  C   UNL     1       7.479   5.971  17.187  0.00  0.00    +0.000 A 
ATOM     10  C   UNL     1       6.876   5.481  16.042  0.00  0.00    +0.000 A 
ATOM     11  N   UNL     1       7.460   5.349  14.796  0.00  0.00    +0.000 N 
ATOM     12  C   UNL     1       6.710   4.507  14.029  0.00  0.00    +0.000 A 
ATOM     13  C   UNL     1       5.510   4.308  14.716  0.00  0.00    +0.000 A 
ATOM     14  C   UNL     1       5.581   4.908  16.055  0.00  0.00    +0.000 A 
ATOM     15  C   UNL     1       4.729   4.906  17.361  0.00  0.00    +0.000 A 
ATOM     16  H   UNL     1       8.418   5.653  14.578  0.00  0.00    +0.000 HD
ENDBRANCH   1   3
BRANCH   1  20
ATOM     17  C   UNL     1       1.332   9.733  18.948  0.00  0.00    +0.000 A 
ATOM     18  C   UNL     1       1.307   8.948  20.129  0.00  0.00    +0.000 A 
ATOM     19  C   UNL     1       1.723   7.536  20.200  0.00  0.00    +0.000 A 
ATOM     20  C   UNL     1       2.194   6.820  19.088  0.00  0.00    +0.000 A 
ATOM     21  C   UNL     1       2.309   7.658  17.934  0.00  0.00    +0.000 A 
ATOM     22  C   UNL     1       1.886   9.056  17.858  0.00  0.00    +0.000 A 
BRANCH  17  24
ATOM     23  O   UNL     1      -0.433  11.375  18.672  0.00  0.00    +0.000 OA
ATOM     24  C   UNL     1       0.761  11.194  18.937  0.00  0.00    +0.000 C 
BRANCH  24  25
ATOM     25  C   UNL     1       1.659  12.421  19.214  0.00  0.00    +0.000 C 
ATOM     26  C   UNL     1       2.431  13.056  18.293  0.00  0.00    +0.000 C 
BRANCH  26  27
ATOM     27  C   UNL     1       3.290  14.193  18.589  0.00  0.00    +0.000 A 
ATOM     28  C   UNL     1       3.962  15.099  17.781  0.00  0.00    +0.000 A 
ATOM     29  C   UNL     1       4.696  16.116  18.475  0.00  0.00    +0.000 A 
ATOM     30  C   UNL     1       4.601  15.973  19.839  0.00  0.00    +0.000 A 
ATOM     31  S   UNL     1       3.635  14.616  20.251  0.00  0.00    +0.000 S 
ENDBRANCH  26  27
ENDBRANCH  24  25
ENDBRANCH  17  24
ENDBRANCH   1  20
TORSDOF 5
ENDMDL
MODEL 4
REMARK VINA RESULT:      -9.7      2.578      3.435
REMARK  Name = 
REMARK  5 active torsions:
REMARK  status: ('A' for Active; 'I' for Inactive)
REMARK    1  A    between atoms: C_2  and  C_3
REMARK    2  A    between atoms: C_2  and  C_10
REMARK    3  A    between atoms: C_4  and  C_5
REMARK    4  A    between atoms: C_13  and  N_14
REMARK    5  A    between atoms: N_14  and  C_15
REMARK                            x       y       z     vdW  Elec       q    Type
REMARK                         _______ _______ _______ _____ _____    ______ ____
ROOT
ATOM      1  N   UNL     1       2.398   4.943  18.823  0.00  0.00    +0.000 N 
ATOM      2  H   UNL     1       2.923   4.658  19.660  0.00  0.00    +0.000 HD
ENDROOT
BRANCH   1   3
ATOM      3  C   UNL     1       3.355   4.089  17.718  0.00  0.00    +0.000 A 
ATOM      4  C   UNL     1       3.479   2.831  18.233  0.00  0.00    +0.000 A 
ATOM      5  C   UNL     1       4.400   2.817  19.247  0.00  0.00    +0.000 A 
ATOM      6  N   UNL     1       5.329   3.794  19.436  0.00  0.00    +0.000 NA
ATOM      7  C   UNL     1       5.545   4.674  18.439  0.00  0.00    +0.000 A 
ATOM      8  C   UNL     1       6.756   5.359  18.479  0.00  0.00    +0.000 A 
ATOM      9  C   UNL     1       7.372   5.939  17.377  0.00  0.00    +0.000 A 
ATOM     10  C   UNL     1       6.856   5.493  16.174  0.00  0.00    +0.000 A 
ATOM     11  N   UNL     1       7.509   5.474  14.954  0.00  0.00    +0.000 N 
ATOM     12  C   UNL     1       6.847   4.644  14.098  0.00  0.00    +0.000 A 
ATOM     13  C   UNL     1       5.628   4.336  14.706  0.00  0.00    +0.000 A 
ATOM     14  C   UNL     1       5.597   4.851  16.081  0.00  0.00    +0.000 A 
ATOM     15  C   UNL     1       4.683   4.717  17.336  0.00  0.00    +0.000 A 
ATOM     16  H   UNL     1       8.457   5.843  14.808  0.00  0.00    +0.000 HD
ENDBRANCH   1   3
BRANCH   1  20
ATOM     17  C   UNL     1       1.385   9.326  19.453  0.00  0.00    +0.000 A 
ATOM     18  C   UNL     1       1.400   8.401  20.527  0.00  0.00    +0.000 A 
ATOM     19  C   UNL     1       1.757   6.977  20.394  0.00  0.00    +0.000 A 
ATOM     20  C   UNL     1       2.123   6.390  19.172  0.00  0.00    +0.000 A 
ATOM     21  C   UNL     1       2.202   7.363  18.126  0.00  0.00    +0.000 A 
ATOM     22  C   UNL     1       1.837   8.773  18.252  0.00  0.00    +0.000 A 
BRANCH  17  24
ATOM     23  O   UNL     1      -0.124  10.999  20.356  0.00  0.00    +0.000 OA
ATOM     24  C   UNL     1       0.879  10.797  19.662  0.00  0.00    +0.000 C 
BRANCH  24  25
ATOM     25  C   UNL     1       1.580  12.001  18.993  0.00  0.00    +0.000 C 
ATOM     26  C   UNL     1       1.499  13.292  19.412  0.00  0.00    +0.000 C 
BRANCH  26  27
ATOM     27  C   UNL     1       2.147  14.411  18.745  0.00  0.00    +0.000 A 
ATOM     28  C   UNL     1       3.309  14.513  17.995  0.00  0.00    +0.000 A 
ATOM     29  C   UNL     1       3.594  15.817  17.473  0.00  0.00    +0.000 A 
ATOM     30  C   UNL     1       2.641  16.735  17.849  0.00  0.00    +0.000 A 
ATOM     31  S   UNL     1       1.432  16.007  18.824  0.00  0.00    +0.000 S 
ENDBRANCH  26  27
ENDBRANCH  24  25
ENDBRANCH  17  24
ENDBRANCH   1  20
TORSDOF 5
ENDMDL
MODEL 5
REMARK VINA RESULT:      -9.7      1.339      1.549
REMARK  Name = 
REMARK  5 active torsions:
REMARK  status: ('A' for Active; 'I' for Inactive)
REMARK    1  A    between atoms: C_2  and  C_3
REMARK    2  A    between atoms: C_2  and  C_10
REMARK    3  A    between atoms: C_4  and  C_5
REMARK    4  A    between atoms: C_13  and  N_14
REMARK    5  A    between atoms: N_14  and  C_15
REMARK                            x       y       z     vdW  Elec       q    Type
REMARK                         _______ _______ _______ _____ _____    ______ ____
ROOT
ATOM      1  N   UNL     1       2.729   5.631  19.155  0.00  0.00    +0.000 N 
ATOM      2  H   UNL     1       3.589   5.708  19.713  0.00  0.00    +0.000 HD
ENDROOT
BRANCH   1   3
ATOM      3  C   UNL     1       3.387   4.627  17.961  0.00  0.00    +0.000 A 
ATOM      4  C   UNL     1       3.292   3.359  18.453  0.00  0.00    +0.000 A 
ATOM      5  C   UNL     1       4.276   3.129  19.378  0.00  0.00    +0.000 A 
ATOM      6  N   UNL     1       5.401   3.889  19.488  0.00  0.00    +0.000 NA
ATOM      7  C   UNL     1       5.705   4.731  18.481  0.00  0.00    +0.000 A 
ATOM      8  C   UNL     1       7.031   5.151  18.414  0.00  0.00    +0.000 A 
ATOM      9  C   UNL     1       7.653   5.621  17.265  0.00  0.00    +0.000 A 
ATOM     10  C   UNL     1       6.952   5.321  16.111  0.00  0.00    +0.000 A 
ATOM     11  N   UNL     1       7.476   5.200  14.837  0.00  0.00    +0.000 N 
ATOM     12  C   UNL     1       6.584   4.546  14.039  0.00  0.00    +0.000 A 
ATOM     13  C   UNL     1       5.386   4.480  14.754  0.00  0.00    +0.000 A 
ATOM     14  C   UNL     1       5.584   4.954  16.130  0.00  0.00    +0.000 A 
ATOM     15  C   UNL     1       4.776   4.979  17.463  0.00  0.00    +0.000 A 
ATOM     16  H   UNL     1       8.463   5.370  14.606  0.00  0.00    +0.000 HD
ENDBRANCH   1   3
BRANCH   1  20
ATOM     17  C   UNL     1       1.060   9.855  19.038  0.00  0.00    +0.000 A 
ATOM     18  C   UNL     1       1.119   9.107  20.241  0.00  0.00    +0.000 A 
ATOM     19  C   UNL     1       1.682   7.750  20.351  0.00  0.00    +0.000 A 
ATOM     20  C   UNL     1       2.226   7.055  19.259  0.00  0.00    +0.000 A 
ATOM     21  C   UNL     1       2.251   7.867  18.081  0.00  0.00    +0.000 A 
ATOM     22  C   UNL     1       1.682   9.209  17.966  0.00  0.00    +0.000 A 
BRANCH  17  24
ATOM     23  O   UNL     1       1.013  12.281  18.991  0.00  0.00    +0.000 OA
ATOM     24  C   UNL     1       0.336  11.246  18.986  0.00  0.00    +0.000 C 
BRANCH  24  25
ATOM     25  C   UNL     1      -1.205  11.361  18.965  0.00  0.00    +0.000 C 
ATOM     26  C   UNL     1      -1.939  12.244  19.694  0.00  0.00    +0.000 C 
BRANCH  26  27
ATOM     27  C   UNL     1      -3.392  12.310  19.677  0.00  0.00    +0.000 A 
ATOM     28  C   UNL     1      -4.342  11.879  18.761  0.00  0.00    +0.000 A 
ATOM     29  C   UNL     1      -5.707  12.110  19.135  0.00  0.00    +0.000 A 
ATOM     30  C   UNL     1      -5.802  12.747  20.350  0.00  0.00    +0.000 A 
ATOM     31  S   UNL     1      -4.248  13.057  21.008  0.00  0.00    +0.000 S 
ENDBRANCH  26  27
ENDBRANCH  24  25
ENDBRANCH  17  24
ENDBRANCH   1  20
TORSDOF 5
ENDMDL
MODEL 6
REMARK VINA RESULT:      -9.6      0.836      1.310
REMARK  Name = 
REMARK  5 active torsions:
REMARK  status: ('A' for Active; 'I' for Inactive)
REMARK    1  A    between atoms: C_2  and  C_3
REMARK    2  A    between atoms: C_2  and  C_10
REMARK    3  A    between atoms: C_4  and  C_5
REMARK    4  A    between atoms: C_13  and  N_14
REMARK    5  A    between atoms: N_14  and  C_15
REMARK                            x       y       z     vdW  Elec       q    Type
REMARK                         _______ _______ _______ _____ _____    ______ ____
ROOT
ATOM      1  N   UNL     1       2.738   5.585  19.089  0.00  0.00    +0.000 N 
ATOM      2  H   UNL     1       3.594   5.769  19.628  0.00  0.00    +0.000 HD
ENDROOT
BRANCH   1   3
ATOM      3  C   UNL     1       3.466   4.564  17.951  0.00  0.00    +0.000 A 
ATOM      4  C   UNL     1       3.470   3.324  18.519  0.00  0.00    +0.000 A 
ATOM      5  C   UNL     1       4.473   3.225  19.448  0.00  0.00    +0.000 A 
ATOM      6  N   UNL     1       5.537   4.074  19.503  0.00  0.00    +0.000 NA
ATOM      7  C   UNL     1       5.771   4.875  18.445  0.00  0.00    +0.000 A 
ATOM      8  C   UNL     1       7.061   5.389  18.342  0.00  0.00    +0.000 A 
ATOM      9  C   UNL     1       7.642   5.835  17.161  0.00  0.00    +0.000 A 
ATOM     10  C   UNL     1       6.961   5.413  16.033  0.00  0.00    +0.000 A 
ATOM     11  N   UNL     1       7.488   5.256  14.764  0.00  0.00    +0.000 N 
ATOM     12  C   UNL     1       6.645   4.490  14.015  0.00  0.00    +0.000 A 
ATOM     13  C   UNL     1       5.458   4.376  14.742  0.00  0.00    +0.000 A 
ATOM     14  C   UNL     1       5.624   4.946  16.086  0.00  0.00    +0.000 A 
ATOM     15  C   UNL     1       4.823   4.990  17.422  0.00  0.00    +0.000 A 
ATOM     16  H   UNL     1       8.458   5.486  14.515  0.00  0.00    +0.000 HD
ENDBRANCH   1   3
BRANCH   1  20
ATOM     17  C   UNL     1       1.045   9.772  19.576  0.00  0.00    +0.000 A 
ATOM     18  C   UNL     1       1.474   9.281  18.318  0.00  0.00    +0.000 A 
ATOM     19  C   UNL     1       1.996   7.922  18.088  0.00  0.00    +0.000 A 
ATOM     20  C   UNL     1       2.118   6.966  19.109  0.00  0.00    +0.000 A 
ATOM     21  C   UNL     1       1.584   7.448  20.346  0.00  0.00    +0.000 A 
ATOM     22  C   UNL     1       1.077   8.800  20.579  0.00  0.00    +0.000 A 
BRANCH  17  24
ATOM     23  O   UNL     1       1.464  12.113  20.061  0.00  0.00    +0.000 OA
ATOM     24  C   UNL     1       0.613  11.270  19.754  0.00  0.00    +0.000 C 
BRANCH  24  25
ATOM     25  C   UNL     1      -0.857  11.719  19.590  0.00  0.00    +0.000 C 
ATOM     26  C   UNL     1      -1.772  11.134  18.772  0.00  0.00    +0.000 C 
BRANCH  26  27
ATOM     27  C   UNL     1      -3.143  11.596  18.615  0.00  0.00    +0.000 A 
ATOM     28  C   UNL     1      -4.070  11.456  17.593  0.00  0.00    +0.000 A 
ATOM     29  C   UNL     1      -5.354  12.046  17.840  0.00  0.00    +0.000 A 
ATOM     30  C   UNL     1      -5.401  12.666  19.067  0.00  0.00    +0.000 A 
ATOM     31  S   UNL     1      -3.901  12.528  19.887  0.00  0.00    +0.000 S 
ENDBRANCH  26  27
ENDBRANCH  24  25
ENDBRANCH  17  24
ENDBRANCH   1  20
TORSDOF 5
ENDMDL
MODEL 7
REMARK VINA RESULT:      -9.6      2.287      2.543
REMARK  Name = 
REMARK  5 active torsions:
REMARK  status: ('A' for Active; 'I' for Inactive)
REMARK    1  A    between atoms: C_2  and  C_3
REMARK    2  A    between atoms: C_2  and  C_10
REMARK    3  A    between atoms: C_4  and  C_5
REMARK    4  A    between atoms: C_13  and  N_14
REMARK    5  A    between atoms: N_14  and  C_15
REMARK                            x       y       z     vdW  Elec       q    Type
REMARK                         _______ _______ _______ _____ _____    ______ ____
ROOT
ATOM      1  N   UNL     1       2.121   4.394  17.968  0.00  0.00    +0.000 N 
ATOM      2  H   UNL     1       1.871   3.574  18.537  0.00  0.00    +0.000 HD
ENDROOT
BRANCH   1   3
ATOM      3  C   UNL     1       3.376   3.639  17.118  0.00  0.00    +0.000 A 
ATOM      4  C   UNL     1       3.602   2.460  17.766  0.00  0.00    +0.000 A 
ATOM      5  C   UNL     1       4.324   2.672  18.910  0.00  0.00    +0.000 A 
ATOM      6  N   UNL     1       5.044   3.803  19.149  0.00  0.00    +0.000 NA
ATOM      7  C   UNL     1       5.290   4.635  18.118  0.00  0.00    +0.000 A 
ATOM      8  C   UNL     1       6.355   5.516  18.284  0.00  0.00    +0.000 A 
ATOM      9  C   UNL     1       7.055   6.114  17.243  0.00  0.00    +0.000 A 
ATOM     10  C   UNL     1       6.831   5.503  16.022  0.00  0.00    +0.000 A 
ATOM     11  N   UNL     1       7.680   5.511  14.930  0.00  0.00    +0.000 N 
ATOM     12  C   UNL     1       7.313   4.523  14.064  0.00  0.00    +0.000 A 
ATOM     13  C   UNL     1       6.070   4.056  14.497  0.00  0.00    +0.000 A 
ATOM     14  C   UNL     1       5.721   4.653  15.793  0.00  0.00    +0.000 A 
ATOM     15  C   UNL     1       4.635   4.455  16.894  0.00  0.00    +0.000 A 
ATOM     16  H   UNL     1       8.570   6.023  14.901  0.00  0.00    +0.000 HD
ENDBRANCH   1   3
BRANCH   1  20
ATOM     17  C   UNL     1       1.543   7.931  20.759  0.00  0.00    +0.000 A 
ATOM     18  C   UNL     1       1.393   6.594  21.206  0.00  0.00    +0.000 A 
ATOM     19  C   UNL     1       1.603   5.406  20.360  0.00  0.00    +0.000 A 
ATOM     20  C   UNL     1       1.981   5.483  19.011  0.00  0.00    +0.000 A 
ATOM     21  C   UNL     1       2.228   6.834  18.612  0.00  0.00    +0.000 A 
ATOM     22  C   UNL     1       2.008   8.016  19.445  0.00  0.00    +0.000 A 
BRANCH  17  24
ATOM     23  O   UNL     1       1.966   9.461  22.595  0.00  0.00    +0.000 OA
ATOM     24  C   UNL     1       1.184   9.140  21.693  0.00  0.00    +0.000 C 
BRANCH  24  25
ATOM     25  C   UNL     1      -0.140   9.922  21.540  0.00  0.00    +0.000 C 
ATOM     26  C   UNL     1      -0.255  11.276  21.495  0.00  0.00    +0.000 C 
BRANCH  26  27
ATOM     27  C   UNL     1      -1.520  11.986  21.380  0.00  0.00    +0.000 A 
ATOM     28  C   UNL     1      -2.160  12.597  20.311  0.00  0.00    +0.000 A 
ATOM     29  C   UNL     1      -3.438  13.175  20.608  0.00  0.00    +0.000 A 
ATOM     30  C   UNL     1      -3.773  13.020  21.933  0.00  0.00    +0.000 A 
ATOM     31  S   UNL     1      -2.539  12.189  22.788  0.00  0.00    +0.000 S 
ENDBRANCH  26  27
ENDBRANCH  24  25
ENDBRANCH  17  24
ENDBRANCH   1  20
TORSDOF 5
ENDMDL
MODEL 8
REMARK VINA RESULT:      -9.5      2.640      3.162
REMARK  Name = 
REMARK  5 active torsions:
REMARK  status: ('A' for Active; 'I' for Inactive)
REMARK    1  A    between atoms: C_2  and  C_3
REMARK    2  A    between atoms: C_2  and  C_10
REMARK    3  A    between atoms: C_4  and  C_5
REMARK    4  A    between atoms: C_13  and  N_14
REMARK    5  A    between atoms: N_14  and  C_15
REMARK                            x       y       z     vdW  Elec       q    Type
REMARK                         _______ _______ _______ _____ _____    ______ ____
ROOT
ATOM      1  N   UNL     1       2.606   6.936  19.229  0.00  0.00    +0.000 N 
ATOM      2  H   UNL     1       3.548   7.306  19.412  0.00  0.00    +0.000 HD
ENDROOT
BRANCH   1   3
ATOM      3  C   UNL     1       3.079   5.851  18.018  0.00  0.00    +0.000 A 
ATOM      4  C   UNL     1       2.527   4.652  18.363  0.00  0.00    +0.000 A 
ATOM      5  C   UNL     1       3.253   4.060  19.364  0.00  0.00    +0.000 A 
ATOM      6  N   UNL     1       4.531   4.410  19.677  0.00  0.00    +0.000 NA
ATOM      7  C   UNL     1       5.219   5.171  18.803  0.00  0.00    +0.000 A 
ATOM      8  C   UNL     1       6.605   5.146  18.929  0.00  0.00    +0.000 A 
ATOM      9  C   UNL     1       7.496   5.461  17.911  0.00  0.00    +0.000 A 
ATOM     10  C   UNL     1       6.904   5.475  16.661  0.00  0.00    +0.000 A 
ATOM     11  N   UNL     1       7.537   5.272  15.448  0.00  0.00    +0.000 N 
ATOM     12  C   UNL     1       6.605   4.991  14.492  0.00  0.00    +0.000 A 
ATOM     13  C   UNL     1       5.359   5.268  15.058  0.00  0.00    +0.000 A 
ATOM     14  C   UNL     1       5.501   5.567  16.489  0.00  0.00    +0.000 A 
ATOM     15  C   UNL     1       4.564   5.767  17.718  0.00  0.00    +0.000 A 
ATOM     16  H   UNL     1       8.549   5.130  15.348  0.00  0.00    +0.000 HD
ENDBRANCH   1   3
BRANCH   1  20
ATOM     17  C   UNL     1       0.071  10.703  19.078  0.00  0.00    +0.000 A 
ATOM     18  C   UNL     1       0.239   9.962  20.275  0.00  0.00    +0.000 A 
ATOM     19  C   UNL     1       1.077   8.756  20.397  0.00  0.00    +0.000 A 
ATOM     20  C   UNL     1       1.803   8.216  19.324  0.00  0.00    +0.000 A 
ATOM     21  C   UNL     1       1.702   9.037  18.156  0.00  0.00    +0.000 A 
ATOM     22  C   UNL     1       0.862  10.227  18.029  0.00  0.00    +0.000 A 
BRANCH  17  24
ATOM     23  O   UNL     1      -0.788  12.766  18.131  0.00  0.00    +0.000 OA
ATOM     24  C   UNL     1      -0.933  11.906  19.008  0.00  0.00    +0.000 C 
BRANCH  24  25
ATOM     25  C   UNL     1      -2.082  12.068  20.029  0.00  0.00    +0.000 C 
ATOM     26  C   UNL     1      -1.939  12.478  21.318  0.00  0.00    +0.000 C 
BRANCH  26  27
ATOM     27  C   UNL     1      -3.037  12.592  22.266  0.00  0.00    +0.000 A 
ATOM     28  C   UNL     1      -3.113  12.417  23.640  0.00  0.00    +0.000 A 
ATOM     29  C   UNL     1      -4.401  12.660  24.222  0.00  0.00    +0.000 A 
ATOM     30  C   UNL     1      -5.332  13.008  23.271  0.00  0.00    +0.000 A 
ATOM     31  S   UNL     1      -4.635  13.029  21.704  0.00  0.00    +0.000 S 
ENDBRANCH  26  27
ENDBRANCH  24  25
ENDBRANCH  17  24
ENDBRANCH   1  20
TORSDOF 5
ENDMDL
MODEL 9
REMARK VINA RESULT:      -9.5      2.182      2.834
REMARK  Name = 
REMARK  5 active torsions:
REMARK  status: ('A' for Active; 'I' for Inactive)
REMARK    1  A    between atoms: C_2  and  C_3
REMARK    2  A    between atoms: C_2  and  C_10
REMARK    3  A    between atoms: C_4  and  C_5
REMARK    4  A    between atoms: C_13  and  N_14
REMARK    5  A    between atoms: N_14  and  C_15
REMARK                            x       y       z     vdW  Elec       q    Type
REMARK                         _______ _______ _______ _____ _____    ______ ____
ROOT
ATOM      1  N   UNL     1       2.611   5.742  18.967  0.00  0.00    +0.000 N 
ATOM      2  H   UNL     1       3.456   5.848  19.543  0.00  0.00    +0.000 HD
ENDROOT
BRANCH   1   3
ATOM      3  C   UNL     1       3.313   4.713  17.819  0.00  0.00    +0.000 A 
ATOM      4  C   UNL     1       3.193   3.454  18.332  0.00  0.00    +0.000 A 
ATOM      5  C   UNL     1       4.138   3.239  19.301  0.00  0.00    +0.000 A 
ATOM      6  N   UNL     1       5.260   3.997  19.441  0.00  0.00    +0.000 NA
ATOM      7  C   UNL     1       5.608   4.819  18.432  0.00  0.00    +0.000 A 
ATOM      8  C   UNL     1       6.938   5.233  18.411  0.00  0.00    +0.000 A 
ATOM      9  C   UNL     1       7.608   5.678  17.279  0.00  0.00    +0.000 A 
ATOM     10  C   UNL     1       6.953   5.358  16.103  0.00  0.00    +0.000 A 
ATOM     11  N   UNL     1       7.528   5.211  14.854  0.00  0.00    +0.000 N 
ATOM     12  C   UNL     1       6.666   4.544  14.033  0.00  0.00    +0.000 A 
ATOM     13  C   UNL     1       5.440   4.496  14.700  0.00  0.00    +0.000 A 
ATOM     14  C   UNL     1       5.583   4.996  16.074  0.00  0.00    +0.000 A 
ATOM     15  C   UNL     1       4.723   5.050  17.372  0.00  0.00    +0.000 A 
ATOM     16  H   UNL     1       8.524   5.373  14.660  0.00  0.00    +0.000 HD
ENDBRANCH   1   3
BRANCH   1  20
ATOM     17  C   UNL     1       1.199  10.021  19.540  0.00  0.00    +0.000 A 
ATOM     18  C   UNL     1       1.604   9.531  18.273  0.00  0.00    +0.000 A 
ATOM     19  C   UNL     1       2.036   8.146  18.016  0.00  0.00    +0.000 A 
ATOM     20  C   UNL     1       2.086   7.161  19.015  0.00  0.00    +0.000 A 
ATOM     21  C   UNL     1       1.575   7.649  20.259  0.00  0.00    +0.000 A 
ATOM     22  C   UNL     1       1.158   9.027  20.520  0.00  0.00    +0.000 A 
BRANCH  17  24
ATOM     23  O   UNL     1       1.715  12.391  19.455  0.00  0.00    +0.000 OA
ATOM     24  C   UNL     1       0.868  11.541  19.750  0.00  0.00    +0.000 C 
BRANCH  24  25
ATOM     25  C   UNL     1      -0.479  12.005  20.349  0.00  0.00    +0.000 C 
ATOM     26  C   UNL     1      -0.889  11.787  21.627  0.00  0.00    +0.000 C 
BRANCH  26  27
ATOM     27  C   UNL     1      -2.177  12.210  22.157  0.00  0.00    +0.000 A 
ATOM     28  C   UNL     1      -2.751  12.118  23.416  0.00  0.00    +0.000 A 
ATOM     29  C   UNL     1      -4.057  12.697  23.541  0.00  0.00    +0.000 A 
ATOM     30  C   UNL     1      -4.497  13.223  22.350  0.00  0.00    +0.000 A 
ATOM     31  S   UNL     1      -3.333  13.004  21.110  0.00  0.00    +0.000 S 
ENDBRANCH  26  27
ENDBRANCH  24  25
ENDBRANCH  17  24
ENDBRANCH   1  20
TORSDOF 5
ENDMDL
