MODEL 1
REMARK VINA RESULT:      -6.7      0.000      0.000
REMARK  Name = 
REMARK  4 active torsions:
REMARK  status: ('A' for Active; 'I' for Inactive)
REMARK    1  A    between atoms: C_2  and  C_3
REMARK    2  A    between atoms: C_6  and  O_7
REMARK    3  A    between atoms: O_7  and  C_8
REMARK    4  A    between atoms: C_8  and  C_10
REMARK                            x       y       z     vdW  Elec       q    Type
REMARK                         _______ _______ _______ _____ _____    ______ ____
ROOT
ATOM      1  C   UNL     1       3.142   3.523  17.269  0.00  0.00    +0.000 C 
ATOM      2  O   UNL     1       2.273   3.515  16.414  0.00  0.00    +0.000 OA
ENDROOT
BRANCH   1   3
ATOM      3  C   UNL     1       2.876   3.661  18.722  0.00  0.00    +0.000 A 
ATOM      4  C   UNL     1       2.404   4.862  19.282  0.00  0.00    +0.000 A 
ATOM      5 CL   UNL     1       2.207   6.329  18.381  0.00  0.00    +0.000 Cl
ATOM      6  C   UNL     1       2.106   4.941  20.650  0.00  0.00    +0.000 A 
ATOM      7  C   UNL     1       2.296   3.840  21.479  0.00  0.00    +0.000 A 
ATOM      8  C   UNL     1       2.810   2.663  20.947  0.00  0.00    +0.000 A 
ATOM      9  C   UNL     1       3.106   2.570  19.579  0.00  0.00    +0.000 A 
ATOM     10 CL   UNL     1       3.728   1.043  19.049  0.00  0.00    +0.000 Cl
ENDBRANCH   1   3
BRANCH   1  11
ATOM     11  O   UNL     1       4.516   3.499  17.058  0.00  0.00    +0.000 OA
BRANCH  11  15
ATOM     12  C   UNL     1       6.905   6.922  17.580  0.00  0.00    +0.000 A 
ATOM     13  C   UNL     1       5.830   6.906  16.680  0.00  0.00    +0.000 A 
ATOM     14  C   UNL     1       5.058   5.751  16.535  0.00  0.00    +0.000 A 
ATOM     15  C   UNL     1       5.363   4.609  17.281  0.00  0.00    +0.000 A 
ATOM     16  C   UNL     1       6.412   4.626  18.198  0.00  0.00    +0.000 A 
ATOM     17  C   UNL     1       7.191   5.779  18.338  0.00  0.00    +0.000 A 
BRANCH  12  19
ATOM     18  N   UNL     1       8.346   9.060  17.849  0.00  0.00    +0.000 NA
ATOM     19  C   UNL     1       7.700   8.101  17.727  0.00  0.00    +0.000 C 
ENDBRANCH  12  19
ENDBRANCH  11  15
ENDBRANCH   1  11
TORSDOF 4
ENDMDL
MODEL 2
REMARK VINA RESULT:      -6.7      2.708      3.353
REMARK  Name = 
REMARK  4 active torsions:
REMARK  status: ('A' for Active; 'I' for Inactive)
REMARK    1  A    between atoms: C_2  and  C_3
REMARK    2  A    between atoms: C_6  and  O_7
REMARK    3  A    between atoms: O_7  and  C_8
REMARK    4  A    between atoms: C_8  and  C_10
REMARK                            x       y       z     vdW  Elec       q    Type
REMARK                         _______ _______ _______ _____ _____    ______ ____
ROOT
ATOM      1  C   UNL     1       4.708   5.171  19.319  0.00  0.00    +0.000 C 
ATOM      2  O   UNL     1       5.778   5.080  19.895  0.00  0.00    +0.000 OA
ENDROOT
BRANCH   1   3
ATOM      3  C   UNL     1       3.440   4.589  19.825  0.00  0.00    +0.000 A 
ATOM      4  C   UNL     1       2.307   5.382  20.081  0.00  0.00    +0.000 A 
ATOM      5 CL   UNL     1       2.298   7.110  19.964  0.00  0.00    +0.000 Cl
ATOM      6  C   UNL     1       1.107   4.792  20.502  0.00  0.00    +0.000 A 
ATOM      7  C   UNL     1       1.025   3.417  20.698  0.00  0.00    +0.000 A 
ATOM      8  C   UNL     1       2.153   2.629  20.497  0.00  0.00    +0.000 A 
ATOM      9  C   UNL     1       3.358   3.207  20.069  0.00  0.00    +0.000 A 
ATOM     10 CL   UNL     1       4.677   2.108  19.846  0.00  0.00    +0.000 Cl
ENDBRANCH   1   3
BRANCH   1  11
ATOM     11  O   UNL     1       4.482   5.739  18.070  0.00  0.00    +0.000 OA
BRANCH  11  15
ATOM     12  C   UNL     1       5.851   4.254  14.380  0.00  0.00    +0.000 A 
ATOM     13  C   UNL     1       5.675   5.628  14.600  0.00  0.00    +0.000 A 
ATOM     14  C   UNL     1       5.220   6.083  15.840  0.00  0.00    +0.000 A 
ATOM     15  C   UNL     1       4.933   5.169  16.857  0.00  0.00    +0.000 A 
ATOM     16  C   UNL     1       5.133   3.804  16.655  0.00  0.00    +0.000 A 
ATOM     17  C   UNL     1       5.580   3.347  15.411  0.00  0.00    +0.000 A 
BRANCH  12  19
ATOM     18  N   UNL     1       6.689   3.406  12.078  0.00  0.00    +0.000 NA
ATOM     19  C   UNL     1       6.312   3.785  13.110  0.00  0.00    +0.000 C 
ENDBRANCH  12  19
ENDBRANCH  11  15
ENDBRANCH   1  11
TORSDOF 4
ENDMDL
MODEL 3
REMARK VINA RESULT:      -6.7      2.702      3.948
REMARK  Name = 
REMARK  4 active torsions:
REMARK  status: ('A' for Active; 'I' for Inactive)
REMARK    1  A    between atoms: C_2  and  C_3
REMARK    2  A    between atoms: C_6  and  O_7
REMARK    3  A    between atoms: O_7  and  C_8
REMARK    4  A    between atoms: C_8  and  C_10
REMARK                            x       y       z     vdW  Elec       q    Type
REMARK                         _______ _______ _______ _____ _____    ______ ____
ROOT
ATOM      1  C   UNL     1       4.816   5.149  19.337  0.00  0.00    +0.000 C 
ATOM      2  O   UNL     1       5.876   5.034  19.928  0.00  0.00    +0.000 OA
ENDROOT
BRANCH   1   3
ATOM      3  C   UNL     1       3.536   4.565  19.808  0.00  0.00    +0.000 A 
ATOM      4  C   UNL     1       3.387   3.185  20.039  0.00  0.00    +0.000 A 
ATOM      5 CL   UNL     1       4.613   2.015  19.685  0.00  0.00    +0.000 Cl
ATOM      6  C   UNL     1       2.182   2.674  20.540  0.00  0.00    +0.000 A 
ATOM      7  C   UNL     1       1.106   3.520  20.793  0.00  0.00    +0.000 A 
ATOM      8  C   UNL     1       1.224   4.878  20.520  0.00  0.00    +0.000 A 
ATOM      9  C   UNL     1       2.427   5.402  20.024  0.00  0.00    +0.000 A 
ATOM     10 CL   UNL     1       2.439   7.110  19.742  0.00  0.00    +0.000 Cl
ENDBRANCH   1   3
BRANCH   1  11
ATOM     11  O   UNL     1       4.616   5.748  18.099  0.00  0.00    +0.000 OA
BRANCH  11  15
ATOM     12  C   UNL     1       5.871   4.260  14.371  0.00  0.00    +0.000 A 
ATOM     13  C   UNL     1       5.652   5.629  14.580  0.00  0.00    +0.000 A 
ATOM     14  C   UNL     1       5.236   6.086  15.833  0.00  0.00    +0.000 A 
ATOM     15  C   UNL     1       5.032   5.177  16.874  0.00  0.00    +0.000 A 
ATOM     16  C   UNL     1       5.275   3.818  16.682  0.00  0.00    +0.000 A 
ATOM     17  C   UNL     1       5.682   3.359  15.426  0.00  0.00    +0.000 A 
BRANCH  12  19
ATOM     18  N   UNL     1       6.629   3.404  12.043  0.00  0.00    +0.000 NA
ATOM     19  C   UNL     1       6.290   3.789  13.087  0.00  0.00    +0.000 C 
ENDBRANCH  12  19
ENDBRANCH  11  15
ENDBRANCH   1  11
TORSDOF 4
ENDMDL
MODEL 4
REMARK VINA RESULT:      -6.7      0.129      1.118
REMARK  Name = 
REMARK  4 active torsions:
REMARK  status: ('A' for Active; 'I' for Inactive)
REMARK    1  A    between atoms: C_2  and  C_3
REMARK    2  A    between atoms: C_6  and  O_7
REMARK    3  A    between atoms: O_7  and  C_8
REMARK    4  A    between atoms: C_8  and  C_10
REMARK                            x       y       z     vdW  Elec       q    Type
REMARK                         _______ _______ _______ _____ _____    ______ ____
ROOT
ATOM      1  C   UNL     1       3.209   3.535  17.358  0.00  0.00    +0.000 C 
ATOM      2  O   UNL     1       2.363   3.461  16.484  0.00  0.00    +0.000 OA
ENDROOT
BRANCH   1   3
ATOM      3  C   UNL     1       2.899   3.674  18.803  0.00  0.00    +0.000 A 
ATOM      4  C   UNL     1       2.407   4.875  19.346  0.00  0.00    +0.000 A 
ATOM      5 CL   UNL     1       2.232   6.339  18.437  0.00  0.00    +0.000 Cl
ATOM      6  C   UNL     1       2.069   4.955  20.704  0.00  0.00    +0.000 A 
ATOM      7  C   UNL     1       2.239   3.857  21.541  0.00  0.00    +0.000 A 
ATOM      8  C   UNL     1       2.772   2.680  21.026  0.00  0.00    +0.000 A 
ATOM      9  C   UNL     1       3.108   2.586  19.667  0.00  0.00    +0.000 A 
ATOM     10 CL   UNL     1       3.750   1.060  19.160  0.00  0.00    +0.000 Cl
ENDBRANCH   1   3
BRANCH   1  11
ATOM     11  O   UNL     1       4.586   3.595  17.179  0.00  0.00    +0.000 OA
BRANCH  11  15
ATOM     12  C   UNL     1       6.970   7.032  17.621  0.00  0.00    +0.000 A 
ATOM     13  C   UNL     1       7.253   5.847  18.315  0.00  0.00    +0.000 A 
ATOM     14  C   UNL     1       6.439   4.725  18.141  0.00  0.00    +0.000 A 
ATOM     15  C   UNL     1       5.339   4.788  17.282  0.00  0.00    +0.000 A 
ATOM     16  C   UNL     1       5.068   5.953  16.567  0.00  0.00    +0.000 A 
ATOM     17  C   UNL     1       5.877   7.079  16.747  0.00  0.00    +0.000 A 
BRANCH  12  19
ATOM     18  N   UNL     1       8.473   9.120  17.945  0.00  0.00    +0.000 NA
ATOM     19  C   UNL     1       7.799   8.183  17.802  0.00  0.00    +0.000 C 
ENDBRANCH  12  19
ENDBRANCH  11  15
ENDBRANCH   1  11
TORSDOF 4
ENDMDL
MODEL 5
REMARK VINA RESULT:      -6.6      2.696      4.035
REMARK  Name = 
REMARK  4 active torsions:
REMARK  status: ('A' for Active; 'I' for Inactive)
REMARK    1  A    between atoms: C_2  and  C_3
REMARK    2  A    between atoms: C_6  and  O_7
REMARK    3  A    between atoms: O_7  and  C_8
REMARK    4  A    between atoms: C_8  and  C_10
REMARK                            x       y       z     vdW  Elec       q    Type
REMARK                         _______ _______ _______ _____ _____    ______ ____
ROOT
ATOM      1  C   UNL     1       4.815   5.112  19.365  0.00  0.00    +0.000 C 
ATOM      2  O   UNL     1       5.885   4.906  19.910  0.00  0.00    +0.000 OA
ENDROOT
BRANCH   1   3
ATOM      3  C   UNL     1       3.527   4.527  19.816  0.00  0.00    +0.000 A 
ATOM      4  C   UNL     1       3.377   3.148  20.048  0.00  0.00    +0.000 A 
ATOM      5 CL   UNL     1       4.612   1.979  19.717  0.00  0.00    +0.000 Cl
ATOM      6  C   UNL     1       2.165   2.636  20.530  0.00  0.00    +0.000 A 
ATOM      7  C   UNL     1       1.083   3.479  20.763  0.00  0.00    +0.000 A 
ATOM      8  C   UNL     1       1.204   4.837  20.488  0.00  0.00    +0.000 A 
ATOM      9  C   UNL     1       2.414   5.363  20.012  0.00  0.00    +0.000 A 
ATOM     10 CL   UNL     1       2.427   7.070  19.725  0.00  0.00    +0.000 Cl
ENDBRANCH   1   3
BRANCH   1  11
ATOM     11  O   UNL     1       4.602   5.837  18.198  0.00  0.00    +0.000 OA
BRANCH  11  15
ATOM     12  C   UNL     1       5.808   4.319  14.465  0.00  0.00    +0.000 A 
ATOM     13  C   UNL     1       5.594   3.477  15.566  0.00  0.00    +0.000 A 
ATOM     14  C   UNL     1       5.193   4.019  16.790  0.00  0.00    +0.000 A 
ATOM     15  C   UNL     1       5.012   5.398  16.917  0.00  0.00    +0.000 A 
ATOM     16  C   UNL     1       5.196   6.238  15.820  0.00  0.00    +0.000 A 
ATOM     17  C   UNL     1       5.606   5.698  14.597  0.00  0.00    +0.000 A 
BRANCH  12  19
ATOM     18  N   UNL     1       6.563   3.323  12.193  0.00  0.00    +0.000 NA
ATOM     19  C   UNL     1       6.225   3.768  13.213  0.00  0.00    +0.000 C 
ENDBRANCH  12  19
ENDBRANCH  11  15
ENDBRANCH   1  11
TORSDOF 4
ENDMDL
MODEL 6
REMARK VINA RESULT:      -6.6      2.701      3.443
REMARK  Name = 
REMARK  4 active torsions:
REMARK  status: ('A' for Active; 'I' for Inactive)
REMARK    1  A    between atoms: C_2  and  C_3
REMARK    2  A    between atoms: C_6  and  O_7
REMARK    3  A    between atoms: O_7  and  C_8
REMARK    4  A    between atoms: C_8  and  C_10
REMARK                            x       y       z     vdW  Elec       q    Type
REMARK                         _______ _______ _______ _____ _____    ______ ____
ROOT
ATOM      1  C   UNL     1       4.704   5.122  19.321  0.00  0.00    +0.000 C 
ATOM      2  O   UNL     1       5.796   4.954  19.837  0.00  0.00    +0.000 OA
ENDROOT
BRANCH   1   3
ATOM      3  C   UNL     1       3.443   4.533  19.836  0.00  0.00    +0.000 A 
ATOM      4  C   UNL     1       2.311   5.321  20.110  0.00  0.00    +0.000 A 
ATOM      5 CL   UNL     1       2.297   7.050  20.006  0.00  0.00    +0.000 Cl
ATOM      6  C   UNL     1       1.117   4.726  20.540  0.00  0.00    +0.000 A 
ATOM      7  C   UNL     1       1.040   3.349  20.726  0.00  0.00    +0.000 A 
ATOM      8  C   UNL     1       2.168   2.565  20.507  0.00  0.00    +0.000 A 
ATOM      9  C   UNL     1       3.367   3.149  20.071  0.00  0.00    +0.000 A 
ATOM     10 CL   UNL     1       4.686   2.055  19.826  0.00  0.00    +0.000 Cl
ENDBRANCH   1   3
BRANCH   1  11
ATOM     11  O   UNL     1       4.441   5.799  18.136  0.00  0.00    +0.000 OA
BRANCH  11  15
ATOM     12  C   UNL     1       5.811   4.328  14.442  0.00  0.00    +0.000 A 
ATOM     13  C   UNL     1       5.509   3.469  15.509  0.00  0.00    +0.000 A 
ATOM     14  C   UNL     1       5.055   3.995  16.720  0.00  0.00    +0.000 A 
ATOM     15  C   UNL     1       4.910   5.377  16.871  0.00  0.00    +0.000 A 
ATOM     16  C   UNL     1       5.181   6.234  15.806  0.00  0.00    +0.000 A 
ATOM     17  C   UNL     1       5.644   5.710  14.595  0.00  0.00    +0.000 A 
BRANCH  12  19
ATOM     18  N   UNL     1       6.666   3.358  12.194  0.00  0.00    +0.000 NA
ATOM     19  C   UNL     1       6.281   3.792  13.202  0.00  0.00    +0.000 C 
ENDBRANCH  12  19
ENDBRANCH  11  15
ENDBRANCH   1  11
TORSDOF 4
ENDMDL
MODEL 7
REMARK VINA RESULT:      -6.5      1.157      1.712
REMARK  Name = 
REMARK  4 active torsions:
REMARK  status: ('A' for Active; 'I' for Inactive)
REMARK    1  A    between atoms: C_2  and  C_3
REMARK    2  A    between atoms: C_6  and  O_7
REMARK    3  A    between atoms: O_7  and  C_8
REMARK    4  A    between atoms: C_8  and  C_10
REMARK                            x       y       z     vdW  Elec       q    Type
REMARK                         _______ _______ _______ _____ _____    ______ ____
ROOT
ATOM      1  C   UNL     1       4.417   3.376  18.266  0.00  0.00    +0.000 C 
ATOM      2  O   UNL     1       4.215   3.047  17.110  0.00  0.00    +0.000 OA
ENDROOT
BRANCH   1   3
ATOM      3  C   UNL     1       3.362   3.439  19.308  0.00  0.00    +0.000 A 
ATOM      4  C   UNL     1       2.240   4.280  19.182  0.00  0.00    +0.000 A 
ATOM      5 CL   UNL     1       2.029   5.411  17.887  0.00  0.00    +0.000 Cl
ATOM      6  C   UNL     1       1.233   4.272  20.156  0.00  0.00    +0.000 A 
ATOM      7  C   UNL     1       1.338   3.451  21.275  0.00  0.00    +0.000 A 
ATOM      8  C   UNL     1       2.466   2.655  21.436  0.00  0.00    +0.000 A 
ATOM      9  C   UNL     1       3.478   2.649  20.465  0.00  0.00    +0.000 A 
ATOM     10 CL   UNL     1       4.818   1.601  20.786  0.00  0.00    +0.000 Cl
ENDBRANCH   1   3
BRANCH   1  11
ATOM     11  O   UNL     1       5.615   3.833  18.803  0.00  0.00    +0.000 OA
BRANCH  11  15
ATOM     12  C   UNL     1       7.468   7.531  18.039  0.00  0.00    +0.000 A 
ATOM     13  C   UNL     1       8.052   6.577  18.885  0.00  0.00    +0.000 A 
ATOM     14  C   UNL     1       7.407   5.359  19.113  0.00  0.00    +0.000 A 
ATOM     15  C   UNL     1       6.177   5.096  18.505  0.00  0.00    +0.000 A 
ATOM     16  C   UNL     1       5.604   6.028  17.642  0.00  0.00    +0.000 A 
ATOM     17  C   UNL     1       6.244   7.251  17.419  0.00  0.00    +0.000 A 
BRANCH  12  19
ATOM     18  N   UNL     1       8.657   9.798  17.624  0.00  0.00    +0.000 NA
ATOM     19  C   UNL     1       8.124   8.781  17.808  0.00  0.00    +0.000 C 
ENDBRANCH  12  19
ENDBRANCH  11  15
ENDBRANCH   1  11
TORSDOF 4
ENDMDL
MODEL 8
REMARK VINA RESULT:      -6.5      0.124      2.113
REMARK  Name = 
REMARK  4 active torsions:
REMARK  status: ('A' for Active; 'I' for Inactive)
REMARK    1  A    between atoms: C_2  and  C_3
REMARK    2  A    between atoms: C_6  and  O_7
REMARK    3  A    between atoms: O_7  and  C_8
REMARK    4  A    between atoms: C_8  and  C_10
REMARK                            x       y       z     vdW  Elec       q    Type
REMARK                         _______ _______ _______ _____ _____    ______ ____
ROOT
ATOM      1  C   UNL     1       3.267   3.554  17.253  0.00  0.00    +0.000 C 
ATOM      2  O   UNL     1       2.445   3.572  16.354  0.00  0.00    +0.000 OA
ENDROOT
BRANCH   1   3
ATOM      3  C   UNL     1       2.924   3.654  18.694  0.00  0.00    +0.000 A 
ATOM      4  C   UNL     1       3.095   2.572  19.577  0.00  0.00    +0.000 A 
ATOM      5 CL   UNL     1       3.591   0.991  19.072  0.00  0.00    +0.000 Cl
ATOM      6  C   UNL     1       2.816   2.718  20.943  0.00  0.00    +0.000 A 
ATOM      7  C   UNL     1       2.343   3.927  21.442  0.00  0.00    +0.000 A 
ATOM      8  C   UNL     1       2.122   4.988  20.571  0.00  0.00    +0.000 A 
ATOM      9  C   UNL     1       2.403   4.856  19.203  0.00  0.00    +0.000 A 
ATOM     10 CL   UNL     1       2.093   6.259  18.237  0.00  0.00    +0.000 Cl
ENDBRANCH   1   3
BRANCH   1  11
ATOM     11  O   UNL     1       4.650   3.530  17.115  0.00  0.00    +0.000 OA
BRANCH  11  15
ATOM     12  C   UNL     1       6.987   6.989  17.631  0.00  0.00    +0.000 A 
ATOM     13  C   UNL     1       5.918   6.952  16.724  0.00  0.00    +0.000 A 
ATOM     14  C   UNL     1       5.164   5.785  16.581  0.00  0.00    +0.000 A 
ATOM     15  C   UNL     1       5.480   4.653  17.336  0.00  0.00    +0.000 A 
ATOM     16  C   UNL     1       6.522   4.691  18.261  0.00  0.00    +0.000 A 
ATOM     17  C   UNL     1       7.284   5.856  18.398  0.00  0.00    +0.000 A 
BRANCH  12  19
ATOM     18  N   UNL     1       8.395   9.151  17.889  0.00  0.00    +0.000 NA
ATOM     19  C   UNL     1       7.764   8.181  17.775  0.00  0.00    +0.000 C 
ENDBRANCH  12  19
ENDBRANCH  11  15
ENDBRANCH   1  11
TORSDOF 4
ENDMDL
MODEL 9
REMARK VINA RESULT:      -6.5      1.149      1.255
REMARK  Name = 
REMARK  4 active torsions:
REMARK  status: ('A' for Active; 'I' for Inactive)
REMARK    1  A    between atoms: C_2  and  C_3
REMARK    2  A    between atoms: C_6  and  O_7
REMARK    3  A    between atoms: O_7  and  C_8
REMARK    4  A    between atoms: C_8  and  C_10
REMARK                            x       y       z     vdW  Elec       q    Type
REMARK                         _______ _______ _______ _____ _____    ______ ____
ROOT
ATOM      1  C   UNL     1       3.706   2.576  17.843  0.00  0.00    +0.000 C 
ATOM      2  O   UNL     1       4.061   1.438  17.590  0.00  0.00    +0.000 OA
ENDROOT
BRANCH   1   3
ATOM      3  C   UNL     1       2.909   2.950  19.039  0.00  0.00    +0.000 A 
ATOM      4  C   UNL     1       1.711   3.680  18.936  0.00  0.00    +0.000 A 
ATOM      5 CL   UNL     1       1.105   4.326  17.448  0.00  0.00    +0.000 Cl
ATOM      6  C   UNL     1       0.952   3.966  20.080  0.00  0.00    +0.000 A 
ATOM      7  C   UNL     1       1.385   3.555  21.337  0.00  0.00    +0.000 A 
ATOM      8  C   UNL     1       2.594   2.877  21.456  0.00  0.00    +0.000 A 
ATOM      9  C   UNL     1       3.359   2.580  20.318  0.00  0.00    +0.000 A 
ATOM     10 CL   UNL     1       4.834   1.721  20.611  0.00  0.00    +0.000 Cl
ENDBRANCH   1   3
BRANCH   1  11
ATOM     11  O   UNL     1       3.887   3.700  17.046  0.00  0.00    +0.000 OA
BRANCH  11  15
ATOM     12  C   UNL     1       6.733   6.739  17.645  0.00  0.00    +0.000 A 
ATOM     13  C   UNL     1       5.483   7.005  17.066  0.00  0.00    +0.000 A 
ATOM     14  C   UNL     1       4.563   5.970  16.885  0.00  0.00    +0.000 A 
ATOM     15  C   UNL     1       4.892   4.668  17.273  0.00  0.00    +0.000 A 
ATOM     16  C   UNL     1       6.121   4.401  17.874  0.00  0.00    +0.000 A 
ATOM     17  C   UNL     1       7.046   5.435  18.049  0.00  0.00    +0.000 A 
BRANCH  12  19
ATOM     18  N   UNL     1       8.445   8.658  17.973  0.00  0.00    +0.000 NA
ATOM     19  C   UNL     1       7.679   7.796  17.827  0.00  0.00    +0.000 C 
ENDBRANCH  12  19
ENDBRANCH  11  15
ENDBRANCH   1  11
TORSDOF 4
ENDMDL
