MODEL 1
REMARK VINA RESULT:      -8.1      0.000      0.000
REMARK  Name = 
REMARK  4 active torsions:
REMARK  status: ('A' for Active; 'I' for Inactive)
REMARK    1  A    between atoms: C_1  and  C_2
REMARK    2  A    between atoms: N_4  and  C_5
REMARK    3  A    between atoms: C_8  and  C_9
REMARK    4  A    between atoms: C_13  and  C_14
REMARK                            x       y       z     vdW  Elec       q    Type
REMARK                         _______ _______ _______ _____ _____    ______ ____
ROOT
ATOM      1  C   UNL     1       4.085   5.919  18.397  0.00  0.00    +0.000 C 
ATOM      2  N   UNL     1       3.660   7.049  17.923  0.00  0.00    +0.000 NA
ATOM      3  N   UNL     1       2.725   7.840  18.474  0.00  0.00    +0.000 N 
ATOM      4  C   UNL     1       2.385   9.018  17.846  0.00  0.00    +0.000 A 
ATOM      5  C   UNL     1       1.448   9.637  18.631  0.00  0.00    +0.000 A 
ATOM      6  C   UNL     1       0.794  10.950  18.457  0.00  0.00    +0.000 C 
ATOM      7  N   UNL     1       1.130   8.825  19.682  0.00  0.00    +0.000 NA
ATOM      8  C   UNL     1       1.864   7.730  19.544  0.00  0.00    +0.000 A 
ATOM      9  C   UNL     1       1.709   6.573  20.441  0.00  0.00    +0.000 C 
ATOM     10  C   UNL     1       2.364   5.265  20.096  0.00  0.00    +0.000 A 
ATOM     11  C   UNL     1       1.733   4.081  20.540  0.00  0.00    +0.000 A 
ATOM     12  C   UNL     1       2.446   2.888  20.637  0.00  0.00    +0.000 A 
ATOM     13  C   UNL     1       3.822   2.918  20.484  0.00  0.00    +0.000 A 
ATOM     14 CL   UNL     1       4.760   1.494  20.704  0.00  0.00    +0.000 Cl
ATOM     15  C   UNL     1       4.446   4.090  20.079  0.00  0.00    +0.000 A 
ATOM     16  C   UNL     1       3.690   5.199  19.669  0.00  0.00    +0.000 A 
ENDROOT
BRANCH   1  20
ATOM     17  C   UNL     1       6.102   4.151  15.022  0.00  0.00    +0.000 A 
ATOM     18  C   UNL     1       4.948   3.543  15.516  0.00  0.00    +0.000 A 
ATOM     19  C   UNL     1       4.367   3.977  16.713  0.00  0.00    +0.000 A 
ATOM     20  C   UNL     1       4.858   5.109  17.361  0.00  0.00    +0.000 A 
ATOM     21  C   UNL     1       6.082   5.642  16.931  0.00  0.00    +0.000 A 
ATOM     22  C   UNL     1       6.718   5.145  15.787  0.00  0.00    +0.000 A 
BRANCH  17  26
ATOM     23  C   UNL     1       6.895   3.171  11.474  0.00  0.00    +0.000 C 
ATOM     24  C   UNL     1       5.985   3.536  12.617  0.00  0.00    +0.000 C 
ATOM     25  O   UNL     1       4.768   3.575  12.464  0.00  0.00    +0.000 OA
ATOM     26  N   UNL     1       6.681   3.812  13.782  0.00  0.00    +0.000 N 
ATOM     27  H   UNL     1       7.679   3.953  13.695  0.00  0.00    +0.000 HD
ENDBRANCH  17  26
ENDBRANCH   1  20
TORSDOF 2
ENDMDL
MODEL 2
REMARK VINA RESULT:      -8.0      3.122      7.120
REMARK  Name = 
REMARK  4 active torsions:
REMARK  status: ('A' for Active; 'I' for Inactive)
REMARK    1  A    between atoms: C_1  and  C_2
REMARK    2  A    between atoms: N_4  and  C_5
REMARK    3  A    between atoms: C_8  and  C_9
REMARK    4  A    between atoms: C_13  and  C_14
REMARK                            x       y       z     vdW  Elec       q    Type
REMARK                         _______ _______ _______ _____ _____    ______ ____
ROOT
ATOM      1  C   UNL     1       3.407   5.710  17.546  0.00  0.00    +0.000 C 
ATOM      2  N   UNL     1       4.290   6.154  16.707  0.00  0.00    +0.000 NA
ATOM      3  N   UNL     1       5.144   5.409  15.984  0.00  0.00    +0.000 N 
ATOM      4  C   UNL     1       6.023   6.034  15.128  0.00  0.00    +0.000 A 
ATOM      5  C   UNL     1       6.740   5.051  14.499  0.00  0.00    +0.000 A 
ATOM      6  C   UNL     1       7.768   5.165  13.445  0.00  0.00    +0.000 C 
ATOM      7  N   UNL     1       6.392   3.836  15.014  0.00  0.00    +0.000 NA
ATOM      8  C   UNL     1       5.473   4.072  15.940  0.00  0.00    +0.000 A 
ATOM      9  C   UNL     1       4.935   2.999  16.793  0.00  0.00    +0.000 C 
ATOM     10  C   UNL     1       4.099   3.345  17.994  0.00  0.00    +0.000 A 
ATOM     11  C   UNL     1       4.141   2.459  19.094  0.00  0.00    +0.000 A 
ATOM     12  C   UNL     1       3.124   2.461  20.048  0.00  0.00    +0.000 A 
ATOM     13  C   UNL     1       1.979   3.198  19.800  0.00  0.00    +0.000 A 
ATOM     14 CL   UNL     1       0.651   3.146  20.891  0.00  0.00    +0.000 Cl
ATOM     15  C   UNL     1       1.925   4.044  18.701  0.00  0.00    +0.000 A 
ATOM     16  C   UNL     1       3.071   4.283  17.926  0.00  0.00    +0.000 A 
ENDROOT
BRANCH   1  20
ATOM     17  C   UNL     1       1.293   8.432  20.135  0.00  0.00    +0.000 A 
ATOM     18  C   UNL     1       1.595   8.832  18.834  0.00  0.00    +0.000 A 
ATOM     19  C   UNL     1       2.433   8.057  18.023  0.00  0.00    +0.000 A 
ATOM     20  C   UNL     1       2.871   6.808  18.459  0.00  0.00    +0.000 A 
ATOM     21  C   UNL     1       2.666   6.464  19.803  0.00  0.00    +0.000 A 
ATOM     22  C   UNL     1       1.909   7.287  20.646  0.00  0.00    +0.000 A 
BRANCH  17  26
ATOM     23  C   UNL     1      -0.520  10.275  22.874  0.00  0.00    +0.000 C 
ATOM     24  C   UNL     1       0.671   9.611  22.233  0.00  0.00    +0.000 C 
ATOM     25  O   UNL     1       1.747   9.548  22.819  0.00  0.00    +0.000 OA
ATOM     26  N   UNL     1       0.390   9.128  20.965  0.00  0.00    +0.000 N 
ATOM     27  H   UNL     1      -0.467   9.447  20.534  0.00  0.00    +0.000 HD
ENDBRANCH  17  26
ENDBRANCH   1  20
TORSDOF 2
ENDMDL
MODEL 3
REMARK VINA RESULT:      -7.9      1.032      1.032
REMARK  Name = 
REMARK  4 active torsions:
REMARK  status: ('A' for Active; 'I' for Inactive)
REMARK    1  A    between atoms: C_1  and  C_2
REMARK    2  A    between atoms: N_4  and  C_5
REMARK    3  A    between atoms: C_8  and  C_9
REMARK    4  A    between atoms: C_13  and  C_14
REMARK                            x       y       z     vdW  Elec       q    Type
REMARK                         _______ _______ _______ _____ _____    ______ ____
ROOT
ATOM      1  C   UNL     1       3.704   6.493  18.466  0.00  0.00    +0.000 C 
ATOM      2  N   UNL     1       3.283   7.639  18.031  0.00  0.00    +0.000 NA
ATOM      3  N   UNL     1       2.345   8.410  18.605  0.00  0.00    +0.000 N 
ATOM      4  C   UNL     1       2.009   9.611  18.018  0.00  0.00    +0.000 A 
ATOM      5  C   UNL     1       1.069  10.202  18.819  0.00  0.00    +0.000 A 
ATOM      6  C   UNL     1       0.417  11.520  18.689  0.00  0.00    +0.000 C 
ATOM      7  N   UNL     1       0.744   9.353  19.839  0.00  0.00    +0.000 NA
ATOM      8  C   UNL     1       1.478   8.263  19.666  0.00  0.00    +0.000 A 
ATOM      9  C   UNL     1       1.318   7.074  20.520  0.00  0.00    +0.000 C 
ATOM     10  C   UNL     1       1.975   5.779  20.131  0.00  0.00    +0.000 A 
ATOM     11  C   UNL     1       1.340   4.581  20.530  0.00  0.00    +0.000 A 
ATOM     12  C   UNL     1       2.052   3.384  20.588  0.00  0.00    +0.000 A 
ATOM     13  C   UNL     1       3.429   3.419  20.443  0.00  0.00    +0.000 A 
ATOM     14 CL   UNL     1       4.365   1.987  20.617  0.00  0.00    +0.000 Cl
ATOM     15  C   UNL     1       4.056   4.604  20.083  0.00  0.00    +0.000 A 
ATOM     16  C   UNL     1       3.302   5.727  19.710  0.00  0.00    +0.000 A 
ENDROOT
BRANCH   1  20
ATOM     17  C   UNL     1       5.403   4.529  15.024  0.00  0.00    +0.000 A 
ATOM     18  C   UNL     1       4.840   3.753  16.037  0.00  0.00    +0.000 A 
ATOM     19  C   UNL     1       4.443   4.335  17.247  0.00  0.00    +0.000 A 
ATOM     20  C   UNL     1       4.483   5.719  17.406  0.00  0.00    +0.000 A 
ATOM     21  C   UNL     1       5.156   6.480  16.439  0.00  0.00    +0.000 A 
ATOM     22  C   UNL     1       5.642   5.884  15.269  0.00  0.00    +0.000 A 
BRANCH  17  26
ATOM     23  C   UNL     1       6.894   3.687  11.670  0.00  0.00    +0.000 C 
ATOM     24  C   UNL     1       6.832   4.401  12.995  0.00  0.00    +0.000 C 
ATOM     25  O   UNL     1       7.692   5.218  13.309  0.00  0.00    +0.000 OA
ATOM     26  N   UNL     1       5.742   4.013  13.757  0.00  0.00    +0.000 N 
ATOM     27  H   UNL     1       5.253   3.178  13.462  0.00  0.00    +0.000 HD
ENDBRANCH  17  26
ENDBRANCH   1  20
TORSDOF 2
ENDMDL
MODEL 4
REMARK VINA RESULT:      -7.8      6.809      8.785
REMARK  Name = 
REMARK  4 active torsions:
REMARK  status: ('A' for Active; 'I' for Inactive)
REMARK    1  A    between atoms: C_1  and  C_2
REMARK    2  A    between atoms: N_4  and  C_5
REMARK    3  A    between atoms: C_8  and  C_9
REMARK    4  A    between atoms: C_13  and  C_14
REMARK                            x       y       z     vdW  Elec       q    Type
REMARK                         _______ _______ _______ _____ _____    ______ ____
ROOT
ATOM      1  C   UNL     1      -1.627  11.484  19.601  0.00  0.00    +0.000 C 
ATOM      2  N   UNL     1      -2.566  12.204  20.129  0.00  0.00    +0.000 NA
ATOM      3  N   UNL     1      -2.651  12.581  21.415  0.00  0.00    +0.000 N 
ATOM      4  C   UNL     1      -3.716  13.355  21.822  0.00  0.00    +0.000 A 
ATOM      5  C   UNL     1      -3.536  13.621  23.153  0.00  0.00    +0.000 A 
ATOM      6  C   UNL     1      -4.347  14.454  24.064  0.00  0.00    +0.000 C 
ATOM      7  N   UNL     1      -2.434  12.952  23.604  0.00  0.00    +0.000 NA
ATOM      8  C   UNL     1      -1.947  12.291  22.564  0.00  0.00    +0.000 A 
ATOM      9  C   UNL     1      -0.811  11.363  22.695  0.00  0.00    +0.000 C 
ATOM     10  C   UNL     1      -0.459  10.444  21.558  0.00  0.00    +0.000 A 
ATOM     11  C   UNL     1       0.132   9.202  21.882  0.00  0.00    +0.000 A 
ATOM     12  C   UNL     1       0.854   8.487  20.928  0.00  0.00    +0.000 A 
ATOM     13  C   UNL     1       1.152   9.098  19.722  0.00  0.00    +0.000 A 
ATOM     14 CL   UNL     1       2.134   8.301  18.556  0.00  0.00    +0.000 Cl
ATOM     15  C   UNL     1       0.598  10.333  19.417  0.00  0.00    +0.000 A 
ATOM     16  C   UNL     1      -0.386  10.899  20.243  0.00  0.00    +0.000 A 
ENDROOT
BRANCH   1  20
ATOM     17  C   UNL     1      -3.302  10.334  15.799  0.00  0.00    +0.000 A 
ATOM     18  C   UNL     1      -3.255   9.396  16.830  0.00  0.00    +0.000 A 
ATOM     19  C   UNL     1      -2.559   9.668  18.013  0.00  0.00    +0.000 A 
ATOM     20  C   UNL     1      -2.016  10.933  18.233  0.00  0.00    +0.000 A 
ATOM     21  C   UNL     1      -1.962  11.829  17.155  0.00  0.00    +0.000 A 
ATOM     22  C   UNL     1      -2.573  11.519  15.934  0.00  0.00    +0.000 A 
BRANCH  17  26
ATOM     23  C   UNL     1      -4.604   9.740  12.316  0.00  0.00    +0.000 C 
ATOM     24  C   UNL     1      -3.538   9.830  13.377  0.00  0.00    +0.000 C 
ATOM     25  O   UNL     1      -2.360   9.623  13.104  0.00  0.00    +0.000 OA
ATOM     26  N   UNL     1      -4.056  10.149  14.622  0.00  0.00    +0.000 N 
ATOM     27  H   UNL     1      -5.058  10.072  14.733  0.00  0.00    +0.000 HD
ENDBRANCH  17  26
ENDBRANCH   1  20
TORSDOF 2
ENDMDL
MODEL 5
REMARK VINA RESULT:      -7.7      1.118      1.472
REMARK  Name = 
REMARK  4 active torsions:
REMARK  status: ('A' for Active; 'I' for Inactive)
REMARK    1  A    between atoms: C_1  and  C_2
REMARK    2  A    between atoms: N_4  and  C_5
REMARK    3  A    between atoms: C_8  and  C_9
REMARK    4  A    between atoms: C_13  and  C_14
REMARK                            x       y       z     vdW  Elec       q    Type
REMARK                         _______ _______ _______ _____ _____    ______ ____
ROOT
ATOM      1  C   UNL     1       3.465   5.914  18.476  0.00  0.00    +0.000 C 
ATOM      2  N   UNL     1       3.004   7.125  18.500  0.00  0.00    +0.000 NA
ATOM      3  N   UNL     1       2.204   7.652  19.442  0.00  0.00    +0.000 N 
ATOM      4  C   UNL     1       1.803   8.964  19.327  0.00  0.00    +0.000 A 
ATOM      5  C   UNL     1       1.036   9.249  20.426  0.00  0.00    +0.000 A 
ATOM      6  C   UNL     1       0.407  10.522  20.830  0.00  0.00    +0.000 C 
ATOM      7  N   UNL     1       0.875   8.116  21.172  0.00  0.00    +0.000 NA
ATOM      8  C   UNL     1       1.537   7.156  20.541  0.00  0.00    +0.000 A 
ATOM      9  C   UNL     1       1.498   5.757  20.998  0.00  0.00    +0.000 C 
ATOM     10  C   UNL     1       2.040   4.666  20.116  0.00  0.00    +0.000 A 
ATOM     11  C   UNL     1       1.454   3.385  20.228  0.00  0.00    +0.000 A 
ATOM     12  C   UNL     1       2.132   2.252  19.784  0.00  0.00    +0.000 A 
ATOM     13  C   UNL     1       3.462   2.371  19.415  0.00  0.00    +0.000 A 
ATOM     14 CL   UNL     1       4.374   0.984  18.966  0.00  0.00    +0.000 Cl
ATOM     15  C   UNL     1       4.047   3.627  19.336  0.00  0.00    +0.000 A 
ATOM     16  C   UNL     1       3.269   4.788  19.470  0.00  0.00    +0.000 A 
ENDROOT
BRANCH   1  20
ATOM     17  C   UNL     1       5.500   4.438  14.973  0.00  0.00    +0.000 A 
ATOM     18  C   UNL     1       5.634   5.782  15.318  0.00  0.00    +0.000 A 
ATOM     19  C   UNL     1       4.851   6.342  16.335  0.00  0.00    +0.000 A 
ATOM     20  C   UNL     1       4.021   5.531  17.108  0.00  0.00    +0.000 A 
ATOM     21  C   UNL     1       3.800   4.212  16.685  0.00  0.00    +0.000 A 
ATOM     22  C   UNL     1       4.511   3.678  15.603  0.00  0.00    +0.000 A 
BRANCH  17  26
ATOM     23  C   UNL     1       7.028   2.749  11.975  0.00  0.00    +0.000 C 
ATOM     24  C   UNL     1       5.932   3.448  12.735  0.00  0.00    +0.000 C 
ATOM     25  O   UNL     1       4.842   3.660  12.213  0.00  0.00    +0.000 OA
ATOM     26  N   UNL     1       6.318   3.802  14.017  0.00  0.00    +0.000 N 
ATOM     27  H   UNL     1       7.307   3.760  14.224  0.00  0.00    +0.000 HD
ENDBRANCH  17  26
ENDBRANCH   1  20
TORSDOF 2
ENDMDL
MODEL 6
REMARK VINA RESULT:      -7.5      1.587      1.858
REMARK  Name = 
REMARK  4 active torsions:
REMARK  status: ('A' for Active; 'I' for Inactive)
REMARK    1  A    between atoms: C_1  and  C_2
REMARK    2  A    between atoms: N_4  and  C_5
REMARK    3  A    between atoms: C_8  and  C_9
REMARK    4  A    between atoms: C_13  and  C_14
REMARK                            x       y       z     vdW  Elec       q    Type
REMARK                         _______ _______ _______ _____ _____    ______ ____
ROOT
ATOM      1  C   UNL     1       3.744   5.721  19.135  0.00  0.00    +0.000 C 
ATOM      2  N   UNL     1       3.329   6.923  19.386  0.00  0.00    +0.000 NA
ATOM      3  N   UNL     1       2.228   7.255  20.079  0.00  0.00    +0.000 N 
ATOM      4  C   UNL     1       1.924   8.586  20.264  0.00  0.00    +0.000 A 
ATOM      5  C   UNL     1       0.786   8.638  21.025  0.00  0.00    +0.000 A 
ATOM      6  C   UNL     1       0.067   9.810  21.563  0.00  0.00    +0.000 C 
ATOM      7  N   UNL     1       0.324   7.370  21.236  0.00  0.00    +0.000 NA
ATOM      8  C   UNL     1       1.169   6.557  20.618  0.00  0.00    +0.000 A 
ATOM      9  C   UNL     1       0.932   5.106  20.536  0.00  0.00    +0.000 C 
ATOM     10  C   UNL     1       1.765   4.262  19.612  0.00  0.00    +0.000 A 
ATOM     11  C   UNL     1       1.165   3.105  19.066  0.00  0.00    +0.000 A 
ATOM     12  C   UNL     1       1.948   2.069  18.559  0.00  0.00    +0.000 A 
ATOM     13  C   UNL     1       3.315   2.099  18.774  0.00  0.00    +0.000 A 
ATOM     14 CL   UNL     1       4.311   0.793  18.266  0.00  0.00    +0.000 Cl
ATOM     15  C   UNL     1       3.901   3.223  19.340  0.00  0.00    +0.000 A 
ATOM     16  C   UNL     1       3.151   4.391  19.551  0.00  0.00    +0.000 A 
ENDROOT
BRANCH   1  20
ATOM     17  C   UNL     1       6.242   5.240  15.654  0.00  0.00    +0.000 A 
ATOM     18  C   UNL     1       6.598   4.595  16.838  0.00  0.00    +0.000 A 
ATOM     19  C   UNL     1       5.922   4.867  18.033  0.00  0.00    +0.000 A 
ATOM     20  C   UNL     1       4.795   5.688  18.030  0.00  0.00    +0.000 A 
ATOM     21  C   UNL     1       4.513   6.424  16.870  0.00  0.00    +0.000 A 
ATOM     22  C   UNL     1       5.252   6.226  15.698  0.00  0.00    +0.000 A 
BRANCH  17  26
ATOM     23  C   UNL     1       7.149   4.034  12.204  0.00  0.00    +0.000 C 
ATOM     24  C   UNL     1       6.244   4.202  13.396  0.00  0.00    +0.000 C 
ATOM     25  O   UNL     1       5.117   3.717  13.403  0.00  0.00    +0.000 OA
ATOM     26  N   UNL     1       6.831   4.945  14.407  0.00  0.00    +0.000 N 
ATOM     27  H   UNL     1       7.669   5.459  14.169  0.00  0.00    +0.000 HD
ENDBRANCH  17  26
ENDBRANCH   1  20
TORSDOF 2
ENDMDL
MODEL 7
REMARK VINA RESULT:      -7.3      2.870      6.910
REMARK  Name = 
REMARK  4 active torsions:
REMARK  status: ('A' for Active; 'I' for Inactive)
REMARK    1  A    between atoms: C_1  and  C_2
REMARK    2  A    between atoms: N_4  and  C_5
REMARK    3  A    between atoms: C_8  and  C_9
REMARK    4  A    between atoms: C_13  and  C_14
REMARK                            x       y       z     vdW  Elec       q    Type
REMARK                         _______ _______ _______ _____ _____    ______ ____
ROOT
ATOM      1  C   UNL     1       3.085   5.437  17.814  0.00  0.00    +0.000 C 
ATOM      2  N   UNL     1       3.867   5.931  16.906  0.00  0.00    +0.000 NA
ATOM      3  N   UNL     1       4.857   5.282  16.272  0.00  0.00    +0.000 N 
ATOM      4  C   UNL     1       5.600   5.949  15.323  0.00  0.00    +0.000 A 
ATOM      5  C   UNL     1       6.504   5.054  14.816  0.00  0.00    +0.000 A 
ATOM      6  C   UNL     1       7.496   5.228  13.737  0.00  0.00    +0.000 C 
ATOM      7  N   UNL     1       6.403   3.874  15.496  0.00  0.00    +0.000 NA
ATOM      8  C   UNL     1       5.449   4.044  16.400  0.00  0.00    +0.000 A 
ATOM      9  C   UNL     1       5.131   3.010  17.399  0.00  0.00    +0.000 C 
ATOM     10  C   UNL     1       4.235   3.340  18.560  0.00  0.00    +0.000 A 
ATOM     11  C   UNL     1       4.445   2.638  19.768  0.00  0.00    +0.000 A 
ATOM     12  C   UNL     1       3.442   2.564  20.733  0.00  0.00    +0.000 A 
ATOM     13  C   UNL     1       2.173   3.017  20.411  0.00  0.00    +0.000 A 
ATOM     14 CL   UNL     1       0.875   2.848  21.526  0.00  0.00    +0.000 Cl
ATOM     15  C   UNL     1       1.959   3.679  19.211  0.00  0.00    +0.000 A 
ATOM     16  C   UNL     1       3.039   4.036  18.388  0.00  0.00    +0.000 A 
ENDROOT
BRANCH   1  20
ATOM     17  C   UNL     1       1.556   8.864  19.937  0.00  0.00    +0.000 A 
ATOM     18  C   UNL     1       1.780   7.679  20.636  0.00  0.00    +0.000 A 
ATOM     19  C   UNL     1       2.101   6.497  19.958  0.00  0.00    +0.000 A 
ATOM     20  C   UNL     1       2.331   6.518  18.583  0.00  0.00    +0.000 A 
ATOM     21  C   UNL     1       1.992   7.677  17.870  0.00  0.00    +0.000 A 
ATOM     22  C   UNL     1       1.575   8.834  18.540  0.00  0.00    +0.000 A 
BRANCH  17  26
ATOM     23  C   UNL     1       0.197  12.108  21.283  0.00  0.00    +0.000 C 
ATOM     24  C   UNL     1       0.120  10.802  20.535  0.00  0.00    +0.000 C 
ATOM     25  O   UNL     1      -0.919  10.453  19.986  0.00  0.00    +0.000 OA
ATOM     26  N   UNL     1       1.314  10.100  20.571  0.00  0.00    +0.000 N 
ATOM     27  H   UNL     1       2.005  10.408  21.242  0.00  0.00    +0.000 HD
ENDBRANCH  17  26
ENDBRANCH   1  20
TORSDOF 2
ENDMDL
MODEL 8
REMARK VINA RESULT:      -7.2      5.120      9.415
REMARK  Name = 
REMARK  4 active torsions:
REMARK  status: ('A' for Active; 'I' for Inactive)
REMARK    1  A    between atoms: C_1  and  C_2
REMARK    2  A    between atoms: N_4  and  C_5
REMARK    3  A    between atoms: C_8  and  C_9
REMARK    4  A    between atoms: C_13  and  C_14
REMARK                            x       y       z     vdW  Elec       q    Type
REMARK                         _______ _______ _______ _____ _____    ______ ____
ROOT
ATOM      1  C   UNL     1       0.801  10.482  19.245  0.00  0.00    +0.000 C 
ATOM      2  N   UNL     1       1.661   9.877  18.487  0.00  0.00    +0.000 NA
ATOM      3  N   UNL     1       2.096   8.614  18.630  0.00  0.00    +0.000 N 
ATOM      4  C   UNL     1       3.014   8.112  17.734  0.00  0.00    +0.000 A 
ATOM      5  C   UNL     1       3.252   6.810  18.086  0.00  0.00    +0.000 A 
ATOM      6  C   UNL     1       4.102   5.798  17.429  0.00  0.00    +0.000 C 
ATOM      7  N   UNL     1       2.574   6.522  19.237  0.00  0.00    +0.000 NA
ATOM      8  C   UNL     1       1.929   7.628  19.578  0.00  0.00    +0.000 A 
ATOM      9  C   UNL     1       1.172   7.729  20.837  0.00  0.00    +0.000 C 
ATOM     10  C   UNL     1       0.680   9.069  21.309  0.00  0.00    +0.000 A 
ATOM     11  C   UNL     1       0.559   9.265  22.703  0.00  0.00    +0.000 A 
ATOM     12  C   UNL     1      -0.255  10.276  23.212  0.00  0.00    +0.000 A 
ATOM     13  C   UNL     1      -1.095  10.956  22.345  0.00  0.00    +0.000 A 
ATOM     14 CL   UNL     1      -2.197  12.135  22.939  0.00  0.00    +0.000 Cl
ATOM     15  C   UNL     1      -0.998  10.739  20.978  0.00  0.00    +0.000 A 
ATOM     16  C   UNL     1       0.043   9.961  20.448  0.00  0.00    +0.000 A 
ENDROOT
BRANCH   1  20
ATOM     17  C   UNL     1       0.654  14.789  19.354  0.00  0.00    +0.000 A 
ATOM     18  C   UNL     1      -0.329  14.096  18.649  0.00  0.00    +0.000 A 
ATOM     19  C   UNL     1      -0.218  12.717  18.436  0.00  0.00    +0.000 A 
ATOM     20  C   UNL     1       0.809  11.994  19.040  0.00  0.00    +0.000 A 
ATOM     21  C   UNL     1       1.855  12.705  19.645  0.00  0.00    +0.000 A 
ATOM     22  C   UNL     1       1.794  14.099  19.773  0.00  0.00    +0.000 A 
BRANCH  17  26
ATOM     23  C   UNL     1       0.855  18.544  19.564  0.00  0.00    +0.000 C 
ATOM     24  C   UNL     1       1.111  17.197  18.940  0.00  0.00    +0.000 C 
ATOM     25  O   UNL     1       1.741  17.099  17.892  0.00  0.00    +0.000 OA
ATOM     26  N   UNL     1       0.554  16.160  19.670  0.00  0.00    +0.000 N 
ATOM     27  H   UNL     1      -0.118  16.412  20.383  0.00  0.00    +0.000 HD
ENDBRANCH  17  26
ENDBRANCH   1  20
TORSDOF 2
ENDMDL
MODEL 9
REMARK VINA RESULT:      -7.1      5.055      9.296
REMARK  Name = 
REMARK  4 active torsions:
REMARK  status: ('A' for Active; 'I' for Inactive)
REMARK    1  A    between atoms: C_1  and  C_2
REMARK    2  A    between atoms: N_4  and  C_5
REMARK    3  A    between atoms: C_8  and  C_9
REMARK    4  A    between atoms: C_13  and  C_14
REMARK                            x       y       z     vdW  Elec       q    Type
REMARK                         _______ _______ _______ _____ _____    ______ ____
ROOT
ATOM      1  C   UNL     1       0.916  10.145  19.032  0.00  0.00    +0.000 C 
ATOM      2  N   UNL     1       1.774   9.543  18.269  0.00  0.00    +0.000 NA
ATOM      3  N   UNL     1       2.276   8.311  18.456  0.00  0.00    +0.000 N 
ATOM      4  C   UNL     1       3.181   7.808  17.547  0.00  0.00    +0.000 A 
ATOM      5  C   UNL     1       3.496   6.539  17.953  0.00  0.00    +0.000 A 
ATOM      6  C   UNL     1       4.369   5.535  17.311  0.00  0.00    +0.000 C 
ATOM      7  N   UNL     1       2.880   6.278  19.143  0.00  0.00    +0.000 NA
ATOM      8  C   UNL     1       2.196   7.368  19.457  0.00  0.00    +0.000 A 
ATOM      9  C   UNL     1       1.485   7.498  20.740  0.00  0.00    +0.000 C 
ATOM     10  C   UNL     1       0.946   8.835  21.167  0.00  0.00    +0.000 A 
ATOM     11  C   UNL     1       0.871   9.096  22.553  0.00  0.00    +0.000 A 
ATOM     12  C   UNL     1       0.029  10.092  23.045  0.00  0.00    +0.000 A 
ATOM     13  C   UNL     1      -0.876  10.687  22.182  0.00  0.00    +0.000 A 
ATOM     14 CL   UNL     1      -2.011  11.841  22.763  0.00  0.00    +0.000 Cl
ATOM     15  C   UNL     1      -0.824  10.405  20.824  0.00  0.00    +0.000 A 
ATOM     16  C   UNL     1       0.233   9.651  20.291  0.00  0.00    +0.000 A 
ENDROOT
BRANCH   1  20
ATOM     17  C   UNL     1       0.715  14.451  18.950  0.00  0.00    +0.000 A 
ATOM     18  C   UNL     1      -0.400  13.713  18.555  0.00  0.00    +0.000 A 
ATOM     19  C   UNL     1      -0.320  12.325  18.393  0.00  0.00    +0.000 A 
ATOM     20  C   UNL     1       0.841  11.643  18.754  0.00  0.00    +0.000 A 
ATOM     21  C   UNL     1       1.992  12.394  19.035  0.00  0.00    +0.000 A 
ATOM     22  C   UNL     1       1.938  13.791  19.101  0.00  0.00    +0.000 A 
BRANCH  17  26
ATOM     23  C   UNL     1       0.314  17.924  20.349  0.00  0.00    +0.000 C 
ATOM     24  C   UNL     1       0.290  16.419  20.407  0.00  0.00    +0.000 C 
ATOM     25  O   UNL     1      -0.032  15.835  21.436  0.00  0.00    +0.000 OA
ATOM     26  N   UNL     1       0.671  15.836  19.209  0.00  0.00    +0.000 N 
ATOM     27  H   UNL     1       1.116  16.438  18.529  0.00  0.00    +0.000 HD
ENDBRANCH  17  26
ENDBRANCH   1  20
TORSDOF 2
ENDMDL
