MODEL 1
REMARK VINA RESULT:      -8.3      0.000      0.000
REMARK  Name = 
REMARK  10 active torsions:
REMARK  status: ('A' for Active; 'I' for Inactive)
REMARK    1  A    between atoms: C_1  and  C_2
REMARK    2  A    between atoms: C_2  and  C_3
REMARK    3  A    between atoms: C_2  and  O_4
REMARK    4  A    between atoms: O_4  and  C_5
REMARK    5  A    between atoms: C_7  and  N_8
REMARK    6  A    between atoms: N_8  and  C_9
REMARK    7  A    between atoms: C_9  and  C_10
REMARK    8  A    between atoms: C_9  and  C_17
REMARK    9  A    between atoms: C_10  and  C_11
REMARK   10  A    between atoms: C_19  and  O_20
REMARK                            x       y       z     vdW  Elec       q    Type
REMARK                         _______ _______ _______ _____ _____    ______ ____
ROOT
ATOM      1  N   UNL     1       3.584   4.048  18.384  0.00  0.00    +0.000 N 
ATOM      2  H   UNL     1       3.219   3.229  17.912  0.00  0.00    +0.000 HD
ENDROOT
BRANCH   1   5
ATOM      3  C   UNL     1       6.089   5.030  15.955  0.00  0.00    +0.000 A 
ATOM      4  C   UNL     1       4.857   4.707  16.470  0.00  0.00    +0.000 A 
ATOM      5  C   UNL     1       4.806   4.456  17.825  0.00  0.00    +0.000 A 
ATOM      6  N   UNL     1       5.918   4.478  18.575  0.00  0.00    +0.000 NA
ATOM      7  C   UNL     1       7.075   4.756  17.965  0.00  0.00    +0.000 A 
ATOM      8  N   UNL     1       8.225   4.717  18.725  0.00  0.00    +0.000 N 
ATOM      9  N   UNL     1       7.210   5.081  16.683  0.00  0.00    +0.000 NA
ATOM     10  H   UNL     1       8.001   4.774  19.705  0.00  0.00    +0.000 HD
ATOM     11  H   UNL     1       8.920   5.348  18.353  0.00  0.00    +0.000 HD
BRANCH   3  12
ATOM     12  O   UNL     1       6.128   5.352  14.613  0.00  0.00    +0.000 OA
BRANCH  12  14
ATOM     13  C   UNL     1       5.936   3.678  12.944  0.00  0.00    +0.000 C 
ATOM     14  C   UNL     1       6.919   4.467  13.805  0.00  0.00    +0.000 C 
ATOM     15  C   UNL     1       7.876   5.258  12.917  0.00  0.00    +0.000 C 
ENDBRANCH  12  14
ENDBRANCH   3  12
ENDBRANCH   1   5
BRANCH   1  16
ATOM     16  C   UNL     1       2.550   5.085  18.600  0.00  0.00    +0.000 C 
BRANCH  16  17
ATOM     17  C   UNL     1       1.613   4.609  19.748  0.00  0.00    +0.000 C 
ATOM     18  C   UNL     1       1.234   3.100  19.866  0.00  0.00    +0.000 C 
ATOM     19  C   UNL     1       2.212   2.975  21.049  0.00  0.00    +0.000 C 
ATOM     20  C   UNL     1       2.104   4.509  21.224  0.00  0.00    +0.000 C 
BRANCH  19  21
ATOM     21  O   UNL     1       1.784   2.157  22.151  0.00  0.00    +0.000 OA
ATOM     22  H   UNL     1       1.190   1.486  21.776  0.00  0.00    +0.000 HD
ENDBRANCH  19  21
ENDBRANCH  16  17
BRANCH  16  23
ATOM     23  C   UNL     1       3.228   6.435  18.922  0.00  0.00    +0.000 C 
BRANCH  23  24
ATOM     24  C   UNL     1       2.315   7.639  18.949  0.00  0.00    +0.000 A 
ATOM     25  C   UNL     1       2.093   8.404  17.808  0.00  0.00    +0.000 A 
ATOM     26  C   UNL     1       1.335   9.567  17.905  0.00  0.00    +0.000 A 
ATOM     27  C   UNL     1       0.815   9.942  19.136  0.00  0.00    +0.000 A 
ATOM     28  C   UNL     1       1.068   9.123  20.221  0.00  0.00    +0.000 A 
ATOM     29  N   UNL     1       1.803   7.988  20.157  0.00  0.00    +0.000 NA
ENDBRANCH  23  24
ENDBRANCH  16  23
ENDBRANCH   1  16
TORSDOF 8
ENDMDL
MODEL 2
REMARK VINA RESULT:      -8.3      1.095      1.127
REMARK  Name = 
REMARK  10 active torsions:
REMARK  status: ('A' for Active; 'I' for Inactive)
REMARK    1  A    between atoms: C_1  and  C_2
REMARK    2  A    between atoms: C_2  and  C_3
REMARK    3  A    between atoms: C_2  and  O_4
REMARK    4  A    between atoms: O_4  and  C_5
REMARK    5  A    between atoms: C_7  and  N_8
REMARK    6  A    between atoms: N_8  and  C_9
REMARK    7  A    between atoms: C_9  and  C_10
REMARK    8  A    between atoms: C_9  and  C_17
REMARK    9  A    between atoms: C_10  and  C_11
REMARK   10  A    between atoms: C_19  and  O_20
REMARK                            x       y       z     vdW  Elec       q    Type
REMARK                         _______ _______ _______ _____ _____    ______ ____
ROOT
ATOM      1  N   UNL     1       3.977   4.177  18.136  0.00  0.00    +0.000 N 
ATOM      2  H   UNL     1       3.793   3.195  17.965  0.00  0.00    +0.000 HD
ENDROOT
BRANCH   1   5
ATOM      3  C   UNL     1       5.531   4.782  14.918  0.00  0.00    +0.000 A 
ATOM      4  C   UNL     1       4.650   4.279  15.843  0.00  0.00    +0.000 A 
ATOM      5  C   UNL     1       4.805   4.721  17.141  0.00  0.00    +0.000 A 
ATOM      6  N   UNL     1       5.802   5.554  17.473  0.00  0.00    +0.000 NA
ATOM      7  C   UNL     1       6.635   5.946  16.503  0.00  0.00    +0.000 A 
ATOM      8  N   UNL     1       7.696   6.753  16.858  0.00  0.00    +0.000 N 
ATOM      9  N   UNL     1       6.521   5.631  15.217  0.00  0.00    +0.000 NA
ATOM     10  H   UNL     1       7.529   7.181  17.755  0.00  0.00    +0.000 HD
ATOM     11  H   UNL     1       7.967   7.345  16.086  0.00  0.00    +0.000 HD
BRANCH   3  12
ATOM     12  O   UNL     1       5.332   4.397  13.607  0.00  0.00    +0.000 OA
BRANCH  12  14
ATOM     13  C   UNL     1       5.839   2.691  12.040  0.00  0.00    +0.000 C 
ATOM     14  C   UNL     1       6.440   3.708  13.007  0.00  0.00    +0.000 C 
ATOM     15  C   UNL     1       7.336   4.686  12.250  0.00  0.00    +0.000 C 
ENDBRANCH  12  14
ENDBRANCH   3  12
ENDBRANCH   1   5
BRANCH   1  16
ATOM     16  C   UNL     1       2.754   4.929  18.494  0.00  0.00    +0.000 C 
BRANCH  16  17
ATOM     17  C   UNL     1       1.756   3.945  19.172  0.00  0.00    +0.000 C 
ATOM     18  C   UNL     1       2.281   2.618  19.803  0.00  0.00    +0.000 C 
ATOM     19  C   UNL     1       2.108   3.247  21.199  0.00  0.00    +0.000 C 
ATOM     20  C   UNL     1       1.115   4.248  20.559  0.00  0.00    +0.000 C 
BRANCH  19  21
ATOM     21  O   UNL     1       1.598   2.385  22.231  0.00  0.00    +0.000 OA
ATOM     22  H   UNL     1       2.314   2.285  22.879  0.00  0.00    +0.000 HD
ENDBRANCH  19  21
ENDBRANCH  16  17
BRANCH  16  23
ATOM     23  C   UNL     1       3.122   6.112  19.415  0.00  0.00    +0.000 C 
BRANCH  23  24
ATOM     24  C   UNL     1       2.360   7.395  19.174  0.00  0.00    +0.000 A 
ATOM     25  C   UNL     1       2.412   8.048  17.947  0.00  0.00    +0.000 A 
ATOM     26  C   UNL     1       1.786   9.283  17.805  0.00  0.00    +0.000 A 
ATOM     27  C   UNL     1       1.122   9.840  18.889  0.00  0.00    +0.000 A 
ATOM     28  C   UNL     1       1.103   9.124  20.073  0.00  0.00    +0.000 A 
ATOM     29  N   UNL     1       1.705   7.924  20.240  0.00  0.00    +0.000 NA
ENDBRANCH  23  24
ENDBRANCH  16  23
ENDBRANCH   1  16
TORSDOF 8
ENDMDL
MODEL 3
REMARK VINA RESULT:      -8.2      2.791      6.730
REMARK  Name = 
REMARK  10 active torsions:
REMARK  status: ('A' for Active; 'I' for Inactive)
REMARK    1  A    between atoms: C_1  and  C_2
REMARK    2  A    between atoms: C_2  and  C_3
REMARK    3  A    between atoms: C_2  and  O_4
REMARK    4  A    between atoms: O_4  and  C_5
REMARK    5  A    between atoms: C_7  and  N_8
REMARK    6  A    between atoms: N_8  and  C_9
REMARK    7  A    between atoms: C_9  and  C_10
REMARK    8  A    between atoms: C_9  and  C_17
REMARK    9  A    between atoms: C_10  and  C_11
REMARK   10  A    between atoms: C_19  and  O_20
REMARK                            x       y       z     vdW  Elec       q    Type
REMARK                         _______ _______ _______ _____ _____    ______ ____
ROOT
ATOM      1  N   UNL     1       3.033   7.144  17.596  0.00  0.00    +0.000 N 
ATOM      2  H   UNL     1       2.694   7.151  16.640  0.00  0.00    +0.000 HD
ENDROOT
BRANCH   1   5
ATOM      3  C   UNL     1       0.729   9.691  18.756  0.00  0.00    +0.000 A 
ATOM      4  C   UNL     1       1.470   8.932  17.883  0.00  0.00    +0.000 A 
ATOM      5  C   UNL     1       2.200   7.900  18.437  0.00  0.00    +0.000 A 
ATOM      6  N   UNL     1       2.216   7.698  19.763  0.00  0.00    +0.000 NA
ATOM      7  C   UNL     1       1.497   8.526  20.528  0.00  0.00    +0.000 A 
ATOM      8  N   UNL     1       1.565   8.355  21.895  0.00  0.00    +0.000 N 
ATOM      9  N   UNL     1       0.709   9.498  20.079  0.00  0.00    +0.000 NA
ATOM     10  H   UNL     1       1.916   7.437  22.118  0.00  0.00    +0.000 HD
ATOM     11  H   UNL     1       0.709   8.662  22.335  0.00  0.00    +0.000 HD
BRANCH   3  12
ATOM     12  O   UNL     1      -0.058  10.677  18.196  0.00  0.00    +0.000 OA
BRANCH  12  14
ATOM     13  C   UNL     1      -2.114  11.786  18.602  0.00  0.00    +0.000 C 
ATOM     14  C   UNL     1      -1.471  10.440  18.279  0.00  0.00    +0.000 C 
ATOM     15  C   UNL     1      -2.008   9.907  16.952  0.00  0.00    +0.000 C 
ENDBRANCH  12  14
ENDBRANCH   3  12
ENDBRANCH   1   5
BRANCH   1  16
ATOM     16  C   UNL     1       3.414   5.788  18.051  0.00  0.00    +0.000 C 
BRANCH  16  17
ATOM     17  C   UNL     1       2.192   4.844  17.854  0.00  0.00    +0.000 C 
ATOM     18  C   UNL     1       2.399   3.421  17.250  0.00  0.00    +0.000 C 
ATOM     19  C   UNL     1       2.220   2.827  18.660  0.00  0.00    +0.000 C 
ATOM     20  C   UNL     1       1.495   4.136  19.054  0.00  0.00    +0.000 C 
BRANCH  19  21
ATOM     21  O   UNL     1       1.465   1.607  18.750  0.00  0.00    +0.000 OA
ATOM     22  H   UNL     1       2.117   0.890  18.824  0.00  0.00    +0.000 HD
ENDBRANCH  19  21
ENDBRANCH  16  17
BRANCH  16  23
ATOM     23  C   UNL     1       4.655   5.307  17.268  0.00  0.00    +0.000 C 
BRANCH  23  24
ATOM     24  C   UNL     1       5.967   5.954  17.651  0.00  0.00    +0.000 A 
ATOM     25  C   UNL     1       6.760   5.432  18.668  0.00  0.00    +0.000 A 
ATOM     26  C   UNL     1       7.903   6.123  19.063  0.00  0.00    +0.000 A 
ATOM     27  C   UNL     1       8.228   7.317  18.436  0.00  0.00    +0.000 A 
ATOM     28  C   UNL     1       7.397   7.764  17.424  0.00  0.00    +0.000 A 
ATOM     29  N   UNL     1       6.280   7.115  17.022  0.00  0.00    +0.000 NA
ENDBRANCH  23  24
ENDBRANCH  16  23
ENDBRANCH   1  16
TORSDOF 8
ENDMDL
MODEL 4
REMARK VINA RESULT:      -8.1      1.553      2.103
REMARK  Name = 
REMARK  10 active torsions:
REMARK  status: ('A' for Active; 'I' for Inactive)
REMARK    1  A    between atoms: C_1  and  C_2
REMARK    2  A    between atoms: C_2  and  C_3
REMARK    3  A    between atoms: C_2  and  O_4
REMARK    4  A    between atoms: O_4  and  C_5
REMARK    5  A    between atoms: C_7  and  N_8
REMARK    6  A    between atoms: N_8  and  C_9
REMARK    7  A    between atoms: C_9  and  C_10
REMARK    8  A    between atoms: C_9  and  C_17
REMARK    9  A    between atoms: C_10  and  C_11
REMARK   10  A    between atoms: C_19  and  O_20
REMARK                            x       y       z     vdW  Elec       q    Type
REMARK                         _______ _______ _______ _____ _____    ______ ____
ROOT
ATOM      1  N   UNL     1       4.035   6.711  17.485  0.00  0.00    +0.000 N 
ATOM      2  H   UNL     1       4.045   7.675  17.797  0.00  0.00    +0.000 HD
ENDROOT
BRANCH   1   5
ATOM      3  C   UNL     1       7.025   4.974  16.397  0.00  0.00    +0.000 A 
ATOM      4  C   UNL     1       5.786   5.562  16.329  0.00  0.00    +0.000 A 
ATOM      5  C   UNL     1       5.329   6.163  17.483  0.00  0.00    +0.000 A 
ATOM      6  N   UNL     1       6.044   6.118  18.617  0.00  0.00    +0.000 NA
ATOM      7  C   UNL     1       7.218   5.477  18.587  0.00  0.00    +0.000 A 
ATOM      8  N   UNL     1       7.923   5.379  19.769  0.00  0.00    +0.000 N 
ATOM      9  N   UNL     1       7.770   4.934  17.507  0.00  0.00    +0.000 NA
ATOM     10  H   UNL     1       7.596   6.063  20.432  0.00  0.00    +0.000 HD
ATOM     11  H   UNL     1       8.914   5.320  19.588  0.00  0.00    +0.000 HD
BRANCH   3  12
ATOM     12  O   UNL     1       7.516   4.436  15.224  0.00  0.00    +0.000 OA
BRANCH  12  14
ATOM     13  C   UNL     1       7.913   5.365  13.079  0.00  0.00    +0.000 C 
ATOM     14  C   UNL     1       6.834   4.864  14.035  0.00  0.00    +0.000 C 
ATOM     15  C   UNL     1       6.072   3.701  13.402  0.00  0.00    +0.000 C 
ENDBRANCH  12  14
ENDBRANCH   3  12
ENDBRANCH   1   5
BRANCH   1  16
ATOM     16  C   UNL     1       2.959   5.920  18.122  0.00  0.00    +0.000 C 
BRANCH  16  17
ATOM     17  C   UNL     1       3.363   4.417  18.074  0.00  0.00    +0.000 C 
ATOM     18  C   UNL     1       3.099   3.502  19.309  0.00  0.00    +0.000 C 
ATOM     19  C   UNL     1       1.912   2.874  18.555  0.00  0.00    +0.000 C 
ATOM     20  C   UNL     1       2.558   3.374  17.241  0.00  0.00    +0.000 C 
BRANCH  19  21
ATOM     21  O   UNL     1       1.738   1.454  18.702  0.00  0.00    +0.000 OA
ATOM     22  H   UNL     1       2.435   1.157  19.310  0.00  0.00    +0.000 HD
ENDBRANCH  19  21
ENDBRANCH  16  17
BRANCH  16  23
ATOM     23  C   UNL     1       2.734   6.418  19.567  0.00  0.00    +0.000 C 
BRANCH  23  24
ATOM     24  C   UNL     1       2.011   7.738  19.702  0.00  0.00    +0.000 A 
ATOM     25  C   UNL     1       1.368   8.092  20.884  0.00  0.00    +0.000 A 
ATOM     26  C   UNL     1       0.621   9.267  20.927  0.00  0.00    +0.000 A 
ATOM     27  C   UNL     1       0.532  10.061  19.793  0.00  0.00    +0.000 A 
ATOM     28  C   UNL     1       1.211   9.648  18.660  0.00  0.00    +0.000 A 
ATOM     29  N   UNL     1       1.942   8.512  18.588  0.00  0.00    +0.000 NA
ENDBRANCH  23  24
ENDBRANCH  16  23
ENDBRANCH   1  16
TORSDOF 8
ENDMDL
MODEL 5
REMARK VINA RESULT:      -8.1      1.775      2.065
REMARK  Name = 
REMARK  10 active torsions:
REMARK  status: ('A' for Active; 'I' for Inactive)
REMARK    1  A    between atoms: C_1  and  C_2
REMARK    2  A    between atoms: C_2  and  C_3
REMARK    3  A    between atoms: C_2  and  O_4
REMARK    4  A    between atoms: O_4  and  C_5
REMARK    5  A    between atoms: C_7  and  N_8
REMARK    6  A    between atoms: N_8  and  C_9
REMARK    7  A    between atoms: C_9  and  C_10
REMARK    8  A    between atoms: C_9  and  C_17
REMARK    9  A    between atoms: C_10  and  C_11
REMARK   10  A    between atoms: C_19  and  O_20
REMARK                            x       y       z     vdW  Elec       q    Type
REMARK                         _______ _______ _______ _____ _____    ______ ____
ROOT
ATOM      1  N   UNL     1       4.922   5.101  19.362  0.00  0.00    +0.000 N 
ATOM      2  H   UNL     1       5.279   4.248  19.777  0.00  0.00    +0.000 HD
ENDROOT
BRANCH   1   5
ATOM      3  C   UNL     1       6.776   5.027  16.248  0.00  0.00    +0.000 A 
ATOM      4  C   UNL     1       5.936   4.611  17.252  0.00  0.00    +0.000 A 
ATOM      5  C   UNL     1       5.713   5.509  18.275  0.00  0.00    +0.000 A 
ATOM      6  N   UNL     1       6.334   6.697  18.300  0.00  0.00    +0.000 NA
ATOM      7  C   UNL     1       7.171   6.984  17.298  0.00  0.00    +0.000 A 
ATOM      8  N   UNL     1       7.855   8.180  17.358  0.00  0.00    +0.000 N 
ATOM      9  N   UNL     1       7.391   6.215  16.236  0.00  0.00    +0.000 NA
ATOM     10  H   UNL     1       7.407   8.811  18.003  0.00  0.00    +0.000 HD
ATOM     11  H   UNL     1       8.070   8.515  16.429  0.00  0.00    +0.000 HD
BRANCH   3  12
ATOM     12  O   UNL     1       6.944   4.159  15.188  0.00  0.00    +0.000 OA
BRANCH  12  14
ATOM     13  C   UNL     1       7.727   5.100  13.157  0.00  0.00    +0.000 C 
ATOM     14  C   UNL     1       6.483   4.657  13.923  0.00  0.00    +0.000 C 
ATOM     15  C   UNL     1       5.751   3.565  13.147  0.00  0.00    +0.000 C 
ENDBRANCH  12  14
ENDBRANCH   3  12
ENDBRANCH   1   5
BRANCH   1  16
ATOM     16  C   UNL     1       3.456   5.063  19.164  0.00  0.00    +0.000 C 
BRANCH  16  17
ATOM     17  C   UNL     1       2.968   3.605  19.406  0.00  0.00    +0.000 C 
ATOM     18  C   UNL     1       2.685   2.669  18.191  0.00  0.00    +0.000 C 
ATOM     19  C   UNL     1       4.005   1.932  18.486  0.00  0.00    +0.000 C 
ATOM     20  C   UNL     1       3.926   2.492  19.927  0.00  0.00    +0.000 C 
BRANCH  19  21
ATOM     21  O   UNL     1       3.990   0.503  18.335  0.00  0.00    +0.000 OA
ATOM     22  H   UNL     1       3.403   0.316  17.584  0.00  0.00    +0.000 HD
ENDBRANCH  19  21
ENDBRANCH  16  17
BRANCH  16  23
ATOM     23  C   UNL     1       2.777   6.071  20.117  0.00  0.00    +0.000 C 
BRANCH  23  24
ATOM     24  C   UNL     1       2.233   7.324  19.470  0.00  0.00    +0.000 A 
ATOM     25  C   UNL     1       2.498   7.624  18.137  0.00  0.00    +0.000 A 
ATOM     26  C   UNL     1       2.071   8.841  17.615  0.00  0.00    +0.000 A 
ATOM     27  C   UNL     1       1.391   9.733  18.432  0.00  0.00    +0.000 A 
ATOM     28  C   UNL     1       1.153   9.358  19.742  0.00  0.00    +0.000 A 
ATOM     29  N   UNL     1       1.558   8.183  20.277  0.00  0.00    +0.000 NA
ENDBRANCH  23  24
ENDBRANCH  16  23
ENDBRANCH   1  16
TORSDOF 8
ENDMDL
MODEL 6
REMARK VINA RESULT:      -8.0      3.031      7.159
REMARK  Name = 
REMARK  10 active torsions:
REMARK  status: ('A' for Active; 'I' for Inactive)
REMARK    1  A    between atoms: C_1  and  C_2
REMARK    2  A    between atoms: C_2  and  C_3
REMARK    3  A    between atoms: C_2  and  O_4
REMARK    4  A    between atoms: O_4  and  C_5
REMARK    5  A    between atoms: C_7  and  N_8
REMARK    6  A    between atoms: N_8  and  C_9
REMARK    7  A    between atoms: C_9  and  C_10
REMARK    8  A    between atoms: C_9  and  C_17
REMARK    9  A    between atoms: C_10  and  C_11
REMARK   10  A    between atoms: C_19  and  O_20
REMARK                            x       y       z     vdW  Elec       q    Type
REMARK                         _______ _______ _______ _____ _____    ______ ____
ROOT
ATOM      1  N   UNL     1       3.105   6.570  19.125  0.00  0.00    +0.000 N 
ATOM      2  H   UNL     1       4.062   6.854  19.304  0.00  0.00    +0.000 HD
ENDROOT
BRANCH   1   5
ATOM      3  C   UNL     1       0.890   9.437  19.001  0.00  0.00    +0.000 A 
ATOM      4  C   UNL     1       1.716   8.433  18.558  0.00  0.00    +0.000 A 
ATOM      5  C   UNL     1       2.197   7.566  19.518  0.00  0.00    +0.000 A 
ATOM      6  N   UNL     1       1.906   7.742  20.816  0.00  0.00    +0.000 NA
ATOM      7  C   UNL     1       1.132   8.781  21.145  0.00  0.00    +0.000 A 
ATOM      8  N   UNL     1       0.886   8.995  22.486  0.00  0.00    +0.000 N 
ATOM      9  N   UNL     1       0.566   9.622  20.286  0.00  0.00    +0.000 NA
ATOM     10  H   UNL     1       1.082   8.163  23.018  0.00  0.00    +0.000 HD
ATOM     11  H   UNL     1      -0.006   9.450  22.616  0.00  0.00    +0.000 HD
BRANCH   3  12
ATOM     12  O   UNL     1       0.351  10.261  18.033  0.00  0.00    +0.000 OA
BRANCH  12  14
ATOM     13  C   UNL     1      -1.158  12.084  18.183  0.00  0.00    +0.000 C 
ATOM     14  C   UNL     1      -1.042  10.562  18.207  0.00  0.00    +0.000 C 
ATOM     15  C   UNL     1      -1.869   9.955  17.076  0.00  0.00    +0.000 C 
ENDBRANCH  12  14
ENDBRANCH   3  12
ENDBRANCH   1   5
BRANCH   1  16
ATOM     16  C   UNL     1       2.932   5.979  17.779  0.00  0.00    +0.000 C 
BRANCH  16  17
ATOM     17  C   UNL     1       4.337   5.590  17.232  0.00  0.00    +0.000 C 
ATOM     18  C   UNL     1       5.009   6.463  16.128  0.00  0.00    +0.000 C 
ATOM     19  C   UNL     1       5.946   7.049  17.201  0.00  0.00    +0.000 C 
ATOM     20  C   UNL     1       5.635   5.805  18.067  0.00  0.00    +0.000 C 
BRANCH  19  21
ATOM     21  O   UNL     1       7.316   7.253  16.814  0.00  0.00    +0.000 OA
ATOM     22  H   UNL     1       7.747   6.385  16.875  0.00  0.00    +0.000 HD
ENDBRANCH  19  21
ENDBRANCH  16  17
BRANCH  16  23
ATOM     23  C   UNL     1       1.982   4.764  17.863  0.00  0.00    +0.000 C 
BRANCH  23  24
ATOM     24  C   UNL     1       2.083   3.937  19.125  0.00  0.00    +0.000 A 
ATOM     25  C   UNL     1       1.020   3.847  20.018  0.00  0.00    +0.000 A 
ATOM     26  C   UNL     1       1.195   3.166  21.219  0.00  0.00    +0.000 A 
ATOM     27  C   UNL     1       2.425   2.591  21.504  0.00  0.00    +0.000 A 
ATOM     28  C   UNL     1       3.430   2.712  20.560  0.00  0.00    +0.000 A 
ATOM     29  N   UNL     1       3.288   3.370  19.386  0.00  0.00    +0.000 NA
ENDBRANCH  23  24
ENDBRANCH  16  23
ENDBRANCH   1  16
TORSDOF 8
ENDMDL
MODEL 7
REMARK VINA RESULT:      -8.0      2.784      6.673
REMARK  Name = 
REMARK  10 active torsions:
REMARK  status: ('A' for Active; 'I' for Inactive)
REMARK    1  A    between atoms: C_1  and  C_2
REMARK    2  A    between atoms: C_2  and  C_3
REMARK    3  A    between atoms: C_2  and  O_4
REMARK    4  A    between atoms: O_4  and  C_5
REMARK    5  A    between atoms: C_7  and  N_8
REMARK    6  A    between atoms: N_8  and  C_9
REMARK    7  A    between atoms: C_9  and  C_10
REMARK    8  A    between atoms: C_9  and  C_17
REMARK    9  A    between atoms: C_10  and  C_11
REMARK   10  A    between atoms: C_19  and  O_20
REMARK                            x       y       z     vdW  Elec       q    Type
REMARK                         _______ _______ _______ _____ _____    ______ ____
ROOT
ATOM      1  N   UNL     1       3.093   7.017  17.600  0.00  0.00    +0.000 N 
ATOM      2  H   UNL     1       2.750   7.020  16.647  0.00  0.00    +0.000 HD
ENDROOT
BRANCH   1   5
ATOM      3  C   UNL     1       0.970   9.718  18.757  0.00  0.00    +0.000 A 
ATOM      4  C   UNL     1       1.682   8.926  17.888  0.00  0.00    +0.000 A 
ATOM      5  C   UNL     1       2.291   7.815  18.433  0.00  0.00    +0.000 A 
ATOM      6  N   UNL     1       2.227   7.566  19.749  0.00  0.00    +0.000 NA
ATOM      7  C   UNL     1       1.548   8.428  20.514  0.00  0.00    +0.000 A 
ATOM      8  N   UNL     1       1.536   8.203  21.874  0.00  0.00    +0.000 N 
ATOM      9  N   UNL     1       0.871   9.481  20.069  0.00  0.00    +0.000 NA
ATOM     10  H   UNL     1       1.795   7.251  22.077  0.00  0.00    +0.000 HD
ATOM     11  H   UNL     1       0.691   8.570  22.288  0.00  0.00    +0.000 HD
BRANCH   3  12
ATOM     12  O   UNL     1       0.299  10.790  18.202  0.00  0.00    +0.000 OA
BRANCH  12  14
ATOM     13  C   UNL     1       1.827  12.568  18.555  0.00  0.00    +0.000 C 
ATOM     14  C   UNL     1       0.446  12.026  18.916  0.00  0.00    +0.000 C 
ATOM     15  C   UNL     1      -0.633  13.022  18.497  0.00  0.00    +0.000 C 
ENDBRANCH  12  14
ENDBRANCH   3  12
ENDBRANCH   1   5
BRANCH   1  16
ATOM     16  C   UNL     1       3.432   5.658  18.076  0.00  0.00    +0.000 C 
BRANCH  16  17
ATOM     17  C   UNL     1       2.200   4.736  17.836  0.00  0.00    +0.000 C 
ATOM     18  C   UNL     1       2.404   3.308  17.242  0.00  0.00    +0.000 C 
ATOM     19  C   UNL     1       2.163   2.720  18.646  0.00  0.00    +0.000 C 
ATOM     20  C   UNL     1       1.448   4.043  19.012  0.00  0.00    +0.000 C 
BRANCH  19  21
ATOM     21  O   UNL     1       1.384   1.513  18.711  0.00  0.00    +0.000 OA
ATOM     22  H   UNL     1       1.867   0.910  19.299  0.00  0.00    +0.000 HD
ENDBRANCH  19  21
ENDBRANCH  16  17
BRANCH  16  23
ATOM     23  C   UNL     1       4.693   5.149  17.343  0.00  0.00    +0.000 C 
BRANCH  23  24
ATOM     24  C   UNL     1       5.987   5.840  17.705  0.00  0.00    +0.000 A 
ATOM     25  C   UNL     1       6.779   5.388  18.756  0.00  0.00    +0.000 A 
ATOM     26  C   UNL     1       7.904   6.121  19.125  0.00  0.00    +0.000 A 
ATOM     27  C   UNL     1       8.214   7.287  18.440  0.00  0.00    +0.000 A 
ATOM     28  C   UNL     1       7.386   7.664  17.398  0.00  0.00    +0.000 A 
ATOM     29  N   UNL     1       6.285   6.973  17.019  0.00  0.00    +0.000 NA
ENDBRANCH  23  24
ENDBRANCH  16  23
ENDBRANCH   1  16
TORSDOF 8
ENDMDL
MODEL 8
REMARK VINA RESULT:      -8.0      1.402      1.738
REMARK  Name = 
REMARK  10 active torsions:
REMARK  status: ('A' for Active; 'I' for Inactive)
REMARK    1  A    between atoms: C_1  and  C_2
REMARK    2  A    between atoms: C_2  and  C_3
REMARK    3  A    between atoms: C_2  and  O_4
REMARK    4  A    between atoms: O_4  and  C_5
REMARK    5  A    between atoms: C_7  and  N_8
REMARK    6  A    between atoms: N_8  and  C_9
REMARK    7  A    between atoms: C_9  and  C_10
REMARK    8  A    between atoms: C_9  and  C_17
REMARK    9  A    between atoms: C_10  and  C_11
REMARK   10  A    between atoms: C_19  and  O_20
REMARK                            x       y       z     vdW  Elec       q    Type
REMARK                         _______ _______ _______ _____ _____    ______ ____
ROOT
ATOM      1  N   UNL     1       4.100   4.940  18.747  0.00  0.00    +0.000 N 
ATOM      2  H   UNL     1       4.009   3.952  18.539  0.00  0.00    +0.000 HD
ENDROOT
BRANCH   1   5
ATOM      3  C   UNL     1       6.319   5.900  16.046  0.00  0.00    +0.000 A 
ATOM      4  C   UNL     1       5.208   5.395  16.677  0.00  0.00    +0.000 A 
ATOM      5  C   UNL     1       5.179   5.509  18.051  0.00  0.00    +0.000 A 
ATOM      6  N   UNL     1       6.212   6.038  18.723  0.00  0.00    +0.000 NA
ATOM      7  C   UNL     1       7.267   6.455  18.015  0.00  0.00    +0.000 A 
ATOM      8  N   UNL     1       8.354   6.942  18.712  0.00  0.00    +0.000 N 
ATOM      9  N   UNL     1       7.353   6.453  16.689  0.00  0.00    +0.000 NA
ATOM     10  H   UNL     1       8.087   7.192  19.651  0.00  0.00    +0.000 HD
ATOM     11  H   UNL     1       8.857   7.620  18.159  0.00  0.00    +0.000 HD
BRANCH   3  12
ATOM     12  O   UNL     1       6.317   5.852  14.666  0.00  0.00    +0.000 OA
BRANCH  12  14
ATOM     13  C   UNL     1       6.149   3.781  13.523  0.00  0.00    +0.000 C 
ATOM     14  C   UNL     1       7.122   4.807  14.100  0.00  0.00    +0.000 C 
ATOM     15  C   UNL     1       8.019   5.357  12.993  0.00  0.00    +0.000 C 
ENDBRANCH  12  14
ENDBRANCH   3  12
ENDBRANCH   1   5
BRANCH   1  16
ATOM     16  C   UNL     1       2.803   5.651  18.698  0.00  0.00    +0.000 C 
BRANCH  16  17
ATOM     17  C   UNL     1       1.694   4.619  18.339  0.00  0.00    +0.000 C 
ATOM     18  C   UNL     1       2.077   3.277  17.643  0.00  0.00    +0.000 C 
ATOM     19  C   UNL     1       1.864   2.553  18.986  0.00  0.00    +0.000 C 
ATOM     20  C   UNL     1       0.992   3.752  19.427  0.00  0.00    +0.000 C 
BRANCH  19  21
ATOM     21  O   UNL     1       1.228   1.265  18.926  0.00  0.00    +0.000 OA
ATOM     22  H   UNL     1       0.340   1.418  18.562  0.00  0.00    +0.000 HD
ENDBRANCH  19  21
ENDBRANCH  16  17
BRANCH  16  23
ATOM     23  C   UNL     1       2.539   6.344  20.053  0.00  0.00    +0.000 C 
BRANCH  23  24
ATOM     24  C   UNL     1       1.892   7.708  19.978  0.00  0.00    +0.000 A 
ATOM     25  C   UNL     1       1.178   8.230  21.052  0.00  0.00    +0.000 A 
ATOM     26  C   UNL     1       0.507   9.440  20.901  0.00  0.00    +0.000 A 
ATOM     27  C   UNL     1       0.561  10.102  19.682  0.00  0.00    +0.000 A 
ATOM     28  C   UNL     1       1.302   9.526  18.666  0.00  0.00    +0.000 A 
ATOM     29  N   UNL     1       1.963   8.351  18.784  0.00  0.00    +0.000 NA
ENDBRANCH  23  24
ENDBRANCH  16  23
ENDBRANCH   1  16
TORSDOF 8
ENDMDL
MODEL 9
REMARK VINA RESULT:      -8.0      1.457      1.900
REMARK  Name = 
REMARK  10 active torsions:
REMARK  status: ('A' for Active; 'I' for Inactive)
REMARK    1  A    between atoms: C_1  and  C_2
REMARK    2  A    between atoms: C_2  and  C_3
REMARK    3  A    between atoms: C_2  and  O_4
REMARK    4  A    between atoms: O_4  and  C_5
REMARK    5  A    between atoms: C_7  and  N_8
REMARK    6  A    between atoms: N_8  and  C_9
REMARK    7  A    between atoms: C_9  and  C_10
REMARK    8  A    between atoms: C_9  and  C_17
REMARK    9  A    between atoms: C_10  and  C_11
REMARK   10  A    between atoms: C_19  and  O_20
REMARK                            x       y       z     vdW  Elec       q    Type
REMARK                         _______ _______ _______ _____ _____    ______ ____
ROOT
ATOM      1  N   UNL     1       3.965   4.619  19.471  0.00  0.00    +0.000 N 
ATOM      2  H   UNL     1       3.676   3.647  19.459  0.00  0.00    +0.000 HD
ENDROOT
BRANCH   1   5
ATOM      3  C   UNL     1       6.736   4.506  17.137  0.00  0.00    +0.000 A 
ATOM      4  C   UNL     1       5.449   4.405  17.608  0.00  0.00    +0.000 A 
ATOM      5  C   UNL     1       5.248   4.776  18.921  0.00  0.00    +0.000 A 
ATOM      6  N   UNL     1       6.273   5.158  19.697  0.00  0.00    +0.000 NA
ATOM      7  C   UNL     1       7.494   5.174  19.153  0.00  0.00    +0.000 A 
ATOM      8  N   UNL     1       8.554   5.508  19.970  0.00  0.00    +0.000 N 
ATOM      9  N   UNL     1       7.773   4.905  17.882  0.00  0.00    +0.000 NA
ATOM     10  H   UNL     1       8.227   5.984  20.795  0.00  0.00    +0.000 HD
ATOM     11  H   UNL     1       9.297   5.932  19.433  0.00  0.00    +0.000 HD
BRANCH   3  12
ATOM     12  O   UNL     1       6.927   4.205  15.803  0.00  0.00    +0.000 OA
BRANCH  12  14
ATOM     13  C   UNL     1       5.452   5.846  14.933  0.00  0.00    +0.000 C 
ATOM     14  C   UNL     1       5.760   4.351  14.980  0.00  0.00    +0.000 C 
ATOM     15  C   UNL     1       6.024   3.825  13.571  0.00  0.00    +0.000 C 
ENDBRANCH  12  14
ENDBRANCH   3  12
ENDBRANCH   1   5
BRANCH   1  16
ATOM     16  C   UNL     1       2.901   5.531  18.994  0.00  0.00    +0.000 C 
BRANCH  16  17
ATOM     17  C   UNL     1       1.668   4.672  18.585  0.00  0.00    +0.000 C 
ATOM     18  C   UNL     1       1.863   3.416  17.680  0.00  0.00    +0.000 C 
ATOM     19  C   UNL     1       1.665   2.526  18.921  0.00  0.00    +0.000 C 
ATOM     20  C   UNL     1       0.954   3.724  19.594  0.00  0.00    +0.000 C 
BRANCH  19  21
ATOM     21  O   UNL     1       0.895   1.326  18.733  0.00  0.00    +0.000 OA
ATOM     22  H   UNL     1       1.534   0.621  18.537  0.00  0.00    +0.000 HD
ENDBRANCH  19  21
ENDBRANCH  16  17
BRANCH  16  23
ATOM     23  C   UNL     1       2.558   6.552  20.101  0.00  0.00    +0.000 C 
BRANCH  23  24
ATOM     24  C   UNL     1       2.013   7.879  19.625  0.00  0.00    +0.000 A 
ATOM     25  C   UNL     1       1.169   8.643  20.425  0.00  0.00    +0.000 A 
ATOM     26  C   UNL     1       0.602   9.803  19.904  0.00  0.00    +0.000 A 
ATOM     27  C   UNL     1       0.888  10.174  18.598  0.00  0.00    +0.000 A 
ATOM     28  C   UNL     1       1.747   9.370  17.870  0.00  0.00    +0.000 A 
ATOM     29  N   UNL     1       2.310   8.237  18.350  0.00  0.00    +0.000 NA
ENDBRANCH  23  24
ENDBRANCH  16  23
ENDBRANCH   1  16
TORSDOF 8
ENDMDL
