MODEL 1
REMARK VINA RESULT:      -8.8      0.000      0.000
REMARK  Name = 
REMARK  11 active torsions:
REMARK  status: ('A' for Active; 'I' for Inactive)
REMARK    1  A    between atoms: C_1  and  N_2
REMARK    2  A    between atoms: N_2  and  C_3
REMARK    3  A    between atoms: N_2  and  C_4
REMARK    4  A    between atoms: C_8  and  C_9
REMARK    5  A    between atoms: C_9  and  C_10
REMARK    6  A    between atoms: C_19  and  N_20
REMARK    7  A    between atoms: C_21  and  C_23
REMARK    8  A    between atoms: C_26  and  C_27
REMARK    9  A    between atoms: C_27  and  C_28
REMARK   10  A    between atoms: C_27  and  C_29
REMARK   11  A    between atoms: C_27  and  C_30
REMARK                            x       y       z     vdW  Elec       q    Type
REMARK                         _______ _______ _______ _____ _____    ______ ____
ROOT
ATOM      1  C   UNL     1       2.924   5.212  18.578  0.00  0.00    +0.000 A 
ATOM      2  C   UNL     1       3.767   4.288  17.924  0.00  0.00    +0.000 A 
ATOM      3  C   UNL     1       4.631   4.745  16.916  0.00  0.00    +0.000 A 
ATOM      4  N   UNL     1       5.529   4.100  16.112  0.00  0.00    +0.000 N 
ATOM      5  C   UNL     1       6.097   5.019  15.262  0.00  0.00    +0.000 A 
ATOM      6  N   UNL     1       5.626   6.227  15.512  0.00  0.00    +0.000 NA
ATOM      7  C   UNL     1       4.704   6.071  16.520  0.00  0.00    +0.000 A 
ATOM      8  C   UNL     1       3.890   7.015  17.157  0.00  0.00    +0.000 A 
ATOM      9  C   UNL     1       3.032   6.582  18.188  0.00  0.00    +0.000 A 
ATOM     10  H   UNL     1       5.735   3.107  16.121  0.00  0.00    +0.000 HD
ENDROOT
BRANCH   9  11
ATOM     11  N   UNL     1       2.356   7.558  18.954  0.00  0.00    +0.000 N 
ATOM     12  C   UNL     1       1.868   8.743  18.438  0.00  0.00    +0.000 C 
ATOM     13  O   UNL     1       1.881   9.071  17.258  0.00  0.00    +0.000 OA
ATOM     14  H   UNL     1       1.935   7.201  19.803  0.00  0.00    +0.000 HD
BRANCH  12  15
ATOM     15  C   UNL     1       1.227   9.638  19.435  0.00  0.00    +0.000 A 
ATOM     16  C   UNL     1       1.070  10.998  19.161  0.00  0.00    +0.000 A 
ATOM     17  C   UNL     1       0.332  11.807  20.024  0.00  0.00    +0.000 A 
ATOM     18  C   UNL     1      -0.276  11.291  21.179  0.00  0.00    +0.000 A 
ATOM     19  C   UNL     1      -0.041   9.931  21.482  0.00  0.00    +0.000 A 
ATOM     20  C   UNL     1       0.690   9.112  20.611  0.00  0.00    +0.000 A 
BRANCH  18  21
ATOM     21  C   UNL     1      -1.249  12.128  22.032  0.00  0.00    +0.000 C 
ATOM     22  C   UNL     1      -2.528  12.545  21.269  0.00  0.00    +0.000 C 
ATOM     23  C   UNL     1      -1.701  11.294  23.248  0.00  0.00    +0.000 C 
ATOM     24  C   UNL     1      -0.577  13.420  22.536  0.00  0.00    +0.000 C 
ENDBRANCH  18  21
ENDBRANCH  12  15
ENDBRANCH   9  11
BRANCH   1  26
ATOM     25  C   UNL     1       2.320   4.866  20.968  0.00  0.00    +0.000 C 
ATOM     26  N   UNL     1       1.980   4.801  19.548  0.00  0.00    +0.000 N 
ATOM     27  C   UNL     1       1.070   3.709  19.167  0.00  0.00    +0.000 C 
ENDBRANCH   1  26
BRANCH   5  28
ATOM     28  C   UNL     1       7.042   4.626  14.171  0.00  0.00    +0.000 C 
BRANCH  28  29
ATOM     29  C   UNL     1       6.399   3.848  13.040  0.00  0.00    +0.000 A 
ATOM     30  C   UNL     1       7.149   2.950  12.267  0.00  0.00    +0.000 A 
ATOM     31  C   UNL     1       6.534   2.183  11.275  0.00  0.00    +0.000 A 
ATOM     32  C   UNL     1       5.164   2.301  11.045  0.00  0.00    +0.000 A 
ATOM     33  C   UNL     1       4.410   3.195  11.804  0.00  0.00    +0.000 A 
ATOM     34  C   UNL     1       5.021   3.963  12.795  0.00  0.00    +0.000 A 
ENDBRANCH  28  29
ENDBRANCH   5  28
TORSDOF 6
ENDMDL
MODEL 2
REMARK VINA RESULT:      -8.3      4.305      7.027
REMARK  Name = 
REMARK  11 active torsions:
REMARK  status: ('A' for Active; 'I' for Inactive)
REMARK    1  A    between atoms: C_1  and  N_2
REMARK    2  A    between atoms: N_2  and  C_3
REMARK    3  A    between atoms: N_2  and  C_4
REMARK    4  A    between atoms: C_8  and  C_9
REMARK    5  A    between atoms: C_9  and  C_10
REMARK    6  A    between atoms: C_19  and  N_20
REMARK    7  A    between atoms: C_21  and  C_23
REMARK    8  A    between atoms: C_26  and  C_27
REMARK    9  A    between atoms: C_27  and  C_28
REMARK   10  A    between atoms: C_27  and  C_29
REMARK   11  A    between atoms: C_27  and  C_30
REMARK                            x       y       z     vdW  Elec       q    Type
REMARK                         _______ _______ _______ _____ _____    ______ ____
ROOT
ATOM      1  C   UNL     1       0.308  11.243  19.296  0.00  0.00    +0.000 A 
ATOM      2  C   UNL     1       1.236  10.383  18.669  0.00  0.00    +0.000 A 
ATOM      3  C   UNL     1       1.513   9.134  19.249  0.00  0.00    +0.000 A 
ATOM      4  N   UNL     1       2.356   8.120  18.892  0.00  0.00    +0.000 N 
ATOM      5  C   UNL     1       2.267   7.122  19.833  0.00  0.00    +0.000 A 
ATOM      6  N   UNL     1       1.379   7.440  20.756  0.00  0.00    +0.000 NA
ATOM      7  C   UNL     1       0.916   8.691  20.419  0.00  0.00    +0.000 A 
ATOM      8  C   UNL     1      -0.018   9.514  21.058  0.00  0.00    +0.000 A 
ATOM      9  C   UNL     1      -0.328  10.762  20.481  0.00  0.00    +0.000 A 
ATOM     10  H   UNL     1       2.964   8.106  18.080  0.00  0.00    +0.000 HD
ENDROOT
BRANCH   9  11
ATOM     11  N   UNL     1      -1.402  11.504  21.019  0.00  0.00    +0.000 N 
ATOM     12  C   UNL     1      -1.417  12.025  22.299  0.00  0.00    +0.000 C 
ATOM     13  O   UNL     1      -0.491  11.988  23.100  0.00  0.00    +0.000 OA
ATOM     14  H   UNL     1      -1.998  11.937  20.324  0.00  0.00    +0.000 HD
BRANCH  12  15
ATOM     15  C   UNL     1      -2.668  12.737  22.666  0.00  0.00    +0.000 A 
ATOM     16  C   UNL     1      -3.137  13.788  21.877  0.00  0.00    +0.000 A 
ATOM     17  C   UNL     1      -4.387  14.352  22.130  0.00  0.00    +0.000 A 
ATOM     18  C   UNL     1      -5.209  13.886  23.168  0.00  0.00    +0.000 A 
ATOM     19  C   UNL     1      -4.686  12.876  24.005  0.00  0.00    +0.000 A 
ATOM     20  C   UNL     1      -3.436  12.298  23.747  0.00  0.00    +0.000 A 
BRANCH  18  21
ATOM     21  C   UNL     1      -6.664  14.368  23.334  0.00  0.00    +0.000 C 
ATOM     22  C   UNL     1      -7.470  14.347  22.014  0.00  0.00    +0.000 C 
ATOM     23  C   UNL     1      -7.395  13.436  24.323  0.00  0.00    +0.000 C 
ATOM     24  C   UNL     1      -6.715  15.809  23.878  0.00  0.00    +0.000 C 
ENDBRANCH  18  21
ENDBRANCH  12  15
ENDBRANCH   9  11
BRANCH   1  26
ATOM     25  C   UNL     1      -1.057  12.754  17.866  0.00  0.00    +0.000 C 
ATOM     26  N   UNL     1       0.046  12.542  18.801  0.00  0.00    +0.000 N 
ATOM     27  C   UNL     1       1.205  13.430  18.622  0.00  0.00    +0.000 C 
ENDBRANCH   1  26
BRANCH   5  28
ATOM     28  C   UNL     1       3.147   5.912  19.805  0.00  0.00    +0.000 C 
BRANCH  28  29
ATOM     29  C   UNL     1       2.396   4.600  19.697  0.00  0.00    +0.000 A 
ATOM     30  C   UNL     1       2.038   3.879  20.845  0.00  0.00    +0.000 A 
ATOM     31  C   UNL     1       1.284   2.708  20.742  0.00  0.00    +0.000 A 
ATOM     32  C   UNL     1       0.875   2.246  19.492  0.00  0.00    +0.000 A 
ATOM     33  C   UNL     1       1.230   2.952  18.344  0.00  0.00    +0.000 A 
ATOM     34  C   UNL     1       1.983   4.120  18.443  0.00  0.00    +0.000 A 
ENDBRANCH  28  29
ENDBRANCH   5  28
TORSDOF 6
ENDMDL
MODEL 3
REMARK VINA RESULT:      -8.2      0.984      1.572
REMARK  Name = 
REMARK  11 active torsions:
REMARK  status: ('A' for Active; 'I' for Inactive)
REMARK    1  A    between atoms: C_1  and  N_2
REMARK    2  A    between atoms: N_2  and  C_3
REMARK    3  A    between atoms: N_2  and  C_4
REMARK    4  A    between atoms: C_8  and  C_9
REMARK    5  A    between atoms: C_9  and  C_10
REMARK    6  A    between atoms: C_19  and  N_20
REMARK    7  A    between atoms: C_21  and  C_23
REMARK    8  A    between atoms: C_26  and  C_27
REMARK    9  A    between atoms: C_27  and  C_28
REMARK   10  A    between atoms: C_27  and  C_29
REMARK   11  A    between atoms: C_27  and  C_30
REMARK                            x       y       z     vdW  Elec       q    Type
REMARK                         _______ _______ _______ _____ _____    ______ ____
ROOT
ATOM      1  C   UNL     1       2.929   5.182  19.385  0.00  0.00    +0.000 A 
ATOM      2  C   UNL     1       3.989   4.369  18.928  0.00  0.00    +0.000 A 
ATOM      3  C   UNL     1       4.872   4.875  17.961  0.00  0.00    +0.000 A 
ATOM      4  N   UNL     1       5.955   4.330  17.328  0.00  0.00    +0.000 N 
ATOM      5  C   UNL     1       6.450   5.250  16.435  0.00  0.00    +0.000 A 
ATOM      6  N   UNL     1       5.753   6.369  16.495  0.00  0.00    +0.000 NA
ATOM      7  C   UNL     1       4.761   6.147  17.421  0.00  0.00    +0.000 A 
ATOM      8  C   UNL     1       3.729   6.983  17.861  0.00  0.00    +0.000 A 
ATOM      9  C   UNL     1       2.844   6.504  18.849  0.00  0.00    +0.000 A 
ATOM     10  H   UNL     1       6.326   3.398  17.474  0.00  0.00    +0.000 HD
ENDROOT
BRANCH   9  11
ATOM     11  N   UNL     1       1.926   7.409  19.426  0.00  0.00    +0.000 N 
ATOM     12  C   UNL     1       1.657   8.665  18.918  0.00  0.00    +0.000 C 
ATOM     13  O   UNL     1       2.105   9.129  17.877  0.00  0.00    +0.000 OA
ATOM     14  H   UNL     1       1.223   6.971  20.009  0.00  0.00    +0.000 HD
BRANCH  12  15
ATOM     15  C   UNL     1       0.686   9.462  19.712  0.00  0.00    +0.000 A 
ATOM     16  C   UNL     1       0.699   9.399  21.106  0.00  0.00    +0.000 A 
ATOM     17  C   UNL     1      -0.103  10.260  21.854  0.00  0.00    +0.000 A 
ATOM     18  C   UNL     1      -0.935  11.211  21.242  0.00  0.00    +0.000 A 
ATOM     19  C   UNL     1      -0.994  11.207  19.831  0.00  0.00    +0.000 A 
ATOM     20  C   UNL     1      -0.181  10.351  19.075  0.00  0.00    +0.000 A 
BRANCH  18  21
ATOM     21  C   UNL     1      -1.674  12.291  22.055  0.00  0.00    +0.000 C 
ATOM     22  C   UNL     1      -2.306  11.750  23.359  0.00  0.00    +0.000 C 
ATOM     23  C   UNL     1      -0.672  13.391  22.463  0.00  0.00    +0.000 C 
ATOM     24  C   UNL     1      -2.808  12.932  21.231  0.00  0.00    +0.000 C 
ENDBRANCH  18  21
ENDBRANCH  12  15
ENDBRANCH   9  11
BRANCH   1  26
ATOM     25  C   UNL     1       2.360   4.375  21.669  0.00  0.00    +0.000 C 
ATOM     26  N   UNL     1       1.964   4.701  20.300  0.00  0.00    +0.000 N 
ATOM     27  C   UNL     1       0.873   3.883  19.747  0.00  0.00    +0.000 C 
ENDBRANCH   1  26
BRANCH   5  28
ATOM     28  C   UNL     1       7.569   4.932  15.494  0.00  0.00    +0.000 C 
BRANCH  28  29
ATOM     29  C   UNL     1       7.122   4.600  14.085  0.00  0.00    +0.000 A 
ATOM     30  C   UNL     1       7.821   5.092  12.973  0.00  0.00    +0.000 A 
ATOM     31  C   UNL     1       7.447   4.723  11.679  0.00  0.00    +0.000 A 
ATOM     32  C   UNL     1       6.374   3.857  11.479  0.00  0.00    +0.000 A 
ATOM     33  C   UNL     1       5.668   3.366  12.577  0.00  0.00    +0.000 A 
ATOM     34  C   UNL     1       6.038   3.733  13.870  0.00  0.00    +0.000 A 
ENDBRANCH  28  29
ENDBRANCH   5  28
TORSDOF 6
ENDMDL
MODEL 4
REMARK VINA RESULT:      -8.2      4.391      7.205
REMARK  Name = 
REMARK  11 active torsions:
REMARK  status: ('A' for Active; 'I' for Inactive)
REMARK    1  A    between atoms: C_1  and  N_2
REMARK    2  A    between atoms: N_2  and  C_3
REMARK    3  A    between atoms: N_2  and  C_4
REMARK    4  A    between atoms: C_8  and  C_9
REMARK    5  A    between atoms: C_9  and  C_10
REMARK    6  A    between atoms: C_19  and  N_20
REMARK    7  A    between atoms: C_21  and  C_23
REMARK    8  A    between atoms: C_26  and  C_27
REMARK    9  A    between atoms: C_27  and  C_28
REMARK   10  A    between atoms: C_27  and  C_29
REMARK   11  A    between atoms: C_27  and  C_30
REMARK                            x       y       z     vdW  Elec       q    Type
REMARK                         _______ _______ _______ _____ _____    ______ ____
ROOT
ATOM      1  C   UNL     1       0.302  11.423  19.497  0.00  0.00    +0.000 A 
ATOM      2  C   UNL     1       1.243  10.586  18.861  0.00  0.00    +0.000 A 
ATOM      3  C   UNL     1       1.466   9.296  19.370  0.00  0.00    +0.000 A 
ATOM      4  N   UNL     1       2.307   8.288  18.987  0.00  0.00    +0.000 N 
ATOM      5  C   UNL     1       2.152   7.233  19.855  0.00  0.00    +0.000 A 
ATOM      6  N   UNL     1       1.225   7.510  20.753  0.00  0.00    +0.000 NA
ATOM      7  C   UNL     1       0.804   8.791  20.477  0.00  0.00    +0.000 A 
ATOM      8  C   UNL     1      -0.145   9.591  21.124  0.00  0.00    +0.000 A 
ATOM      9  C   UNL     1      -0.401  10.881  20.617  0.00  0.00    +0.000 A 
ATOM     10  H   UNL     1       2.953   8.313  18.206  0.00  0.00    +0.000 HD
ENDROOT
BRANCH   9  11
ATOM     11  N   UNL     1      -1.486  11.610  21.150  0.00  0.00    +0.000 N 
ATOM     12  C   UNL     1      -1.475  12.214  22.393  0.00  0.00    +0.000 C 
ATOM     13  O   UNL     1      -0.518  12.268  23.156  0.00  0.00    +0.000 OA
ATOM     14  H   UNL     1      -2.127  11.971  20.454  0.00  0.00    +0.000 HD
BRANCH  12  15
ATOM     15  C   UNL     1      -2.742  12.894  22.766  0.00  0.00    +0.000 A 
ATOM     16  C   UNL     1      -3.160  14.031  22.073  0.00  0.00    +0.000 A 
ATOM     17  C   UNL     1      -4.419  14.577  22.316  0.00  0.00    +0.000 A 
ATOM     18  C   UNL     1      -5.302  14.009  23.248  0.00  0.00    +0.000 A 
ATOM     19  C   UNL     1      -4.832  12.906  23.996  0.00  0.00    +0.000 A 
ATOM     20  C   UNL     1      -3.572  12.347  23.746  0.00  0.00    +0.000 A 
BRANCH  18  21
ATOM     21  C   UNL     1      -6.761  14.486  23.384  0.00  0.00    +0.000 C 
ATOM     22  C   UNL     1      -7.584  13.654  24.396  0.00  0.00    +0.000 C 
ATOM     23  C   UNL     1      -6.771  15.944  23.886  0.00  0.00    +0.000 C 
ATOM     24  C   UNL     1      -7.498  14.419  22.032  0.00  0.00    +0.000 C 
ENDBRANCH  18  21
ENDBRANCH  12  15
ENDBRANCH   9  11
BRANCH   1  26
ATOM     25  C   UNL     1      -0.788  13.031  17.941  0.00  0.00    +0.000 C 
ATOM     26  N   UNL     1       0.090  12.757  19.078  0.00  0.00    +0.000 N 
ATOM     27  C   UNL     1       1.213  13.693  19.247  0.00  0.00    +0.000 C 
ENDBRANCH   1  26
BRANCH   5  28
ATOM     28  C   UNL     1       3.008   6.008  19.789  0.00  0.00    +0.000 C 
BRANCH  28  29
ATOM     29  C   UNL     1       2.231   4.708  19.733  0.00  0.00    +0.000 A 
ATOM     30  C   UNL     1       1.830   4.161  18.505  0.00  0.00    +0.000 A 
ATOM     31  C   UNL     1       1.179   2.926  18.457  0.00  0.00    +0.000 A 
ATOM     32  C   UNL     1       0.923   2.222  19.633  0.00  0.00    +0.000 A 
ATOM     33  C   UNL     1       1.311   2.760  20.859  0.00  0.00    +0.000 A 
ATOM     34  C   UNL     1       1.961   3.992  20.911  0.00  0.00    +0.000 A 
ENDBRANCH  28  29
ENDBRANCH   5  28
TORSDOF 6
ENDMDL
MODEL 5
REMARK VINA RESULT:      -8.2      4.239      6.882
REMARK  Name = 
REMARK  11 active torsions:
REMARK  status: ('A' for Active; 'I' for Inactive)
REMARK    1  A    between atoms: C_1  and  N_2
REMARK    2  A    between atoms: N_2  and  C_3
REMARK    3  A    between atoms: N_2  and  C_4
REMARK    4  A    between atoms: C_8  and  C_9
REMARK    5  A    between atoms: C_9  and  C_10
REMARK    6  A    between atoms: C_19  and  N_20
REMARK    7  A    between atoms: C_21  and  C_23
REMARK    8  A    between atoms: C_26  and  C_27
REMARK    9  A    between atoms: C_27  and  C_28
REMARK   10  A    between atoms: C_27  and  C_29
REMARK   11  A    between atoms: C_27  and  C_30
REMARK                            x       y       z     vdW  Elec       q    Type
REMARK                         _______ _______ _______ _____ _____    ______ ____
ROOT
ATOM      1  C   UNL     1       0.452  11.109  19.050  0.00  0.00    +0.000 A 
ATOM      2  C   UNL     1       1.378  10.245  18.426  0.00  0.00    +0.000 A 
ATOM      3  C   UNL     1       1.661   9.003  19.017  0.00  0.00    +0.000 A 
ATOM      4  N   UNL     1       2.504   7.986  18.665  0.00  0.00    +0.000 N 
ATOM      5  C   UNL     1       2.424   6.998  19.617  0.00  0.00    +0.000 A 
ATOM      6  N   UNL     1       1.540   7.323  20.542  0.00  0.00    +0.000 NA
ATOM      7  C   UNL     1       1.073   8.570  20.195  0.00  0.00    +0.000 A 
ATOM      8  C   UNL     1       0.141   9.397  20.832  0.00  0.00    +0.000 A 
ATOM      9  C   UNL     1      -0.175  10.639  20.244  0.00  0.00    +0.000 A 
ATOM     10  H   UNL     1       3.107   7.965  17.849  0.00  0.00    +0.000 HD
ENDROOT
BRANCH   9  11
ATOM     11  N   UNL     1      -1.247  11.384  20.782  0.00  0.00    +0.000 N 
ATOM     12  C   UNL     1      -1.354  11.734  22.114  0.00  0.00    +0.000 C 
ATOM     13  O   UNL     1      -0.515  11.523  22.981  0.00  0.00    +0.000 OA
ATOM     14  H   UNL     1      -1.743  11.948  20.102  0.00  0.00    +0.000 HD
BRANCH  12  15
ATOM     15  C   UNL     1      -2.588  12.485  22.463  0.00  0.00    +0.000 A 
ATOM     16  C   UNL     1      -3.232  13.265  21.502  0.00  0.00    +0.000 A 
ATOM     17  C   UNL     1      -4.470  13.842  21.781  0.00  0.00    +0.000 A 
ATOM     18  C   UNL     1      -5.106  13.658  23.019  0.00  0.00    +0.000 A 
ATOM     19  C   UNL     1      -4.404  12.932  24.006  0.00  0.00    +0.000 A 
ATOM     20  C   UNL     1      -3.166  12.340  23.726  0.00  0.00    +0.000 A 
BRANCH  18  21
ATOM     21  C   UNL     1      -6.553  14.127  23.269  0.00  0.00    +0.000 C 
ATOM     22  C   UNL     1      -7.328  13.221  24.254  0.00  0.00    +0.000 C 
ATOM     23  C   UNL     1      -6.526  15.542  23.884  0.00  0.00    +0.000 C 
ATOM     24  C   UNL     1      -7.360  14.169  21.957  0.00  0.00    +0.000 C 
ENDBRANCH  18  21
ENDBRANCH  12  15
ENDBRANCH   9  11
BRANCH   1  26
ATOM     25  C   UNL     1       0.802  13.570  19.170  0.00  0.00    +0.000 C 
ATOM     26  N   UNL     1       0.185  12.402  18.544  0.00  0.00    +0.000 N 
ATOM     27  C   UNL     1      -1.151  12.627  17.969  0.00  0.00    +0.000 C 
ENDBRANCH   1  26
BRANCH   5  28
ATOM     28  C   UNL     1       3.305   5.790  19.595  0.00  0.00    +0.000 C 
BRANCH  28  29
ATOM     29  C   UNL     1       2.557   4.473  19.648  0.00  0.00    +0.000 A 
ATOM     30  C   UNL     1       2.289   3.846  20.874  0.00  0.00    +0.000 A 
ATOM     31  C   UNL     1       1.536   2.670  20.920  0.00  0.00    +0.000 A 
ATOM     32  C   UNL     1       1.040   2.109  19.744  0.00  0.00    +0.000 A 
ATOM     33  C   UNL     1       1.306   2.720  18.520  0.00  0.00    +0.000 A 
ATOM     34  C   UNL     1       2.057   3.893  18.470  0.00  0.00    +0.000 A 
ENDBRANCH  28  29
ENDBRANCH   5  28
TORSDOF 6
ENDMDL
MODEL 6
REMARK VINA RESULT:      -8.2      4.004     11.350
REMARK  Name = 
REMARK  11 active torsions:
REMARK  status: ('A' for Active; 'I' for Inactive)
REMARK    1  A    between atoms: C_1  and  N_2
REMARK    2  A    between atoms: N_2  and  C_3
REMARK    3  A    between atoms: N_2  and  C_4
REMARK    4  A    between atoms: C_8  and  C_9
REMARK    5  A    between atoms: C_9  and  C_10
REMARK    6  A    between atoms: C_19  and  N_20
REMARK    7  A    between atoms: C_21  and  C_23
REMARK    8  A    between atoms: C_26  and  C_27
REMARK    9  A    between atoms: C_27  and  C_28
REMARK   10  A    between atoms: C_27  and  C_29
REMARK   11  A    between atoms: C_27  and  C_30
REMARK                            x       y       z     vdW  Elec       q    Type
REMARK                         _______ _______ _______ _____ _____    ______ ____
ROOT
ATOM      1  C   UNL     1      -0.577  11.642  18.951  0.00  0.00    +0.000 A 
ATOM      2  C   UNL     1      -1.740  12.391  19.228  0.00  0.00    +0.000 A 
ATOM      3  C   UNL     1      -2.983  11.920  18.775  0.00  0.00    +0.000 A 
ATOM      4  N   UNL     1      -4.250  12.424  18.874  0.00  0.00    +0.000 N 
ATOM      5  C   UNL     1      -5.113  11.574  18.222  0.00  0.00    +0.000 A 
ATOM      6  N   UNL     1      -4.457  10.533  17.744  0.00  0.00    +0.000 NA
ATOM      7  C   UNL     1      -3.135  10.741  18.061  0.00  0.00    +0.000 A 
ATOM      8  C   UNL     1      -2.003   9.968  17.781  0.00  0.00    +0.000 A 
ATOM      9  C   UNL     1      -0.748  10.411  18.245  0.00  0.00    +0.000 A 
ATOM     10  H   UNL     1      -4.516  13.288  19.331  0.00  0.00    +0.000 HD
ENDROOT
BRANCH   9  11
ATOM     11  N   UNL     1       0.358   9.541  18.127  0.00  0.00    +0.000 N 
ATOM     12  C   UNL     1       0.925   8.863  19.189  0.00  0.00    +0.000 C 
ATOM     13  O   UNL     1       0.509   8.857  20.341  0.00  0.00    +0.000 OA
ATOM     14  H   UNL     1       0.492   9.163  17.197  0.00  0.00    +0.000 HD
BRANCH  12  15
ATOM     15  C   UNL     1       2.107   8.034  18.839  0.00  0.00    +0.000 A 
ATOM     16  C   UNL     1       2.406   6.888  19.578  0.00  0.00    +0.000 A 
ATOM     17  C   UNL     1       3.418   6.027  19.158  0.00  0.00    +0.000 A 
ATOM     18  C   UNL     1       4.157   6.272  17.990  0.00  0.00    +0.000 A 
ATOM     19  C   UNL     1       3.895   7.475  17.298  0.00  0.00    +0.000 A 
ATOM     20  C   UNL     1       2.870   8.338  17.710  0.00  0.00    +0.000 A 
BRANCH  18  21
ATOM     21  C   UNL     1       5.140   5.234  17.414  0.00  0.00    +0.000 C 
ATOM     22  C   UNL     1       5.817   5.694  16.102  0.00  0.00    +0.000 C 
ATOM     23  C   UNL     1       6.267   4.982  18.437  0.00  0.00    +0.000 C 
ATOM     24  C   UNL     1       4.430   3.899  17.117  0.00  0.00    +0.000 C 
ENDBRANCH  18  21
ENDBRANCH  12  15
ENDBRANCH   9  11
BRANCH   1  26
ATOM     25  C   UNL     1       1.061  12.238  20.726  0.00  0.00    +0.000 C 
ATOM     26  N   UNL     1       0.710  12.103  19.314  0.00  0.00    +0.000 N 
ATOM     27  C   UNL     1       1.346  13.074  18.409  0.00  0.00    +0.000 C 
ENDBRANCH   1  26
BRANCH   5  28
ATOM     28  C   UNL     1      -6.564  11.888  18.041  0.00  0.00    +0.000 C 
BRANCH  28  29
ATOM     29  C   UNL     1      -6.874  13.369  17.958  0.00  0.00    +0.000 A 
ATOM     30  C   UNL     1      -7.228  14.096  19.105  0.00  0.00    +0.000 A 
ATOM     31  C   UNL     1      -7.441  15.474  19.034  0.00  0.00    +0.000 A 
ATOM     32  C   UNL     1      -7.301  16.144  17.819  0.00  0.00    +0.000 A 
ATOM     33  C   UNL     1      -6.955  15.430  16.672  0.00  0.00    +0.000 A 
ATOM     34  C   UNL     1      -6.742  14.054  16.740  0.00  0.00    +0.000 A 
ENDBRANCH  28  29
ENDBRANCH   5  28
TORSDOF 6
ENDMDL
MODEL 7
REMARK VINA RESULT:      -8.2      3.926      6.690
REMARK  Name = 
REMARK  11 active torsions:
REMARK  status: ('A' for Active; 'I' for Inactive)
REMARK    1  A    between atoms: C_1  and  N_2
REMARK    2  A    between atoms: N_2  and  C_3
REMARK    3  A    between atoms: N_2  and  C_4
REMARK    4  A    between atoms: C_8  and  C_9
REMARK    5  A    between atoms: C_9  and  C_10
REMARK    6  A    between atoms: C_19  and  N_20
REMARK    7  A    between atoms: C_21  and  C_23
REMARK    8  A    between atoms: C_26  and  C_27
REMARK    9  A    between atoms: C_27  and  C_28
REMARK   10  A    between atoms: C_27  and  C_29
REMARK   11  A    between atoms: C_27  and  C_30
REMARK                            x       y       z     vdW  Elec       q    Type
REMARK                         _______ _______ _______ _____ _____    ______ ____
ROOT
ATOM      1  C   UNL     1       0.306  11.046  19.037  0.00  0.00    +0.000 A 
ATOM      2  C   UNL     1       1.203  10.159  18.404  0.00  0.00    +0.000 A 
ATOM      3  C   UNL     1       1.529   8.948  19.035  0.00  0.00    +0.000 A 
ATOM      4  N   UNL     1       2.360   7.921  18.683  0.00  0.00    +0.000 N 
ATOM      5  C   UNL     1       2.341   6.978  19.683  0.00  0.00    +0.000 A 
ATOM      6  N   UNL     1       1.509   7.342  20.641  0.00  0.00    +0.000 NA
ATOM      7  C   UNL     1       1.012   8.567  20.263  0.00  0.00    +0.000 A 
ATOM      8  C   UNL     1       0.110   9.419  20.913  0.00  0.00    +0.000 A 
ATOM      9  C   UNL     1      -0.249  10.629  20.286  0.00  0.00    +0.000 A 
ATOM     10  H   UNL     1       2.915   7.865  17.836  0.00  0.00    +0.000 HD
ENDROOT
BRANCH   9  11
ATOM     11  N   UNL     1      -1.296  11.392  20.849  0.00  0.00    +0.000 N 
ATOM     12  C   UNL     1      -1.303  11.853  22.151  0.00  0.00    +0.000 C 
ATOM     13  O   UNL     1      -0.390  11.735  22.959  0.00  0.00    +0.000 OA
ATOM     14  H   UNL     1      -1.863  11.884  20.168  0.00  0.00    +0.000 HD
BRANCH  12  15
ATOM     15  C   UNL     1      -2.526  12.601  22.540  0.00  0.00    +0.000 A 
ATOM     16  C   UNL     1      -3.013  13.624  21.724  0.00  0.00    +0.000 A 
ATOM     17  C   UNL     1      -4.241  14.220  22.005  0.00  0.00    +0.000 A 
ATOM     18  C   UNL     1      -5.025  13.816  23.098  0.00  0.00    +0.000 A 
ATOM     19  C   UNL     1      -4.481  12.836  23.956  0.00  0.00    +0.000 A 
ATOM     20  C   UNL     1      -3.252  12.225  23.671  0.00  0.00    +0.000 A 
BRANCH  18  21
ATOM     21  C   UNL     1      -6.463  14.330  23.304  0.00  0.00    +0.000 C 
ATOM     22  C   UNL     1      -7.274  14.423  21.991  0.00  0.00    +0.000 C 
ATOM     23  C   UNL     1      -7.219  13.357  24.232  0.00  0.00    +0.000 C 
ATOM     24  C   UNL     1      -6.467  15.732  23.944  0.00  0.00    +0.000 C 
ENDBRANCH  18  21
ENDBRANCH  12  15
ENDBRANCH   9  11
BRANCH   1  26
ATOM     25  C   UNL     1       0.562  13.521  19.087  0.00  0.00    +0.000 C 
ATOM     26  N   UNL     1      -0.001  12.312  18.488  0.00  0.00    +0.000 N 
ATOM     27  C   UNL     1      -1.335  12.469  17.886  0.00  0.00    +0.000 C 
ENDBRANCH   1  26
BRANCH   5  28
ATOM     28  C   UNL     1       3.230   5.776  19.668  0.00  0.00    +0.000 C 
BRANCH  28  29
ATOM     29  C   UNL     1       2.522   4.482  19.317  0.00  0.00    +0.000 A 
ATOM     30  C   UNL     1       2.831   3.790  18.136  0.00  0.00    +0.000 A 
ATOM     31  C   UNL     1       2.228   2.562  17.855  0.00  0.00    +0.000 A 
ATOM     32  C   UNL     1       1.313   2.009  18.750  0.00  0.00    +0.000 A 
ATOM     33  C   UNL     1       0.995   2.692  19.924  0.00  0.00    +0.000 A 
ATOM     34  C   UNL     1       1.595   3.917  20.207  0.00  0.00    +0.000 A 
ENDBRANCH  28  29
ENDBRANCH   5  28
TORSDOF 6
ENDMDL
MODEL 8
REMARK VINA RESULT:      -8.0      3.512     11.782
REMARK  Name = 
REMARK  11 active torsions:
REMARK  status: ('A' for Active; 'I' for Inactive)
REMARK    1  A    between atoms: C_1  and  N_2
REMARK    2  A    between atoms: N_2  and  C_3
REMARK    3  A    between atoms: N_2  and  C_4
REMARK    4  A    between atoms: C_8  and  C_9
REMARK    5  A    between atoms: C_9  and  C_10
REMARK    6  A    between atoms: C_19  and  N_20
REMARK    7  A    between atoms: C_21  and  C_23
REMARK    8  A    between atoms: C_26  and  C_27
REMARK    9  A    between atoms: C_27  and  C_28
REMARK   10  A    between atoms: C_27  and  C_29
REMARK   11  A    between atoms: C_27  and  C_30
REMARK                            x       y       z     vdW  Elec       q    Type
REMARK                         _______ _______ _______ _____ _____    ______ ____
ROOT
ATOM      1  C   UNL     1       0.198  12.297  19.494  0.00  0.00    +0.000 A 
ATOM      2  C   UNL     1      -0.704  13.262  19.991  0.00  0.00    +0.000 A 
ATOM      3  C   UNL     1      -2.084  13.015  19.910  0.00  0.00    +0.000 A 
ATOM      4  N   UNL     1      -3.174  13.751  20.282  0.00  0.00    +0.000 N 
ATOM      5  C   UNL     1      -4.310  13.054  19.946  0.00  0.00    +0.000 A 
ATOM      6  N   UNL     1      -3.993  11.891  19.409  0.00  0.00    +0.000 NA
ATOM      7  C   UNL     1      -2.619  11.860  19.362  0.00  0.00    +0.000 A 
ATOM      8  C   UNL     1      -1.751  10.877  18.872  0.00  0.00    +0.000 A 
ATOM      9  C   UNL     1      -0.361  11.094  18.964  0.00  0.00    +0.000 A 
ATOM     10  H   UNL     1      -3.157  14.667  20.716  0.00  0.00    +0.000 HD
ENDROOT
BRANCH   9  11
ATOM     11  N   UNL     1       0.509  10.029  18.645  0.00  0.00    +0.000 N 
ATOM     12  C   UNL     1       1.035   9.155  19.577  0.00  0.00    +0.000 C 
ATOM     13  O   UNL     1       0.766   9.133  20.772  0.00  0.00    +0.000 OA
ATOM     14  H   UNL     1       0.447   9.716  17.684  0.00  0.00    +0.000 HD
BRANCH  12  15
ATOM     15  C   UNL     1       1.960   8.134  19.021  0.00  0.00    +0.000 A 
ATOM     16  C   UNL     1       2.610   8.362  17.807  0.00  0.00    +0.000 A 
ATOM     17  C   UNL     1       3.593   7.479  17.362  0.00  0.00    +0.000 A 
ATOM     18  C   UNL     1       3.963   6.350  18.109  0.00  0.00    +0.000 A 
ATOM     19  C   UNL     1       3.241   6.093  19.295  0.00  0.00    +0.000 A 
ATOM     20  C   UNL     1       2.261   6.984  19.753  0.00  0.00    +0.000 A 
BRANCH  18  21
ATOM     21  C   UNL     1       5.176   5.479  17.724  0.00  0.00    +0.000 C 
ATOM     22  C   UNL     1       4.992   4.735  16.381  0.00  0.00    +0.000 C 
ATOM     23  C   UNL     1       6.418   6.381  17.573  0.00  0.00    +0.000 C 
ATOM     24  C   UNL     1       5.461   4.415  18.801  0.00  0.00    +0.000 C 
ENDBRANCH  18  21
ENDBRANCH  12  15
ENDBRANCH   9  11
BRANCH   1  26
ATOM     25  C   UNL     1       2.258  13.053  20.668  0.00  0.00    +0.000 C 
ATOM     26  N   UNL     1       1.595  12.523  19.479  0.00  0.00    +0.000 N 
ATOM     27  C   UNL     1       2.188  12.925  18.193  0.00  0.00    +0.000 C 
ENDBRANCH   1  26
BRANCH   5  28
ATOM     28  C   UNL     1      -5.682  13.628  20.112  0.00  0.00    +0.000 C 
BRANCH  28  29
ATOM     29  C   UNL     1      -6.287  13.408  21.484  0.00  0.00    +0.000 A 
ATOM     30  C   UNL     1      -6.030  14.299  22.535  0.00  0.00    +0.000 A 
ATOM     31  C   UNL     1      -6.649  14.132  23.776  0.00  0.00    +0.000 A 
ATOM     32  C   UNL     1      -7.534  13.074  23.981  0.00  0.00    +0.000 A 
ATOM     33  C   UNL     1      -7.792  12.178  22.944  0.00  0.00    +0.000 A 
ATOM     34  C   UNL     1      -7.176  12.343  21.705  0.00  0.00    +0.000 A 
ENDBRANCH  28  29
ENDBRANCH   5  28
TORSDOF 6
ENDMDL
MODEL 9
REMARK VINA RESULT:      -8.0      3.499     12.068
REMARK  Name = 
REMARK  11 active torsions:
REMARK  status: ('A' for Active; 'I' for Inactive)
REMARK    1  A    between atoms: C_1  and  N_2
REMARK    2  A    between atoms: N_2  and  C_3
REMARK    3  A    between atoms: N_2  and  C_4
REMARK    4  A    between atoms: C_8  and  C_9
REMARK    5  A    between atoms: C_9  and  C_10
REMARK    6  A    between atoms: C_19  and  N_20
REMARK    7  A    between atoms: C_21  and  C_23
REMARK    8  A    between atoms: C_26  and  C_27
REMARK    9  A    between atoms: C_27  and  C_28
REMARK   10  A    between atoms: C_27  and  C_29
REMARK   11  A    between atoms: C_27  and  C_30
REMARK                            x       y       z     vdW  Elec       q    Type
REMARK                         _______ _______ _______ _____ _____    ______ ____
ROOT
ATOM      1  C   UNL     1       0.542  12.525  20.860  0.00  0.00    +0.000 A 
ATOM      2  C   UNL     1      -0.212  13.494  21.556  0.00  0.00    +0.000 A 
ATOM      3  C   UNL     1      -1.270  13.076  22.380  0.00  0.00    +0.000 A 
ATOM      4  N   UNL     1      -2.167  13.765  23.147  0.00  0.00    +0.000 N 
ATOM      5  C   UNL     1      -3.025  12.866  23.735  0.00  0.00    +0.000 A 
ATOM      6  N   UNL     1      -2.692  11.632  23.405  0.00  0.00    +0.000 NA
ATOM      7  C   UNL     1      -1.619  11.746  22.552  0.00  0.00    +0.000 A 
ATOM      8  C   UNL     1      -0.883  10.759  21.886  0.00  0.00    +0.000 A 
ATOM      9  C   UNL     1       0.197  11.155  21.072  0.00  0.00    +0.000 A 
ATOM     10  H   UNL     1      -2.212  14.772  23.254  0.00  0.00    +0.000 HD
ENDROOT
BRANCH   9  11
ATOM     11  N   UNL     1       1.051  10.156  20.555  0.00  0.00    +0.000 N 
ATOM     12  C   UNL     1       0.862   9.532  19.337  0.00  0.00    +0.000 C 
ATOM     13  O   UNL     1      -0.006   9.806  18.517  0.00  0.00    +0.000 OA
ATOM     14  H   UNL     1       1.988  10.170  20.941  0.00  0.00    +0.000 HD
BRANCH  12  15
ATOM     15  C   UNL     1       1.863   8.482  19.014  0.00  0.00    +0.000 A 
ATOM     16  C   UNL     1       2.016   7.376  19.852  0.00  0.00    +0.000 A 
ATOM     17  C   UNL     1       2.839   6.317  19.472  0.00  0.00    +0.000 A 
ATOM     18  C   UNL     1       3.528   6.321  18.249  0.00  0.00    +0.000 A 
ATOM     19  C   UNL     1       3.423   7.482  17.450  0.00  0.00    +0.000 A 
ATOM     20  C   UNL     1       2.588   8.543  17.823  0.00  0.00    +0.000 A 
BRANCH  18  21
ATOM     21  C   UNL     1       4.282   5.079  17.733  0.00  0.00    +0.000 C 
ATOM     22  C   UNL     1       3.354   3.879  17.438  0.00  0.00    +0.000 C 
ATOM     23  C   UNL     1       4.995   5.434  16.412  0.00  0.00    +0.000 C 
ATOM     24  C   UNL     1       5.334   4.603  18.754  0.00  0.00    +0.000 C 
ENDBRANCH  18  21
ENDBRANCH  12  15
ENDBRANCH   9  11
BRANCH   1  26
ATOM     25  C   UNL     1       2.743  13.610  20.446  0.00  0.00    +0.000 C 
ATOM     26  N   UNL     1       1.569  12.889  19.958  0.00  0.00    +0.000 N 
ATOM     27  C   UNL     1       1.160  13.208  18.581  0.00  0.00    +0.000 C 
ENDBRANCH   1  26
BRANCH   5  28
ATOM     28  C   UNL     1      -4.203  13.297  24.550  0.00  0.00    +0.000 C 
BRANCH  28  29
ATOM     29  C   UNL     1      -5.364  13.828  23.734  0.00  0.00    +0.000 A 
ATOM     30  C   UNL     1      -5.628  15.204  23.669  0.00  0.00    +0.000 A 
ATOM     31  C   UNL     1      -6.654  15.693  22.857  0.00  0.00    +0.000 A 
ATOM     32  C   UNL     1      -7.426  14.814  22.099  0.00  0.00    +0.000 A 
ATOM     33  C   UNL     1      -7.176  13.444  22.161  0.00  0.00    +0.000 A 
ATOM     34  C   UNL     1      -6.154  12.953  22.971  0.00  0.00    +0.000 A 
ENDBRANCH  28  29
ENDBRANCH   5  28
TORSDOF 6
ENDMDL
