MODEL 1
REMARK VINA RESULT:      -7.6      0.000      0.000
REMARK  Name = 
REMARK  14 active torsions:
REMARK  status: ('A' for Active; 'I' for Inactive)
REMARK    1  A    between atoms: C_1  and  C_2
REMARK    2  A    between atoms: C_6  and  C_7
REMARK    3  A    between atoms: C_8  and  C_9
REMARK    4  A    between atoms: C_9  and  N_10
REMARK    5  A    between atoms: N_10  and  C_11
REMARK    6  A    between atoms: C_11  and  C_12
REMARK    7  A    between atoms: C_12  and  C_13
REMARK    8  A    between atoms: C_12  and  C_14
REMARK    9  A    between atoms: N_16  and  C_17
REMARK   10  A    between atoms: N_16  and  C_30
REMARK   11  A    between atoms: C_17  and  C_18
REMARK   12  A    between atoms: C_30  and  C_31
REMARK   13  A    between atoms: C_31  and  C_32
REMARK   14  A    between atoms: C_31  and  C_33
REMARK                            x       y       z     vdW  Elec       q    Type
REMARK                         _______ _______ _______ _____ _____    ______ ____
ROOT
ATOM      1  C   UNL     1       1.652  11.407  18.642  0.00  0.00    +0.000 C 
ATOM      2  O   UNL     1       2.562  11.465  17.804  0.00  0.00    +0.000 OA
ATOM      3  N   UNL     1       1.005  10.195  18.894  0.00  0.00    +0.000 N 
ENDROOT
BRANCH   1   4
ATOM      4  C   UNL     1       1.183  12.705  19.349  0.00  0.00    +0.000 C 
ATOM      5  C   UNL     1       0.100  13.330  18.449  0.00  0.00    +0.000 C 
BRANCH   4   6
ATOM      6  C   UNL     1       2.338  13.662  19.751  0.00  0.00    +0.000 C 
BRANCH   6   7
ATOM      7  N   UNL     1       2.549  14.860  18.893  0.00  0.00    +0.000 NA
ATOM      8  H   UNL     1       3.544  15.048  18.772  0.00  0.00    +0.000 HD
BRANCH   7   9
ATOM      9  C   UNL     1       1.901  16.054  19.420  0.00  0.00    +0.000 C 
BRANCH   9  17
ATOM     10  C   UNL     1       2.870  17.216  16.813  0.00  0.00    +0.000 C 
ATOM     11  C   UNL     1       1.463  17.436  17.322  0.00  0.00    +0.000 A 
ATOM     12  C   UNL     1       0.660  18.357  16.635  0.00  0.00    +0.000 A 
ATOM     13  C   UNL     1      -0.630  18.631  17.072  0.00  0.00    +0.000 A 
ATOM     14  C   UNL     1      -1.147  17.955  18.177  0.00  0.00    +0.000 A 
ATOM     15  C   UNL     1      -0.378  17.033  18.889  0.00  0.00    +0.000 A 
ATOM     16  C   UNL     1      -0.952  16.366  20.096  0.00  0.00    +0.000 C 
ATOM     17  C   UNL     1       0.963  16.802  18.496  0.00  0.00    +0.000 A 
ENDBRANCH   9  17
ENDBRANCH   7   9
ENDBRANCH   6   7
ENDBRANCH   4   6
ENDBRANCH   1   4
BRANCH   3  18
ATOM     18  C   UNL     1       1.269   9.086  17.951  0.00  0.00    +0.000 C 
BRANCH  18  19
ATOM     19  C   UNL     1       2.215   7.967  18.349  0.00  0.00    +0.000 A 
ATOM     20  C   UNL     1       2.015   7.052  19.382  0.00  0.00    +0.000 A 
ATOM     21  C   UNL     1       2.920   5.978  19.566  0.00  0.00    +0.000 A 
ATOM     22 CL   UNL     1       2.564   4.852  20.834  0.00  0.00    +0.000 Cl
ATOM     23  C   UNL     1       4.016   5.771  18.700  0.00  0.00    +0.000 A 
ATOM     24  C   UNL     1       4.202   6.681  17.661  0.00  0.00    +0.000 A 
ATOM     25  C   UNL     1       3.369   7.805  17.559  0.00  0.00    +0.000 A 
ATOM     26  O   UNL     1       4.896   6.438  16.506  0.00  0.00    +0.000 OA
ATOM     27  C   UNL     1       6.258   6.073  16.591  0.00  0.00    +0.000 C 
ATOM     28  C   UNL     1       6.490   4.693  17.171  0.00  0.00    +0.000 C 
ATOM     29  C   UNL     1       6.120   4.669  18.640  0.00  0.00    +0.000 C 
ATOM     30  O   UNL     1       4.708   4.598  18.834  0.00  0.00    +0.000 OA
ENDBRANCH  18  19
ENDBRANCH   3  18
BRANCH   3  31
ATOM     31  C   UNL     1      -0.174  10.085  19.756  0.00  0.00    +0.000 C 
BRANCH  31  32
ATOM     32  C   UNL     1       0.117   9.848  21.259  0.00  0.00    +0.000 C 
ATOM     33  C   UNL     1      -0.560  10.953  22.077  0.00  0.00    +0.000 C 
ATOM     34  C   UNL     1      -0.332   8.495  21.820  0.00  0.00    +0.000 C 
ENDBRANCH  31  32
ENDBRANCH   3  31
TORSDOF 9
ENDMDL
MODEL 2
REMARK VINA RESULT:      -7.5      4.418     10.392
REMARK  Name = 
REMARK  14 active torsions:
REMARK  status: ('A' for Active; 'I' for Inactive)
REMARK    1  A    between atoms: C_1  and  C_2
REMARK    2  A    between atoms: C_6  and  C_7
REMARK    3  A    between atoms: C_8  and  C_9
REMARK    4  A    between atoms: C_9  and  N_10
REMARK    5  A    between atoms: N_10  and  C_11
REMARK    6  A    between atoms: C_11  and  C_12
REMARK    7  A    between atoms: C_12  and  C_13
REMARK    8  A    between atoms: C_12  and  C_14
REMARK    9  A    between atoms: N_16  and  C_17
REMARK   10  A    between atoms: N_16  and  C_30
REMARK   11  A    between atoms: C_17  and  C_18
REMARK   12  A    between atoms: C_30  and  C_31
REMARK   13  A    between atoms: C_31  and  C_32
REMARK   14  A    between atoms: C_31  and  C_33
REMARK                            x       y       z     vdW  Elec       q    Type
REMARK                         _______ _______ _______ _____ _____    ______ ____
ROOT
ATOM      1  C   UNL     1       0.418  11.054  18.923  0.00  0.00    +0.000 C 
ATOM      2  O   UNL     1       1.179  12.010  19.124  0.00  0.00    +0.000 OA
ATOM      3  N   UNL     1      -0.961  11.259  18.848  0.00  0.00    +0.000 N 
ENDROOT
BRANCH   1   4
ATOM      4  C   UNL     1       1.002   9.620  18.838  0.00  0.00    +0.000 C 
ATOM      5  C   UNL     1       1.174   9.129  20.289  0.00  0.00    +0.000 C 
BRANCH   4   6
ATOM      6  C   UNL     1       2.269   9.502  17.948  0.00  0.00    +0.000 C 
BRANCH   6   7
ATOM      7  N   UNL     1       2.522   8.182  17.309  0.00  0.00    +0.000 NA
ATOM      8  H   UNL     1       1.670   7.621  17.285  0.00  0.00    +0.000 HD
BRANCH   7   9
ATOM      9  C   UNL     1       3.572   7.423  17.975  0.00  0.00    +0.000 C 
BRANCH   9  17
ATOM     10  C   UNL     1       1.947   5.518  19.653  0.00  0.00    +0.000 C 
ATOM     11  C   UNL     1       2.923   5.038  18.602  0.00  0.00    +0.000 A 
ATOM     12  C   UNL     1       3.195   3.663  18.547  0.00  0.00    +0.000 A 
ATOM     13  C   UNL     1       4.108   3.162  17.627  0.00  0.00    +0.000 A 
ATOM     14  C   UNL     1       4.727   4.025  16.723  0.00  0.00    +0.000 A 
ATOM     15  C   UNL     1       4.484   5.399  16.747  0.00  0.00    +0.000 A 
ATOM     16  C   UNL     1       5.205   6.295  15.794  0.00  0.00    +0.000 C 
ATOM     17  C   UNL     1       3.612   5.929  17.730  0.00  0.00    +0.000 A 
ENDBRANCH   9  17
ENDBRANCH   7   9
ENDBRANCH   6   7
ENDBRANCH   4   6
ENDBRANCH   1   4
BRANCH   3  18
ATOM     18  C   UNL     1      -1.467  12.582  19.272  0.00  0.00    +0.000 C 
BRANCH  18  19
ATOM     19  C   UNL     1      -2.776  12.679  20.036  0.00  0.00    +0.000 A 
ATOM     20  C   UNL     1      -4.053  12.686  19.478  0.00  0.00    +0.000 A 
ATOM     21  C   UNL     1      -5.196  12.654  20.314  0.00  0.00    +0.000 A 
ATOM     22 CL   UNL     1      -6.744  12.603  19.537  0.00  0.00    +0.000 Cl
ATOM     23  C   UNL     1      -5.088  12.574  21.720  0.00  0.00    +0.000 A 
ATOM     24  C   UNL     1      -3.807  12.554  22.270  0.00  0.00    +0.000 A 
ATOM     25  C   UNL     1      -2.686  12.702  21.441  0.00  0.00    +0.000 A 
ATOM     26  O   UNL     1      -3.482  12.061  23.506  0.00  0.00    +0.000 OA
ATOM     27  C   UNL     1      -4.096  12.619  24.648  0.00  0.00    +0.000 C 
ATOM     28  C   UNL     1      -5.572  12.303  24.772  0.00  0.00    +0.000 C 
ATOM     29  C   UNL     1      -6.355  13.007  23.682  0.00  0.00    +0.000 C 
ATOM     30  O   UNL     1      -6.237  12.342  22.425  0.00  0.00    +0.000 OA
ENDBRANCH  18  19
ENDBRANCH   3  18
BRANCH   3  31
ATOM     31  C   UNL     1      -1.926  10.160  18.765  0.00  0.00    +0.000 C 
BRANCH  31  32
ATOM     32  C   UNL     1      -2.533   9.908  17.362  0.00  0.00    +0.000 C 
ATOM     33  C   UNL     1      -4.029   9.610  17.512  0.00  0.00    +0.000 C 
ATOM     34  C   UNL     1      -2.373  11.048  16.351  0.00  0.00    +0.000 C 
ENDBRANCH  31  32
ENDBRANCH   3  31
TORSDOF 9
ENDMDL
MODEL 3
REMARK VINA RESULT:      -7.4      1.003      1.806
REMARK  Name = 
REMARK  14 active torsions:
REMARK  status: ('A' for Active; 'I' for Inactive)
REMARK    1  A    between atoms: C_1  and  C_2
REMARK    2  A    between atoms: C_6  and  C_7
REMARK    3  A    between atoms: C_8  and  C_9
REMARK    4  A    between atoms: C_9  and  N_10
REMARK    5  A    between atoms: N_10  and  C_11
REMARK    6  A    between atoms: C_11  and  C_12
REMARK    7  A    between atoms: C_12  and  C_13
REMARK    8  A    between atoms: C_12  and  C_14
REMARK    9  A    between atoms: N_16  and  C_17
REMARK   10  A    between atoms: N_16  and  C_30
REMARK   11  A    between atoms: C_17  and  C_18
REMARK   12  A    between atoms: C_30  and  C_31
REMARK   13  A    between atoms: C_31  and  C_32
REMARK   14  A    between atoms: C_31  and  C_33
REMARK                            x       y       z     vdW  Elec       q    Type
REMARK                         _______ _______ _______ _____ _____    ______ ____
ROOT
ATOM      1  C   UNL     1       1.749  11.578  18.741  0.00  0.00    +0.000 C 
ATOM      2  O   UNL     1       2.581  11.684  17.831  0.00  0.00    +0.000 OA
ATOM      3  N   UNL     1       1.158  10.342  19.012  0.00  0.00    +0.000 N 
ENDROOT
BRANCH   1   4
ATOM      4  C   UNL     1       1.309  12.843  19.523  0.00  0.00    +0.000 C 
ATOM      5  C   UNL     1       0.587  13.756  18.512  0.00  0.00    +0.000 C 
BRANCH   4   6
ATOM      6  C   UNL     1       2.451  13.523  20.325  0.00  0.00    +0.000 C 
BRANCH   6   7
ATOM      7  N   UNL     1       2.168  14.871  20.890  0.00  0.00    +0.000 NA
ATOM      8  H   UNL     1       1.216  15.164  20.668  0.00  0.00    +0.000 HD
BRANCH   7   9
ATOM      9  C   UNL     1       3.099  15.888  20.420  0.00  0.00    +0.000 C 
BRANCH   9  17
ATOM     10  C   UNL     1       1.103  18.108  20.833  0.00  0.00    +0.000 C 
ATOM     11  C   UNL     1       1.626  17.736  19.464  0.00  0.00    +0.000 A 
ATOM     12  C   UNL     1       1.018  18.335  18.351  0.00  0.00    +0.000 A 
ATOM     13  C   UNL     1       1.428  18.010  17.064  0.00  0.00    +0.000 A 
ATOM     14  C   UNL     1       2.481  17.115  16.876  0.00  0.00    +0.000 A 
ATOM     15  C   UNL     1       3.111  16.497  17.958  0.00  0.00    +0.000 A 
ATOM     16  C   UNL     1       4.201  15.507  17.712  0.00  0.00    +0.000 C 
ATOM     17  C   UNL     1       2.650  16.765  19.270  0.00  0.00    +0.000 A 
ENDBRANCH   9  17
ENDBRANCH   7   9
ENDBRANCH   6   7
ENDBRANCH   4   6
ENDBRANCH   1   4
BRANCH   3  18
ATOM     18  C   UNL     1       1.368   9.266  18.019  0.00  0.00    +0.000 C 
BRANCH  18  19
ATOM     19  C   UNL     1       2.255   8.084  18.365  0.00  0.00    +0.000 A 
ATOM     20  C   UNL     1       2.044   7.173  19.399  0.00  0.00    +0.000 A 
ATOM     21  C   UNL     1       2.883   6.040  19.534  0.00  0.00    +0.000 A 
ATOM     22 CL   UNL     1       2.512   4.928  20.809  0.00  0.00    +0.000 Cl
ATOM     23  C   UNL     1       3.922   5.771  18.616  0.00  0.00    +0.000 A 
ATOM     24  C   UNL     1       4.120   6.678  17.577  0.00  0.00    +0.000 A 
ATOM     25  C   UNL     1       3.359   7.854  17.521  0.00  0.00    +0.000 A 
ATOM     26  O   UNL     1       4.743   6.401  16.389  0.00  0.00    +0.000 OA
ATOM     27  C   UNL     1       6.080   5.946  16.408  0.00  0.00    +0.000 C 
ATOM     28  C   UNL     1       6.248   4.549  16.967  0.00  0.00    +0.000 C 
ATOM     29  C   UNL     1       5.944   4.534  18.452  0.00  0.00    +0.000 C 
ATOM     30  O   UNL     1       4.541   4.554  18.710  0.00  0.00    +0.000 OA
ENDBRANCH  18  19
ENDBRANCH   3  18
BRANCH   3  31
ATOM     31  C   UNL     1       0.060  10.176  19.969  0.00  0.00    +0.000 C 
BRANCH  31  32
ATOM     32  C   UNL     1       0.457  10.272  21.463  0.00  0.00    +0.000 C 
ATOM     33  C   UNL     1      -0.598  11.099  22.206  0.00  0.00    +0.000 C 
ATOM     34  C   UNL     1       0.621   8.937  22.197  0.00  0.00    +0.000 C 
ENDBRANCH  31  32
ENDBRANCH   3  31
TORSDOF 9
ENDMDL
MODEL 4
REMARK VINA RESULT:      -7.4      3.982     10.281
REMARK  Name = 
REMARK  14 active torsions:
REMARK  status: ('A' for Active; 'I' for Inactive)
REMARK    1  A    between atoms: C_1  and  C_2
REMARK    2  A    between atoms: C_6  and  C_7
REMARK    3  A    between atoms: C_8  and  C_9
REMARK    4  A    between atoms: C_9  and  N_10
REMARK    5  A    between atoms: N_10  and  C_11
REMARK    6  A    between atoms: C_11  and  C_12
REMARK    7  A    between atoms: C_12  and  C_13
REMARK    8  A    between atoms: C_12  and  C_14
REMARK    9  A    between atoms: N_16  and  C_17
REMARK   10  A    between atoms: N_16  and  C_30
REMARK   11  A    between atoms: C_17  and  C_18
REMARK   12  A    between atoms: C_30  and  C_31
REMARK   13  A    between atoms: C_31  and  C_32
REMARK   14  A    between atoms: C_31  and  C_33
REMARK                            x       y       z     vdW  Elec       q    Type
REMARK                         _______ _______ _______ _____ _____    ______ ____
ROOT
ATOM      1  C   UNL     1       0.735  10.627  19.620  0.00  0.00    +0.000 C 
ATOM      2  O   UNL     1       0.450   9.821  20.516  0.00  0.00    +0.000 OA
ATOM      3  N   UNL     1       0.715  11.999  19.878  0.00  0.00    +0.000 N 
ENDROOT
BRANCH   1   4
ATOM      4  C   UNL     1       1.033  10.103  18.192  0.00  0.00    +0.000 C 
ATOM      5  C   UNL     1      -0.312   9.632  17.606  0.00  0.00    +0.000 C 
BRANCH   4   6
ATOM      6  C   UNL     1       2.182   9.061  18.124  0.00  0.00    +0.000 C 
BRANCH   6   7
ATOM      7  N   UNL     1       1.791   7.625  18.153  0.00  0.00    +0.000 NA
ATOM      8  H   UNL     1       0.825   7.518  18.464  0.00  0.00    +0.000 HD
BRANCH   7   9
ATOM      9  C   UNL     1       2.656   6.820  19.006  0.00  0.00    +0.000 C 
BRANCH   9  17
ATOM     10  C   UNL     1       4.575   5.963  16.846  0.00  0.00    +0.000 C 
ATOM     11  C   UNL     1       3.658   4.985  17.547  0.00  0.00    +0.000 A 
ATOM     12  C   UNL     1       3.588   3.680  17.037  0.00  0.00    +0.000 A 
ATOM     13  C   UNL     1       2.738   2.744  17.614  0.00  0.00    +0.000 A 
ATOM     14  C   UNL     1       1.981   3.090  18.733  0.00  0.00    +0.000 A 
ATOM     15  C   UNL     1       2.022   4.378  19.268  0.00  0.00    +0.000 A 
ATOM     16  C   UNL     1       1.159   4.721  20.438  0.00  0.00    +0.000 C 
ATOM     17  C   UNL     1       2.828   5.360  18.642  0.00  0.00    +0.000 A 
ENDBRANCH   9  17
ENDBRANCH   7   9
ENDBRANCH   6   7
ENDBRANCH   4   6
ENDBRANCH   1   4
BRANCH   3  18
ATOM     18  C   UNL     1       0.099  12.434  21.150  0.00  0.00    +0.000 C 
BRANCH  18  19
ATOM     19  C   UNL     1      -1.410  12.562  21.252  0.00  0.00    +0.000 A 
ATOM     20  C   UNL     1      -2.307  12.571  20.185  0.00  0.00    +0.000 A 
ATOM     21  C   UNL     1      -3.702  12.570  20.427  0.00  0.00    +0.000 A 
ATOM     22 CL   UNL     1      -4.746  12.520  19.045  0.00  0.00    +0.000 Cl
ATOM     23  C   UNL     1      -4.231  12.517  21.736  0.00  0.00    +0.000 A 
ATOM     24  C   UNL     1      -3.329  12.494  22.798  0.00  0.00    +0.000 A 
ATOM     25  C   UNL     1      -1.953  12.613  22.550  0.00  0.00    +0.000 A 
ATOM     26  O   UNL     1      -3.595  12.024  24.056  0.00  0.00    +0.000 OA
ATOM     27  C   UNL     1      -4.641  12.612  24.799  0.00  0.00    +0.000 C 
ATOM     28  C   UNL     1      -6.024  12.315  24.258  0.00  0.00    +0.000 C 
ATOM     29  C   UNL     1      -6.229  13.005  22.925  0.00  0.00    +0.000 C 
ATOM     30  O   UNL     1      -5.578  12.314  21.860  0.00  0.00    +0.000 OA
ENDBRANCH  18  19
ENDBRANCH   3  18
BRANCH   3  31
ATOM     31  C   UNL     1       0.892  13.009  18.831  0.00  0.00    +0.000 C 
BRANCH  31  32
ATOM     32  C   UNL     1       1.009  14.472  19.327  0.00  0.00    +0.000 C 
ATOM     33  C   UNL     1       2.236  15.121  18.680  0.00  0.00    +0.000 C 
ATOM     34  C   UNL     1      -0.204  15.368  19.056  0.00  0.00    +0.000 C 
ENDBRANCH  31  32
ENDBRANCH   3  31
TORSDOF 9
ENDMDL
MODEL 5
REMARK VINA RESULT:      -7.2      4.175     10.318
REMARK  Name = 
REMARK  14 active torsions:
REMARK  status: ('A' for Active; 'I' for Inactive)
REMARK    1  A    between atoms: C_1  and  C_2
REMARK    2  A    between atoms: C_6  and  C_7
REMARK    3  A    between atoms: C_8  and  C_9
REMARK    4  A    between atoms: C_9  and  N_10
REMARK    5  A    between atoms: N_10  and  C_11
REMARK    6  A    between atoms: C_11  and  C_12
REMARK    7  A    between atoms: C_12  and  C_13
REMARK    8  A    between atoms: C_12  and  C_14
REMARK    9  A    between atoms: N_16  and  C_17
REMARK   10  A    between atoms: N_16  and  C_30
REMARK   11  A    between atoms: C_17  and  C_18
REMARK   12  A    between atoms: C_30  and  C_31
REMARK   13  A    between atoms: C_31  and  C_32
REMARK   14  A    between atoms: C_31  and  C_33
REMARK                            x       y       z     vdW  Elec       q    Type
REMARK                         _______ _______ _______ _____ _____    ______ ____
ROOT
ATOM      1  C   UNL     1       0.378  10.883  19.546  0.00  0.00    +0.000 C 
ATOM      2  O   UNL     1       1.167  11.663  20.097  0.00  0.00    +0.000 OA
ATOM      3  N   UNL     1      -0.755  11.375  18.896  0.00  0.00    +0.000 N 
ENDROOT
BRANCH   1   4
ATOM      4  C   UNL     1       0.617   9.355  19.655  0.00  0.00    +0.000 C 
ATOM      5  C   UNL     1       0.366   8.974  21.128  0.00  0.00    +0.000 C 
BRANCH   4   6
ATOM      6  C   UNL     1       1.976   8.882  19.075  0.00  0.00    +0.000 C 
BRANCH   6   7
ATOM      7  N   UNL     1       1.989   7.569  18.373  0.00  0.00    +0.000 NA
ATOM      8  H   UNL     1       1.097   7.087  18.488  0.00  0.00    +0.000 HD
BRANCH   7   9
ATOM      9  C   UNL     1       3.062   6.695  18.828  0.00  0.00    +0.000 C 
BRANCH   9  17
ATOM     10  C   UNL     1       4.554   5.216  16.666  0.00  0.00    +0.000 C 
ATOM     11  C   UNL     1       3.510   4.546  17.530  0.00  0.00    +0.000 A 
ATOM     12  C   UNL     1       3.112   3.247  17.180  0.00  0.00    +0.000 A 
ATOM     13  C   UNL     1       2.131   2.590  17.912  0.00  0.00    +0.000 A 
ATOM     14  C   UNL     1       1.568   3.206  19.029  0.00  0.00    +0.000 A 
ATOM     15  C   UNL     1       1.935   4.498  19.408  0.00  0.00    +0.000 A 
ATOM     16  C   UNL     1       1.272   5.141  20.582  0.00  0.00    +0.000 C 
ATOM     17  C   UNL     1       2.880   5.205  18.625  0.00  0.00    +0.000 A 
ENDBRANCH   9  17
ENDBRANCH   7   9
ENDBRANCH   6   7
ENDBRANCH   4   6
ENDBRANCH   1   4
BRANCH   3  18
ATOM     18  C   UNL     1      -1.095  12.796  19.121  0.00  0.00    +0.000 C 
BRANCH  18  19
ATOM     19  C   UNL     1      -1.896  13.195  20.348  0.00  0.00    +0.000 A 
ATOM     20  C   UNL     1      -3.219  12.845  20.614  0.00  0.00    +0.000 A 
ATOM     21  C   UNL     1      -3.807  13.179  21.858  0.00  0.00    +0.000 A 
ATOM     22 CL   UNL     1      -5.436  12.653  22.130  0.00  0.00    +0.000 Cl
ATOM     23  C   UNL     1      -3.078  13.832  22.876  0.00  0.00    +0.000 A 
ATOM     24  C   UNL     1      -1.751  14.167  22.608  0.00  0.00    +0.000 A 
ATOM     25  C   UNL     1      -1.215  13.935  21.334  0.00  0.00    +0.000 A 
ATOM     26  O   UNL     1      -0.783  14.391  23.551  0.00  0.00    +0.000 OA
ATOM     27  C   UNL     1      -0.978  15.417  24.501  0.00  0.00    +0.000 C 
ATOM     28  C   UNL     1      -2.070  15.125  25.509  0.00  0.00    +0.000 C 
ATOM     29  C   UNL     1      -3.426  15.131  24.834  0.00  0.00    +0.000 C 
ATOM     30  O   UNL     1      -3.667  13.927  24.107  0.00  0.00    +0.000 OA
ENDBRANCH  18  19
ENDBRANCH   3  18
BRANCH   3  31
ATOM     31  C   UNL     1      -1.805  10.505  18.357  0.00  0.00    +0.000 C 
BRANCH  31  32
ATOM     32  C   UNL     1      -2.571  11.064  17.132  0.00  0.00    +0.000 C 
ATOM     33  C   UNL     1      -2.493  10.046  15.989  0.00  0.00    +0.000 C 
ATOM     34  C   UNL     1      -4.045  11.407  17.366  0.00  0.00    +0.000 C 
ENDBRANCH  31  32
ENDBRANCH   3  31
TORSDOF 9
ENDMDL
MODEL 6
REMARK VINA RESULT:      -7.2      4.329     10.643
REMARK  Name = 
REMARK  14 active torsions:
REMARK  status: ('A' for Active; 'I' for Inactive)
REMARK    1  A    between atoms: C_1  and  C_2
REMARK    2  A    between atoms: C_6  and  C_7
REMARK    3  A    between atoms: C_8  and  C_9
REMARK    4  A    between atoms: C_9  and  N_10
REMARK    5  A    between atoms: N_10  and  C_11
REMARK    6  A    between atoms: C_11  and  C_12
REMARK    7  A    between atoms: C_12  and  C_13
REMARK    8  A    between atoms: C_12  and  C_14
REMARK    9  A    between atoms: N_16  and  C_17
REMARK   10  A    between atoms: N_16  and  C_30
REMARK   11  A    between atoms: C_17  and  C_18
REMARK   12  A    between atoms: C_30  and  C_31
REMARK   13  A    between atoms: C_31  and  C_32
REMARK   14  A    between atoms: C_31  and  C_33
REMARK                            x       y       z     vdW  Elec       q    Type
REMARK                         _______ _______ _______ _____ _____    ______ ____
ROOT
ATOM      1  C   UNL     1       0.671  10.225  20.993  0.00  0.00    +0.000 C 
ATOM      2  O   UNL     1       0.971  10.642  22.120  0.00  0.00    +0.000 OA
ATOM      3  N   UNL     1       0.502  11.120  19.935  0.00  0.00    +0.000 N 
ENDROOT
BRANCH   1   4
ATOM      4  C   UNL     1       0.404   8.711  20.787  0.00  0.00    +0.000 C 
ATOM      5  C   UNL     1      -0.603   8.290  21.875  0.00  0.00    +0.000 C 
BRANCH   4   6
ATOM      6  C   UNL     1       1.689   7.845  20.709  0.00  0.00    +0.000 C 
BRANCH   6   7
ATOM      7  N   UNL     1       1.541   6.392  20.996  0.00  0.00    +0.000 NA
ATOM      8  H   UNL     1       1.432   6.230  21.998  0.00  0.00    +0.000 HD
BRANCH   7   9
ATOM      9  C   UNL     1       2.663   5.601  20.507  0.00  0.00    +0.000 C 
BRANCH   9  17
ATOM     10  C   UNL     1       1.312   3.022  21.284  0.00  0.00    +0.000 C 
ATOM     11  C   UNL     1       1.823   3.276  19.883  0.00  0.00    +0.000 A 
ATOM     12  C   UNL     1       1.819   2.199  18.984  0.00  0.00    +0.000 A 
ATOM     13  C   UNL     1       2.308   2.358  17.694  0.00  0.00    +0.000 A 
ATOM     14  C   UNL     1       2.768   3.606  17.274  0.00  0.00    +0.000 A 
ATOM     15  C   UNL     1       2.790   4.701  18.139  0.00  0.00    +0.000 A 
ATOM     16  C   UNL     1       3.336   6.007  17.665  0.00  0.00    +0.000 C 
ATOM     17  C   UNL     1       2.363   4.531  19.479  0.00  0.00    +0.000 A 
ENDBRANCH   9  17
ENDBRANCH   7   9
ENDBRANCH   6   7
ENDBRANCH   4   6
ENDBRANCH   1   4
BRANCH   3  18
ATOM     18  C   UNL     1       0.438  12.558  20.276  0.00  0.00    +0.000 C 
BRANCH  18  19
ATOM     19  C   UNL     1      -0.694  13.078  21.143  0.00  0.00    +0.000 A 
ATOM     20  C   UNL     1      -2.037  12.715  21.044  0.00  0.00    +0.000 A 
ATOM     21  C   UNL     1      -2.973  13.181  22.000  0.00  0.00    +0.000 A 
ATOM     22 CL   UNL     1      -4.608  12.633  21.838  0.00  0.00    +0.000 Cl
ATOM     23  C   UNL     1      -2.582  13.983  23.095  0.00  0.00    +0.000 A 
ATOM     24  C   UNL     1      -1.236  14.330  23.196  0.00  0.00    +0.000 A 
ATOM     25  C   UNL     1      -0.340  13.961  22.182  0.00  0.00    +0.000 A 
ATOM     26  O   UNL     1      -0.597  14.707  24.347  0.00  0.00    +0.000 OA
ATOM     27  C   UNL     1      -1.067  15.837  25.052  0.00  0.00    +0.000 C 
ATOM     28  C   UNL     1      -2.412  15.633  25.716  0.00  0.00    +0.000 C 
ATOM     29  C   UNL     1      -3.502  15.504  24.671  0.00  0.00    +0.000 C 
ATOM     30  O   UNL     1      -3.515  14.210  24.070  0.00  0.00    +0.000 OA
ENDBRANCH  18  19
ENDBRANCH   3  18
BRANCH   3  31
ATOM     31  C   UNL     1       0.001  10.714  18.619  0.00  0.00    +0.000 C 
BRANCH  31  32
ATOM     32  C   UNL     1      -1.528  10.858  18.413  0.00  0.00    +0.000 C 
ATOM     33  C   UNL     1      -1.793  12.028  17.459  0.00  0.00    +0.000 C 
ATOM     34  C   UNL     1      -2.247   9.622  17.865  0.00  0.00    +0.000 C 
ENDBRANCH  31  32
ENDBRANCH   3  31
TORSDOF 9
ENDMDL
MODEL 7
REMARK VINA RESULT:      -7.1      2.399      4.171
REMARK  Name = 
REMARK  14 active torsions:
REMARK  status: ('A' for Active; 'I' for Inactive)
REMARK    1  A    between atoms: C_1  and  C_2
REMARK    2  A    between atoms: C_6  and  C_7
REMARK    3  A    between atoms: C_8  and  C_9
REMARK    4  A    between atoms: C_9  and  N_10
REMARK    5  A    between atoms: N_10  and  C_11
REMARK    6  A    between atoms: C_11  and  C_12
REMARK    7  A    between atoms: C_12  and  C_13
REMARK    8  A    between atoms: C_12  and  C_14
REMARK    9  A    between atoms: N_16  and  C_17
REMARK   10  A    between atoms: N_16  and  C_30
REMARK   11  A    between atoms: C_17  and  C_18
REMARK   12  A    between atoms: C_30  and  C_31
REMARK   13  A    between atoms: C_31  and  C_32
REMARK   14  A    between atoms: C_31  and  C_33
REMARK                            x       y       z     vdW  Elec       q    Type
REMARK                         _______ _______ _______ _____ _____    ______ ____
ROOT
ATOM      1  C   UNL     1       1.543  11.603  18.703  0.00  0.00    +0.000 C 
ATOM      2  O   UNL     1       2.630  11.674  18.115  0.00  0.00    +0.000 OA
ATOM      3  N   UNL     1       0.813  10.413  18.686  0.00  0.00    +0.000 N 
ENDROOT
BRANCH   1   4
ATOM      4  C   UNL     1       0.963  12.867  19.388  0.00  0.00    +0.000 C 
ATOM      5  C   UNL     1       1.371  14.068  18.512  0.00  0.00    +0.000 C 
BRANCH   4   6
ATOM      6  C   UNL     1       1.323  12.996  20.892  0.00  0.00    +0.000 C 
BRANCH   6   7
ATOM      7  N   UNL     1       0.246  12.690  21.872  0.00  0.00    +0.000 NA
ATOM      8  H   UNL     1      -0.115  11.746  21.731  0.00  0.00    +0.000 HD
BRANCH   7   9
ATOM      9  C   UNL     1      -0.861  13.636  21.809  0.00  0.00    +0.000 C 
BRANCH   9  17
ATOM     10  C   UNL     1      -3.091  12.272  23.309  0.00  0.00    +0.000 C 
ATOM     11  C   UNL     1      -2.504  13.591  23.758  0.00  0.00    +0.000 A 
ATOM     12  C   UNL     1      -3.152  14.268  24.802  0.00  0.00    +0.000 A 
ATOM     13  C   UNL     1      -2.684  15.502  25.238  0.00  0.00    +0.000 A 
ATOM     14  C   UNL     1      -1.538  16.052  24.664  0.00  0.00    +0.000 A 
ATOM     15  C   UNL     1      -0.867  15.410  23.623  0.00  0.00    +0.000 A 
ATOM     16  C   UNL     1       0.328  16.056  23.003  0.00  0.00    +0.000 C 
ATOM     17  C   UNL     1      -1.379  14.188  23.121  0.00  0.00    +0.000 A 
ENDBRANCH   9  17
ENDBRANCH   7   9
ENDBRANCH   6   7
ENDBRANCH   4   6
ENDBRANCH   1   4
BRANCH   3  18
ATOM     18  C   UNL     1       1.257   9.366  17.741  0.00  0.00    +0.000 C 
BRANCH  18  19
ATOM     19  C   UNL     1       2.111   8.214  18.238  0.00  0.00    +0.000 A 
ATOM     20  C   UNL     1       1.816   7.378  19.314  0.00  0.00    +0.000 A 
ATOM     21  C   UNL     1       2.638   6.260  19.595  0.00  0.00    +0.000 A 
ATOM     22 CL   UNL     1       2.164   5.239  20.912  0.00  0.00    +0.000 Cl
ATOM     23  C   UNL     1       3.747   5.929  18.785  0.00  0.00    +0.000 A 
ATOM     24  C   UNL     1       4.029   6.761  17.703  0.00  0.00    +0.000 A 
ATOM     25  C   UNL     1       3.278   7.929  17.503  0.00  0.00    +0.000 A 
ATOM     26  O   UNL     1       4.745   6.404  16.591  0.00  0.00    +0.000 OA
ATOM     27  C   UNL     1       6.075   5.956  16.749  0.00  0.00    +0.000 C 
ATOM     28  C   UNL     1       6.194   4.602  17.416  0.00  0.00    +0.000 C 
ATOM     29  C   UNL     1       5.773   4.691  18.869  0.00  0.00    +0.000 C 
ATOM     30  O   UNL     1       4.354   4.724  19.013  0.00  0.00    +0.000 OA
ENDBRANCH  18  19
ENDBRANCH   3  18
BRANCH   3  31
ATOM     31  C   UNL     1      -0.544  10.303  19.229  0.00  0.00    +0.000 C 
BRANCH  31  32
ATOM     32  C   UNL     1      -1.666  10.912  18.351  0.00  0.00    +0.000 C 
ATOM     33  C   UNL     1      -2.501   9.776  17.751  0.00  0.00    +0.000 C 
ATOM     34  C   UNL     1      -2.618  11.880  19.061  0.00  0.00    +0.000 C 
ENDBRANCH  31  32
ENDBRANCH   3  31
TORSDOF 9
ENDMDL
MODEL 8
REMARK VINA RESULT:      -7.1      4.110     10.593
REMARK  Name = 
REMARK  14 active torsions:
REMARK  status: ('A' for Active; 'I' for Inactive)
REMARK    1  A    between atoms: C_1  and  C_2
REMARK    2  A    between atoms: C_6  and  C_7
REMARK    3  A    between atoms: C_8  and  C_9
REMARK    4  A    between atoms: C_9  and  N_10
REMARK    5  A    between atoms: N_10  and  C_11
REMARK    6  A    between atoms: C_11  and  C_12
REMARK    7  A    between atoms: C_12  and  C_13
REMARK    8  A    between atoms: C_12  and  C_14
REMARK    9  A    between atoms: N_16  and  C_17
REMARK   10  A    between atoms: N_16  and  C_30
REMARK   11  A    between atoms: C_17  and  C_18
REMARK   12  A    between atoms: C_30  and  C_31
REMARK   13  A    between atoms: C_31  and  C_32
REMARK   14  A    between atoms: C_31  and  C_33
REMARK                            x       y       z     vdW  Elec       q    Type
REMARK                         _______ _______ _______ _____ _____    ______ ____
ROOT
ATOM      1  C   UNL     1       1.092  10.118  21.048  0.00  0.00    +0.000 C 
ATOM      2  O   UNL     1       1.496  10.259  22.209  0.00  0.00    +0.000 OA
ATOM      3  N   UNL     1       1.005  11.220  20.195  0.00  0.00    +0.000 N 
ENDROOT
BRANCH   1   4
ATOM      4  C   UNL     1       0.609   8.722  20.574  0.00  0.00    +0.000 C 
ATOM      5  C   UNL     1      -0.391   8.220  21.634  0.00  0.00    +0.000 C 
BRANCH   4   6
ATOM      6  C   UNL     1       1.757   7.735  20.232  0.00  0.00    +0.000 C 
BRANCH   6   7
ATOM      7  N   UNL     1       1.619   6.341  20.734  0.00  0.00    +0.000 NA
ATOM      8  H   UNL     1       1.361   6.335  21.721  0.00  0.00    +0.000 HD
BRANCH   7   9
ATOM      9  C   UNL     1       2.831   5.552  20.555  0.00  0.00    +0.000 C 
BRANCH   9  17
ATOM     10  C   UNL     1       3.649   5.719  17.659  0.00  0.00    +0.000 C 
ATOM     11  C   UNL     1       3.035   4.472  18.255  0.00  0.00    +0.000 A 
ATOM     12  C   UNL     1       2.681   3.438  17.376  0.00  0.00    +0.000 A 
ATOM     13  C   UNL     1       2.081   2.280  17.855  0.00  0.00    +0.000 A 
ATOM     14  C   UNL     1       1.867   2.125  19.224  0.00  0.00    +0.000 A 
ATOM     15  C   UNL     1       2.203   3.131  20.131  0.00  0.00    +0.000 A 
ATOM     16  C   UNL     1       1.913   2.946  21.584  0.00  0.00    +0.000 C 
ATOM     17  C   UNL     1       2.747   4.345  19.644  0.00  0.00    +0.000 A 
ENDBRANCH   9  17
ENDBRANCH   7   9
ENDBRANCH   6   7
ENDBRANCH   4   6
ENDBRANCH   1   4
BRANCH   3  18
ATOM     18  C   UNL     1       1.156  12.557  20.810  0.00  0.00    +0.000 C 
BRANCH  18  19
ATOM     19  C   UNL     1       0.070  13.094  21.725  0.00  0.00    +0.000 A 
ATOM     20  C   UNL     1      -1.046  12.391  22.174  0.00  0.00    +0.000 A 
ATOM     21  C   UNL     1      -1.918  12.972  23.128  0.00  0.00    +0.000 A 
ATOM     22 CL   UNL     1      -3.246  12.006  23.678  0.00  0.00    +0.000 Cl
ATOM     23  C   UNL     1      -1.671  14.247  23.682  0.00  0.00    +0.000 A 
ATOM     24  C   UNL     1      -0.546  14.940  23.238  0.00  0.00    +0.000 A 
ATOM     25  C   UNL     1       0.245  14.404  22.210  0.00  0.00    +0.000 A 
ATOM     26  O   UNL     1       0.092  15.940  23.921  0.00  0.00    +0.000 OA
ATOM     27  C   UNL     1      -0.633  17.100  24.271  0.00  0.00    +0.000 C 
ATOM     28  C   UNL     1      -1.685  16.872  25.335  0.00  0.00    +0.000 C 
ATOM     29  C   UNL     1      -2.809  16.014  24.790  0.00  0.00    +0.000 C 
ATOM     30  O   UNL     1      -2.451  14.633  24.738  0.00  0.00    +0.000 OA
ENDBRANCH  18  19
ENDBRANCH   3  18
BRANCH   3  31
ATOM     31  C   UNL     1       0.395  11.152  18.864  0.00  0.00    +0.000 C 
BRANCH  31  32
ATOM     32  C   UNL     1      -1.154  11.156  18.838  0.00  0.00    +0.000 C 
ATOM     33  C   UNL     1      -1.640  12.528  18.358  0.00  0.00    +0.000 C 
ATOM     34  C   UNL     1      -1.810  10.084  17.962  0.00  0.00    +0.000 C 
ENDBRANCH  31  32
ENDBRANCH   3  31
TORSDOF 9
ENDMDL
MODEL 9
REMARK VINA RESULT:      -7.1      3.279     10.111
REMARK  Name = 
REMARK  14 active torsions:
REMARK  status: ('A' for Active; 'I' for Inactive)
REMARK    1  A    between atoms: C_1  and  C_2
REMARK    2  A    between atoms: C_6  and  C_7
REMARK    3  A    between atoms: C_8  and  C_9
REMARK    4  A    between atoms: C_9  and  N_10
REMARK    5  A    between atoms: N_10  and  C_11
REMARK    6  A    between atoms: C_11  and  C_12
REMARK    7  A    between atoms: C_12  and  C_13
REMARK    8  A    between atoms: C_12  and  C_14
REMARK    9  A    between atoms: N_16  and  C_17
REMARK   10  A    between atoms: N_16  and  C_30
REMARK   11  A    between atoms: C_17  and  C_18
REMARK   12  A    between atoms: C_30  and  C_31
REMARK   13  A    between atoms: C_31  and  C_32
REMARK   14  A    between atoms: C_31  and  C_33
REMARK                            x       y       z     vdW  Elec       q    Type
REMARK                         _______ _______ _______ _____ _____    ______ ____
ROOT
ATOM      1  C   UNL     1       0.429   9.775  18.878  0.00  0.00    +0.000 C 
ATOM      2  O   UNL     1       0.008   9.710  17.716  0.00  0.00    +0.000 OA
ATOM      3  N   UNL     1      -0.270  10.508  19.839  0.00  0.00    +0.000 N 
ENDROOT
BRANCH   1   4
ATOM      4  C   UNL     1       1.781   9.104  19.237  0.00  0.00    +0.000 C 
ATOM      5  C   UNL     1       2.477   8.777  17.902  0.00  0.00    +0.000 C 
BRANCH   4   6
ATOM      6  C   UNL     1       1.656   7.913  20.225  0.00  0.00    +0.000 C 
BRANCH   6   7
ATOM      7  N   UNL     1       2.497   6.717  19.947  0.00  0.00    +0.000 NA
ATOM      8  H   UNL     1       3.380   6.988  19.513  0.00  0.00    +0.000 HD
BRANCH   7   9
ATOM      9  C   UNL     1       1.829   5.740  19.098  0.00  0.00    +0.000 C 
BRANCH   9  17
ATOM     10  C   UNL     1       4.168   5.527  17.208  0.00  0.00    +0.000 C 
ATOM     11  C   UNL     1       3.568   4.318  17.890  0.00  0.00    +0.000 A 
ATOM     12  C   UNL     1       4.012   3.053  17.479  0.00  0.00    +0.000 A 
ATOM     13  C   UNL     1       3.475   1.901  18.041  0.00  0.00    +0.000 A 
ATOM     14  C   UNL     1       2.519   2.002  19.051  0.00  0.00    +0.000 A 
ATOM     15  C   UNL     1       2.049   3.243  19.486  0.00  0.00    +0.000 A 
ATOM     16  C   UNL     1       0.989   3.306  20.536  0.00  0.00    +0.000 C 
ATOM     17  C   UNL     1       2.536   4.420  18.867  0.00  0.00    +0.000 A 
ENDBRANCH   9  17
ENDBRANCH   7   9
ENDBRANCH   6   7
ENDBRANCH   4   6
ENDBRANCH   1   4
BRANCH   3  18
ATOM     18  C   UNL     1      -1.353  11.391  19.352  0.00  0.00    +0.000 C 
BRANCH  18  19
ATOM     19  C   UNL     1      -1.261  12.890  19.575  0.00  0.00    +0.000 A 
ATOM     20  C   UNL     1      -2.086  13.649  20.403  0.00  0.00    +0.000 A 
ATOM     21  C   UNL     1      -1.812  15.022  20.618  0.00  0.00    +0.000 A 
ATOM     22 CL   UNL     1      -2.851  15.876  21.710  0.00  0.00    +0.000 Cl
ATOM     23  C   UNL     1      -0.687  15.654  20.045  0.00  0.00    +0.000 A 
ATOM     24  C   UNL     1       0.142  14.887  19.228  0.00  0.00    +0.000 A 
ATOM     25  C   UNL     1      -0.204  13.560  18.930  0.00  0.00    +0.000 A 
ATOM     26  O   UNL     1       1.453  15.162  18.944  0.00  0.00    +0.000 OA
ATOM     27  C   UNL     1       1.775  16.389  18.324  0.00  0.00    +0.000 C 
ATOM     28  C   UNL     1       1.583  17.599  19.213  0.00  0.00    +0.000 C 
ATOM     29  C   UNL     1       0.109  17.822  19.488  0.00  0.00    +0.000 C 
ATOM     30  O   UNL     1      -0.394  16.921  20.472  0.00  0.00    +0.000 OA
ENDBRANCH  18  19
ENDBRANCH   3  18
BRANCH   3  31
ATOM     31  C   UNL     1       0.247  10.753  21.188  0.00  0.00    +0.000 C 
BRANCH  31  32
ATOM     32  C   UNL     1      -0.678  10.310  22.349  0.00  0.00    +0.000 C 
ATOM     33  C   UNL     1       0.128   9.453  23.330  0.00  0.00    +0.000 C 
ATOM     34  C   UNL     1      -1.346  11.440  23.139  0.00  0.00    +0.000 C 
ENDBRANCH  31  32
ENDBRANCH   3  31
TORSDOF 9
ENDMDL
