MODEL 1
REMARK VINA RESULT:      -8.2      0.000      0.000
REMARK  Name = 
REMARK  5 active torsions:
REMARK  status: ('A' for Active; 'I' for Inactive)
REMARK    1  A    between atoms: C_1  and  C_2
REMARK    2  A    between atoms: C_2  and  C_3
REMARK    3  A    between atoms: C_3  and  C_4
REMARK    4  A    between atoms: C_4  and  C_5
REMARK    5  A    between atoms: C_16  and  C_18
REMARK                            x       y       z     vdW  Elec       q    Type
REMARK                         _______ _______ _______ _____ _____    ______ ____
ROOT
ATOM      1  C   UNL     1       2.148   7.785  19.214  0.00  0.00    +0.000 A 
ATOM      2  C   UNL     1       1.382   7.831  20.364  0.00  0.00    +0.000 A 
ATOM      3  C   UNL     1       1.196   6.650  21.081  0.00  0.00    +0.000 A 
ATOM      4  C   UNL     1       1.774   5.450  20.634  0.00  0.00    +0.000 A 
ATOM      5  C   UNL     1       1.582   4.242  21.319  0.00  0.00    +0.000 A 
ATOM      6  C   UNL     1       2.153   3.066  20.836  0.00  0.00    +0.000 A 
ATOM      7  C   UNL     1       2.923   3.090  19.667  0.00  0.00    +0.000 A 
ATOM      8  C   UNL     1       3.503   1.926  19.136  0.00  0.00    +0.000 A 
ATOM      9  C   UNL     1       4.255   1.988  17.960  0.00  0.00    +0.000 A 
ATOM     10  C   UNL     1       4.422   3.219  17.348  0.00  0.00    +0.000 A 
ATOM     11  N   UNL     1       5.157   3.297  16.153  0.00  0.00    +0.000 N 
ATOM     12  C   UNL     1       5.357   4.480  15.454  0.00  0.00    +0.000 C 
ATOM     13  O   UNL     1       4.998   5.606  15.776  0.00  0.00    +0.000 OA
ATOM     14  N   UNL     1       3.876   4.326  17.859  0.00  0.00    +0.000 NA
ATOM     15  C   UNL     1       3.133   4.301  18.983  0.00  0.00    +0.000 A 
ATOM     16  C   UNL     1       2.558   5.482  19.466  0.00  0.00    +0.000 A 
ATOM     17  N   UNL     1       2.732   6.644  18.798  0.00  0.00    +0.000 NA
ATOM     18  H   UNL     1       5.477   2.432  15.757  0.00  0.00    +0.000 HD
ENDROOT
BRANCH  12  19
ATOM     19  C   UNL     1       6.056   4.362  14.145  0.00  0.00    +0.000 A 
ATOM     20  C   UNL     1       7.185   5.171  13.942  0.00  0.00    +0.000 A 
ATOM     21  C   UNL     1       7.892   5.116  12.742  0.00  0.00    +0.000 A 
ATOM     22  C   UNL     1       7.479   4.244  11.738  0.00  0.00    +0.000 A 
ATOM     23  C   UNL     1       6.371   3.420  11.939  0.00  0.00    +0.000 A 
ATOM     24  C   UNL     1       5.660   3.470  13.142  0.00  0.00    +0.000 A 
ENDBRANCH  12  19
BRANCH   1  25
ATOM     25  C   UNL     1       2.375   8.997  18.347  0.00  0.00    +0.000 C 
BRANCH  25  26
ATOM     26  C   UNL     1       1.058   9.740  18.091  0.00  0.00    +0.000 C 
BRANCH  26  28
ATOM     27  C   UNL     1      -0.240  11.190  19.682  0.00  0.00    +0.000 C 
ATOM     28  C   UNL     1       1.005  11.086  18.813  0.00  0.00    +0.000 C 
ENDBRANCH  26  28
ENDBRANCH  25  26
ENDBRANCH   1  25
TORSDOF 4
ENDMDL
MODEL 2
REMARK VINA RESULT:      -8.2      0.417      1.060
REMARK  Name = 
REMARK  5 active torsions:
REMARK  status: ('A' for Active; 'I' for Inactive)
REMARK    1  A    between atoms: C_1  and  C_2
REMARK    2  A    between atoms: C_2  and  C_3
REMARK    3  A    between atoms: C_3  and  C_4
REMARK    4  A    between atoms: C_4  and  C_5
REMARK    5  A    between atoms: C_16  and  C_18
REMARK                            x       y       z     vdW  Elec       q    Type
REMARK                         _______ _______ _______ _____ _____    ______ ____
ROOT
ATOM      1  C   UNL     1       2.141   7.870  19.216  0.00  0.00    +0.000 A 
ATOM      2  C   UNL     1       1.360   7.913  20.355  0.00  0.00    +0.000 A 
ATOM      3  C   UNL     1       1.163   6.731  21.067  0.00  0.00    +0.000 A 
ATOM      4  C   UNL     1       1.745   5.531  20.624  0.00  0.00    +0.000 A 
ATOM      5  C   UNL     1       1.541   4.321  21.303  0.00  0.00    +0.000 A 
ATOM      6  C   UNL     1       2.116   3.145  20.824  0.00  0.00    +0.000 A 
ATOM      7  C   UNL     1       2.901   3.172  19.665  0.00  0.00    +0.000 A 
ATOM      8  C   UNL     1       3.487   2.008  19.138  0.00  0.00    +0.000 A 
ATOM      9  C   UNL     1       4.254   2.072  17.973  0.00  0.00    +0.000 A 
ATOM     10  C   UNL     1       4.431   3.305  17.367  0.00  0.00    +0.000 A 
ATOM     11  N   UNL     1       5.182   3.385  16.181  0.00  0.00    +0.000 N 
ATOM     12  C   UNL     1       5.393   4.570  15.489  0.00  0.00    +0.000 C 
ATOM     13  O   UNL     1       5.033   5.695  15.810  0.00  0.00    +0.000 OA
ATOM     14  N   UNL     1       3.881   4.411  17.873  0.00  0.00    +0.000 NA
ATOM     15  C   UNL     1       3.123   4.384  18.988  0.00  0.00    +0.000 A 
ATOM     16  C   UNL     1       2.543   5.565  19.466  0.00  0.00    +0.000 A 
ATOM     17  N   UNL     1       2.729   6.729  18.804  0.00  0.00    +0.000 NA
ATOM     18  H   UNL     1       5.505   2.520  15.787  0.00  0.00    +0.000 HD
ENDROOT
BRANCH  12  19
ATOM     19  C   UNL     1       6.110   4.454  14.188  0.00  0.00    +0.000 A 
ATOM     20  C   UNL     1       5.593   3.551  13.246  0.00  0.00    +0.000 A 
ATOM     21  C   UNL     1       6.209   3.388  12.007  0.00  0.00    +0.000 A 
ATOM     22  C   UNL     1       7.343   4.135  11.697  0.00  0.00    +0.000 A 
ATOM     23  C   UNL     1       7.851   5.052  12.618  0.00  0.00    +0.000 A 
ATOM     24  C   UNL     1       7.235   5.220  13.863  0.00  0.00    +0.000 A 
ENDBRANCH  12  19
BRANCH   1  25
ATOM     25  C   UNL     1       2.382   9.084  18.355  0.00  0.00    +0.000 C 
BRANCH  25  26
ATOM     26  C   UNL     1       1.298  10.143  18.591  0.00  0.00    +0.000 C 
BRANCH  26  28
ATOM     27  C   UNL     1      -1.202  10.401  18.575  0.00  0.00    +0.000 C 
ATOM     28  C   UNL     1       0.002   9.815  17.851  0.00  0.00    +0.000 C 
ENDBRANCH  26  28
ENDBRANCH  25  26
ENDBRANCH   1  25
TORSDOF 4
ENDMDL
MODEL 3
REMARK VINA RESULT:      -7.7      2.852      7.688
REMARK  Name = 
REMARK  5 active torsions:
REMARK  status: ('A' for Active; 'I' for Inactive)
REMARK    1  A    between atoms: C_1  and  C_2
REMARK    2  A    between atoms: C_2  and  C_3
REMARK    3  A    between atoms: C_3  and  C_4
REMARK    4  A    between atoms: C_4  and  C_5
REMARK    5  A    between atoms: C_16  and  C_18
REMARK                            x       y       z     vdW  Elec       q    Type
REMARK                         _______ _______ _______ _____ _____    ______ ____
ROOT
ATOM      1  C   UNL     1       5.843   6.299  17.208  0.00  0.00    +0.000 A 
ATOM      2  C   UNL     1       6.530   5.251  16.624  0.00  0.00    +0.000 A 
ATOM      3  C   UNL     1       6.047   3.957  16.814  0.00  0.00    +0.000 A 
ATOM      4  C   UNL     1       4.893   3.736  17.585  0.00  0.00    +0.000 A 
ATOM      5  C   UNL     1       4.400   2.444  17.816  0.00  0.00    +0.000 A 
ATOM      6  C   UNL     1       3.264   2.260  18.602  0.00  0.00    +0.000 A 
ATOM      7  C   UNL     1       2.613   3.366  19.161  0.00  0.00    +0.000 A 
ATOM      8  C   UNL     1       1.475   3.225  19.973  0.00  0.00    +0.000 A 
ATOM      9  C   UNL     1       0.858   4.352  20.522  0.00  0.00    +0.000 A 
ATOM     10  C   UNL     1       1.387   5.599  20.234  0.00  0.00    +0.000 A 
ATOM     11  N   UNL     1       0.793   6.742  20.796  0.00  0.00    +0.000 N 
ATOM     12  C   UNL     1       1.266   8.030  20.586  0.00  0.00    +0.000 C 
ATOM     13  O   UNL     1       2.194   8.376  19.864  0.00  0.00    +0.000 OA
ATOM     14  N   UNL     1       2.464   5.731  19.456  0.00  0.00    +0.000 NA
ATOM     15  C   UNL     1       3.092   4.666  18.920  0.00  0.00    +0.000 A 
ATOM     16  C   UNL     1       4.234   4.852  18.133  0.00  0.00    +0.000 A 
ATOM     17  N   UNL     1       4.718   6.097  17.921  0.00  0.00    +0.000 NA
ATOM     18  H   UNL     1       0.041   6.593  21.443  0.00  0.00    +0.000 HD
ENDROOT
BRANCH  12  19
ATOM     19  C   UNL     1       0.591   9.114  21.354  0.00  0.00    +0.000 A 
ATOM     20  C   UNL     1       0.620  10.405  20.806  0.00  0.00    +0.000 A 
ATOM     21  C   UNL     1       0.010  11.470  21.467  0.00  0.00    +0.000 A 
ATOM     22  C   UNL     1      -0.641  11.249  22.678  0.00  0.00    +0.000 A 
ATOM     23  C   UNL     1      -0.694   9.964  23.219  0.00  0.00    +0.000 A 
ATOM     24  C   UNL     1      -0.085   8.891  22.559  0.00  0.00    +0.000 A 
ENDBRANCH  12  19
BRANCH   1  25
ATOM     25  C   UNL     1       6.306   7.729  17.097  0.00  0.00    +0.000 C 
BRANCH  25  26
ATOM     26  C   UNL     1       7.710   7.896  17.691  0.00  0.00    +0.000 C 
BRANCH  26  28
ATOM     27  C   UNL     1       9.041   9.595  18.979  0.00  0.00    +0.000 C 
ATOM     28  C   UNL     1       8.124   9.364  17.786  0.00  0.00    +0.000 C 
ENDBRANCH  26  28
ENDBRANCH  25  26
ENDBRANCH   1  25
TORSDOF 4
ENDMDL
MODEL 4
REMARK VINA RESULT:      -7.7      2.302      7.533
REMARK  Name = 
REMARK  5 active torsions:
REMARK  status: ('A' for Active; 'I' for Inactive)
REMARK    1  A    between atoms: C_1  and  C_2
REMARK    2  A    between atoms: C_2  and  C_3
REMARK    3  A    between atoms: C_3  and  C_4
REMARK    4  A    between atoms: C_4  and  C_5
REMARK    5  A    between atoms: C_16  and  C_18
REMARK                            x       y       z     vdW  Elec       q    Type
REMARK                         _______ _______ _______ _____ _____    ______ ____
ROOT
ATOM      1  C   UNL     1       5.156   5.564  16.481  0.00  0.00    +0.000 A 
ATOM      2  C   UNL     1       5.748   4.455  15.904  0.00  0.00    +0.000 A 
ATOM      3  C   UNL     1       5.342   3.192  16.333  0.00  0.00    +0.000 A 
ATOM      4  C   UNL     1       4.360   3.062  17.330  0.00  0.00    +0.000 A 
ATOM      5  C   UNL     1       3.952   1.807  17.801  0.00  0.00    +0.000 A 
ATOM      6  C   UNL     1       2.990   1.715  18.806  0.00  0.00    +0.000 A 
ATOM      7  C   UNL     1       2.427   2.879  19.344  0.00  0.00    +0.000 A 
ATOM      8  C   UNL     1       1.467   2.834  20.369  0.00  0.00    +0.000 A 
ATOM      9  C   UNL     1       0.937   4.017  20.888  0.00  0.00    +0.000 A 
ATOM     10  C   UNL     1       1.370   5.222  20.360  0.00  0.00    +0.000 A 
ATOM     11  N   UNL     1       0.864   6.423  20.886  0.00  0.00    +0.000 N 
ATOM     12  C   UNL     1       1.255   7.678  20.439  0.00  0.00    +0.000 C 
ATOM     13  O   UNL     1       2.021   7.937  19.519  0.00  0.00    +0.000 OA
ATOM     14  N   UNL     1       2.277   5.262  19.381  0.00  0.00    +0.000 NA
ATOM     15  C   UNL     1       2.820   4.142  18.865  0.00  0.00    +0.000 A 
ATOM     16  C   UNL     1       3.788   4.235  17.858  0.00  0.00    +0.000 A 
ATOM     17  N   UNL     1       4.191   5.446  17.414  0.00  0.00    +0.000 NA
ATOM     18  H   UNL     1       0.250   6.351  21.677  0.00  0.00    +0.000 HD
ENDROOT
BRANCH  12  19
ATOM     19  C   UNL     1       0.710   8.844  21.188  0.00  0.00    +0.000 A 
ATOM     20  C   UNL     1       0.784  10.100  20.568  0.00  0.00    +0.000 A 
ATOM     21  C   UNL     1       0.295  11.238  21.206  0.00  0.00    +0.000 A 
ATOM     22  C   UNL     1      -0.282  11.126  22.469  0.00  0.00    +0.000 A 
ATOM     23  C   UNL     1      -0.380   9.877  23.085  0.00  0.00    +0.000 A 
ATOM     24  C   UNL     1       0.108   8.732  22.447  0.00  0.00    +0.000 A 
ENDBRANCH  12  19
BRANCH   1  25
ATOM     25  C   UNL     1       5.553   6.971  16.116  0.00  0.00    +0.000 C 
BRANCH  25  26
ATOM     26  C   UNL     1       6.197   7.684  17.311  0.00  0.00    +0.000 C 
BRANCH  26  28
ATOM     27  C   UNL     1       7.793   6.311  18.684  0.00  0.00    +0.000 C 
ATOM     28  C   UNL     1       7.655   7.271  17.511  0.00  0.00    +0.000 C 
ENDBRANCH  26  28
ENDBRANCH  25  26
ENDBRANCH   1  25
TORSDOF 4
ENDMDL
MODEL 5
REMARK VINA RESULT:      -7.6      8.836     12.572
REMARK  Name = 
REMARK  5 active torsions:
REMARK  status: ('A' for Active; 'I' for Inactive)
REMARK    1  A    between atoms: C_1  and  C_2
REMARK    2  A    between atoms: C_2  and  C_3
REMARK    3  A    between atoms: C_3  and  C_4
REMARK    4  A    between atoms: C_4  and  C_5
REMARK    5  A    between atoms: C_16  and  C_18
REMARK                            x       y       z     vdW  Elec       q    Type
REMARK                         _______ _______ _______ _____ _____    ______ ____
ROOT
ATOM      1  C   UNL     1       9.581  10.781  18.924  0.00  0.00    +0.000 A 
ATOM      2  C   UNL     1      10.270  11.220  17.809  0.00  0.00    +0.000 A 
ATOM      3  C   UNL     1      10.823  12.499  17.835  0.00  0.00    +0.000 A 
ATOM      4  C   UNL     1      10.673  13.314  18.970  0.00  0.00    +0.000 A 
ATOM      5  C   UNL     1      11.194  14.615  19.015  0.00  0.00    +0.000 A 
ATOM      6  C   UNL     1      11.009  15.403  20.149  0.00  0.00    +0.000 A 
ATOM      7  C   UNL     1      10.305  14.896  21.247  0.00  0.00    +0.000 A 
ATOM      8  C   UNL     1      10.080  15.662  22.404  0.00  0.00    +0.000 A 
ATOM      9  C   UNL     1       9.362  15.125  23.475  0.00  0.00    +0.000 A 
ATOM     10  C   UNL     1       8.895  13.825  23.370  0.00  0.00    +0.000 A 
ATOM     11  N   UNL     1       8.152  13.276  24.429  0.00  0.00    +0.000 N 
ATOM     12  C   UNL     1       7.622  11.993  24.406  0.00  0.00    +0.000 C 
ATOM     13  O   UNL     1       7.757  11.146  23.532  0.00  0.00    +0.000 OA
ATOM     14  N   UNL     1       9.116  13.096  22.273  0.00  0.00    +0.000 NA
ATOM     15  C   UNL     1       9.792  13.586  21.216  0.00  0.00    +0.000 A 
ATOM     16  C   UNL     1       9.975  12.795  20.076  0.00  0.00    +0.000 A 
ATOM     17  N   UNL     1       9.461  11.545  20.028  0.00  0.00    +0.000 NA
ATOM     18  H   UNL     1       7.935  13.885  25.197  0.00  0.00    +0.000 HD
ENDROOT
BRANCH  12  19
ATOM     19  C   UNL     1       6.759  11.616  25.560  0.00  0.00    +0.000 A 
ATOM     20  C   UNL     1       7.211  11.962  26.843  0.00  0.00    +0.000 A 
ATOM     21  C   UNL     1       6.459  11.643  27.972  0.00  0.00    +0.000 A 
ATOM     22  C   UNL     1       5.243  10.980  27.825  0.00  0.00    +0.000 A 
ATOM     23  C   UNL     1       4.774  10.652  26.552  0.00  0.00    +0.000 A 
ATOM     24  C   UNL     1       5.525  10.972  25.416  0.00  0.00    +0.000 A 
ENDBRANCH  12  19
BRANCH   1  25
ATOM     25  C   UNL     1       8.912   9.431  18.980  0.00  0.00    +0.000 C 
BRANCH  25  26
ATOM     26  C   UNL     1       7.998   9.224  17.766  0.00  0.00    +0.000 C 
BRANCH  26  28
ATOM     27  C   UNL     1       8.118   6.900  18.717  0.00  0.00    +0.000 C 
ATOM     28  C   UNL     1       7.675   7.749  17.534  0.00  0.00    +0.000 C 
ENDBRANCH  26  28
ENDBRANCH  25  26
ENDBRANCH   1  25
TORSDOF 4
ENDMDL
MODEL 6
REMARK VINA RESULT:      -7.5      3.374      6.767
REMARK  Name = 
REMARK  5 active torsions:
REMARK  status: ('A' for Active; 'I' for Inactive)
REMARK    1  A    between atoms: C_1  and  C_2
REMARK    2  A    between atoms: C_2  and  C_3
REMARK    3  A    between atoms: C_3  and  C_4
REMARK    4  A    between atoms: C_4  and  C_5
REMARK    5  A    between atoms: C_16  and  C_18
REMARK                            x       y       z     vdW  Elec       q    Type
REMARK                         _______ _______ _______ _____ _____    ______ ____
ROOT
ATOM      1  C   UNL     1      -2.240  11.735  18.224  0.00  0.00    +0.000 A 
ATOM      2  C   UNL     1      -3.117  12.584  18.873  0.00  0.00    +0.000 A 
ATOM      3  C   UNL     1      -3.057  12.659  20.264  0.00  0.00    +0.000 A 
ATOM      4  C   UNL     1      -2.128  11.881  20.977  0.00  0.00    +0.000 A 
ATOM      5  C   UNL     1      -2.064  11.914  22.377  0.00  0.00    +0.000 A 
ATOM      6  C   UNL     1      -1.144  11.114  23.053  0.00  0.00    +0.000 A 
ATOM      7  C   UNL     1      -0.281  10.278  22.334  0.00  0.00    +0.000 A 
ATOM      8  C   UNL     1       0.650   9.443  22.975  0.00  0.00    +0.000 A 
ATOM      9  C   UNL     1       1.486   8.614  22.224  0.00  0.00    +0.000 A 
ATOM     10  C   UNL     1       1.382   8.650  20.843  0.00  0.00    +0.000 A 
ATOM     11  N   UNL     1       2.200   7.807  20.072  0.00  0.00    +0.000 N 
ATOM     12  C   UNL     1       2.151   7.753  18.686  0.00  0.00    +0.000 C 
ATOM     13  O   UNL     1       1.467   8.439  17.936  0.00  0.00    +0.000 OA
ATOM     14  N   UNL     1       0.503   9.450  20.235  0.00  0.00    +0.000 NA
ATOM     15  C   UNL     1      -0.330  10.252  20.928  0.00  0.00    +0.000 A 
ATOM     16  C   UNL     1      -1.255  11.053  20.249  0.00  0.00    +0.000 A 
ATOM     17  N   UNL     1      -1.326  11.011  18.899  0.00  0.00    +0.000 NA
ATOM     18  H   UNL     1       2.786   7.160  20.569  0.00  0.00    +0.000 HD
ENDROOT
BRANCH  12  19
ATOM     19  C   UNL     1       3.002   6.718  18.036  0.00  0.00    +0.000 A 
ATOM     20  C   UNL     1       2.556   5.388  18.093  0.00  0.00    +0.000 A 
ATOM     21  C   UNL     1       3.297   4.364  17.507  0.00  0.00    +0.000 A 
ATOM     22  C   UNL     1       4.489   4.663  16.852  0.00  0.00    +0.000 A 
ATOM     23  C   UNL     1       4.930   5.985  16.770  0.00  0.00    +0.000 A 
ATOM     24  C   UNL     1       4.187   7.017  17.355  0.00  0.00    +0.000 A 
ENDBRANCH  12  19
BRANCH   1  25
ATOM     25  C   UNL     1      -2.253  11.553  16.728  0.00  0.00    +0.000 C 
BRANCH  25  26
ATOM     26  C   UNL     1      -3.167  10.390  16.326  0.00  0.00    +0.000 C 
BRANCH  26  28
ATOM     27  C   UNL     1      -3.935  10.024  13.961  0.00  0.00    +0.000 C 
ATOM     28  C   UNL     1      -2.804   9.816  14.958  0.00  0.00    +0.000 C 
ENDBRANCH  26  28
ENDBRANCH  25  26
ENDBRANCH   1  25
TORSDOF 4
ENDMDL
MODEL 7
REMARK VINA RESULT:      -7.4      2.404      7.652
REMARK  Name = 
REMARK  5 active torsions:
REMARK  status: ('A' for Active; 'I' for Inactive)
REMARK    1  A    between atoms: C_1  and  C_2
REMARK    2  A    between atoms: C_2  and  C_3
REMARK    3  A    between atoms: C_3  and  C_4
REMARK    4  A    between atoms: C_4  and  C_5
REMARK    5  A    between atoms: C_16  and  C_18
REMARK                            x       y       z     vdW  Elec       q    Type
REMARK                         _______ _______ _______ _____ _____    ______ ____
ROOT
ATOM      1  C   UNL     1       5.461   5.663  16.798  0.00  0.00    +0.000 A 
ATOM      2  C   UNL     1       6.059   4.551  16.235  0.00  0.00    +0.000 A 
ATOM      3  C   UNL     1       5.552   3.293  16.559  0.00  0.00    +0.000 A 
ATOM      4  C   UNL     1       4.463   3.172  17.440  0.00  0.00    +0.000 A 
ATOM      5  C   UNL     1       3.950   1.920  17.806  0.00  0.00    +0.000 A 
ATOM      6  C   UNL     1       2.882   1.835  18.698  0.00  0.00    +0.000 A 
ATOM      7  C   UNL     1       2.319   3.002  19.228  0.00  0.00    +0.000 A 
ATOM      8  C   UNL     1       1.253   2.964  20.143  0.00  0.00    +0.000 A 
ATOM      9  C   UNL     1       0.725   4.149  20.659  0.00  0.00    +0.000 A 
ATOM     10  C   UNL     1       1.268   5.351  20.236  0.00  0.00    +0.000 A 
ATOM     11  N   UNL     1       0.764   6.553  20.762  0.00  0.00    +0.000 N 
ATOM     12  C   UNL     1       1.259   7.805  20.418  0.00  0.00    +0.000 C 
ATOM     13  O   UNL     1       2.130   8.063  19.597  0.00  0.00    +0.000 OA
ATOM     14  N   UNL     1       2.275   5.387  19.361  0.00  0.00    +0.000 NA
ATOM     15  C   UNL     1       2.819   4.263  18.853  0.00  0.00    +0.000 A 
ATOM     16  C   UNL     1       3.893   4.348  17.960  0.00  0.00    +0.000 A 
ATOM     17  N   UNL     1       4.396   5.555  17.617  0.00  0.00    +0.000 NA
ATOM     18  H   UNL     1       0.066   6.480  21.480  0.00  0.00    +0.000 HD
ENDROOT
BRANCH  12  19
ATOM     19  C   UNL     1       0.690   8.964  21.160  0.00  0.00    +0.000 A 
ATOM     20  C   UNL     1       0.107   8.707  22.411  0.00  0.00    +0.000 A 
ATOM     21  C   UNL     1      -0.445   9.741  23.164  0.00  0.00    +0.000 A 
ATOM     22  C   UNL     1      -0.412  11.044  22.674  0.00  0.00    +0.000 A 
ATOM     23  C   UNL     1       0.186  11.314  21.442  0.00  0.00    +0.000 A 
ATOM     24  C   UNL     1       0.743  10.279  20.684  0.00  0.00    +0.000 A 
ENDBRANCH  12  19
BRANCH   1  25
ATOM     25  C   UNL     1       5.959   7.063  16.543  0.00  0.00    +0.000 C 
BRANCH  25  26
ATOM     26  C   UNL     1       7.473   7.153  16.771  0.00  0.00    +0.000 C 
BRANCH  26  28
ATOM     27  C   UNL     1       7.976   6.138  19.015  0.00  0.00    +0.000 C 
ATOM     28  C   UNL     1       7.820   7.434  18.232  0.00  0.00    +0.000 C 
ENDBRANCH  26  28
ENDBRANCH  25  26
ENDBRANCH   1  25
TORSDOF 4
ENDMDL
MODEL 8
REMARK VINA RESULT:      -7.4      8.813     12.598
REMARK  Name = 
REMARK  5 active torsions:
REMARK  status: ('A' for Active; 'I' for Inactive)
REMARK    1  A    between atoms: C_1  and  C_2
REMARK    2  A    between atoms: C_2  and  C_3
REMARK    3  A    between atoms: C_3  and  C_4
REMARK    4  A    between atoms: C_4  and  C_5
REMARK    5  A    between atoms: C_16  and  C_18
REMARK                            x       y       z     vdW  Elec       q    Type
REMARK                         _______ _______ _______ _____ _____    ______ ____
ROOT
ATOM      1  C   UNL     1       9.544  10.766  19.002  0.00  0.00    +0.000 A 
ATOM      2  C   UNL     1      10.194  11.189  17.858  0.00  0.00    +0.000 A 
ATOM      3  C   UNL     1      10.707  12.485  17.830  0.00  0.00    +0.000 A 
ATOM      4  C   UNL     1      10.557  13.332  18.942  0.00  0.00    +0.000 A 
ATOM      5  C   UNL     1      11.037  14.649  18.932  0.00  0.00    +0.000 A 
ATOM      6  C   UNL     1      10.853  15.468  20.045  0.00  0.00    +0.000 A 
ATOM      7  C   UNL     1      10.189  14.975  21.175  0.00  0.00    +0.000 A 
ATOM      8  C   UNL     1       9.967  15.770  22.312  0.00  0.00    +0.000 A 
ATOM      9  C   UNL     1       9.291  15.247  23.416  0.00  0.00    +0.000 A 
ATOM     10  C   UNL     1       8.863  13.930  23.364  0.00  0.00    +0.000 A 
ATOM     11  N   UNL     1       8.161  13.393  24.457  0.00  0.00    +0.000 N 
ATOM     12  C   UNL     1       7.672  12.094  24.487  0.00  0.00    +0.000 C 
ATOM     13  O   UNL     1       7.814  11.223  23.638  0.00  0.00    +0.000 OA
ATOM     14  N   UNL     1       9.082  13.173  22.286  0.00  0.00    +0.000 NA
ATOM     15  C   UNL     1       9.718  13.650  21.197  0.00  0.00    +0.000 A 
ATOM     16  C   UNL     1       9.900  12.827  20.080  0.00  0.00    +0.000 A 
ATOM     17  N   UNL     1       9.425  11.561  20.083  0.00  0.00    +0.000 NA
ATOM     18  H   UNL     1       7.942  14.020  25.210  0.00  0.00    +0.000 HD
ENDROOT
BRANCH  12  19
ATOM     19  C   UNL     1       6.848  11.728  25.673  0.00  0.00    +0.000 A 
ATOM     20  C   UNL     1       5.654  11.029  25.437  0.00  0.00    +0.000 A 
ATOM     21  C   UNL     1       4.831  10.651  26.495  0.00  0.00    +0.000 A 
ATOM     22  C   UNL     1       5.200  10.964  27.801  0.00  0.00    +0.000 A 
ATOM     23  C   UNL     1       6.396  11.640  28.048  0.00  0.00    +0.000 A 
ATOM     24  C   UNL     1       7.227  12.019  26.988  0.00  0.00    +0.000 A 
ENDBRANCH  12  19
BRANCH   1  25
ATOM     25  C   UNL     1       8.920   9.399  19.117  0.00  0.00    +0.000 C 
BRANCH  25  26
ATOM     26  C   UNL     1       8.123   9.055  17.853  0.00  0.00    +0.000 C 
BRANCH  26  28
ATOM     27  C   UNL     1       6.439   7.289  17.249  0.00  0.00    +0.000 C 
ATOM     28  C   UNL     1       7.859   7.555  17.728  0.00  0.00    +0.000 C 
ENDBRANCH  26  28
ENDBRANCH  25  26
ENDBRANCH   1  25
TORSDOF 4
ENDMDL
MODEL 9
REMARK VINA RESULT:      -7.4      3.914      7.629
REMARK  Name = 
REMARK  5 active torsions:
REMARK  status: ('A' for Active; 'I' for Inactive)
REMARK    1  A    between atoms: C_1  and  C_2
REMARK    2  A    between atoms: C_2  and  C_3
REMARK    3  A    between atoms: C_3  and  C_4
REMARK    4  A    between atoms: C_4  and  C_5
REMARK    5  A    between atoms: C_16  and  C_18
REMARK                            x       y       z     vdW  Elec       q    Type
REMARK                         _______ _______ _______ _____ _____    ______ ____
ROOT
ATOM      1  C   UNL     1      -3.015  10.535  16.413  0.00  0.00    +0.000 A 
ATOM      2  C   UNL     1      -4.090  11.379  16.621  0.00  0.00    +0.000 A 
ATOM      3  C   UNL     1      -4.175  12.052  17.839  0.00  0.00    +0.000 A 
ATOM      4  C   UNL     1      -3.189  11.865  18.824  0.00  0.00    +0.000 A 
ATOM      5  C   UNL     1      -3.263  12.507  20.068  0.00  0.00    +0.000 A 
ATOM      6  C   UNL     1      -2.279  12.283  21.029  0.00  0.00    +0.000 A 
ATOM      7  C   UNL     1      -1.213  11.419  20.752  0.00  0.00    +0.000 A 
ATOM      8  C   UNL     1      -0.208  11.152  21.697  0.00  0.00    +0.000 A 
ATOM      9  C   UNL     1       0.834  10.275  21.387  0.00  0.00    +0.000 A 
ATOM     10  C   UNL     1       0.855   9.693  20.130  0.00  0.00    +0.000 A 
ATOM     11  N   UNL     1       1.884   8.791  19.809  0.00  0.00    +0.000 N 
ATOM     12  C   UNL     1       1.975   8.140  18.586  0.00  0.00    +0.000 C 
ATOM     13  O   UNL     1       1.249   8.281  17.610  0.00  0.00    +0.000 OA
ATOM     14  N   UNL     1      -0.097   9.954  19.231  0.00  0.00    +0.000 NA
ATOM     15  C   UNL     1      -1.124  10.784  19.500  0.00  0.00    +0.000 A 
ATOM     16  C   UNL     1      -2.113  11.006  18.535  0.00  0.00    +0.000 A 
ATOM     17  N   UNL     1      -2.049  10.377  17.340  0.00  0.00    +0.000 NA
ATOM     18  H   UNL     1       2.529   8.556  20.541  0.00  0.00    +0.000 HD
ENDROOT
BRANCH  12  19
ATOM     19  C   UNL     1       3.059   7.127  18.458  0.00  0.00    +0.000 A 
ATOM     20  C   UNL     1       3.943   7.262  17.376  0.00  0.00    +0.000 A 
ATOM     21  C   UNL     1       4.983   6.353  17.190  0.00  0.00    +0.000 A 
ATOM     22  C   UNL     1       5.152   5.305  18.091  0.00  0.00    +0.000 A 
ATOM     23  C   UNL     1       4.292   5.175  19.183  0.00  0.00    +0.000 A 
ATOM     24  C   UNL     1       3.248   6.087  19.375  0.00  0.00    +0.000 A 
ENDBRANCH  12  19
BRANCH   1  25
ATOM     25  C   UNL     1      -2.853   9.732  15.148  0.00  0.00    +0.000 C 
BRANCH  25  26
ATOM     26  C   UNL     1      -3.978  10.045  14.154  0.00  0.00    +0.000 C 
BRANCH  26  28
ATOM     27  C   UNL     1      -4.800   9.756  11.797  0.00  0.00    +0.000 C 
ATOM     28  C   UNL     1      -3.588   9.706  12.716  0.00  0.00    +0.000 C 
ENDBRANCH  26  28
ENDBRANCH  25  26
ENDBRANCH   1  25
TORSDOF 4
ENDMDL
