MODEL 1
REMARK VINA RESULT:      -8.8      0.000      0.000
REMARK  Name = 
REMARK  7 active torsions:
REMARK  status: ('A' for Active; 'I' for Inactive)
REMARK    1  A    between atoms: C_1  and  S_2
REMARK    2  A    between atoms: S_2  and  N_5
REMARK    3  A    between atoms: N_5  and  C_6
REMARK    4  A    between atoms: N_5  and  C_22
REMARK    5  A    between atoms: C_6  and  C_7
REMARK    6  A    between atoms: N_12  and  C_13
REMARK    7  A    between atoms: C_26  and  C_27
REMARK                            x       y       z     vdW  Elec       q    Type
REMARK                         _______ _______ _______ _____ _____    ______ ____
ROOT
ATOM      1  C   UNL     1       2.651   6.289  19.666  0.00  0.00    +0.000 C 
ENDROOT
BRANCH   1   2
ATOM      2  C   UNL     1       2.335   7.572  18.900  0.00  0.00    +0.000 C 
ATOM      3  O   UNL     1       2.786   7.788  17.773  0.00  0.00    +0.000 OA
ATOM      4  N   UNL     1       1.495   8.485  19.552  0.00  0.00    +0.000 N 
ATOM      5  C   UNL     1       1.079   9.721  18.863  0.00  0.00    +0.000 C 
ATOM      6  C   UNL     1      -0.294  10.231  19.353  0.00  0.00    +0.000 C 
ATOM      7  N   UNL     1      -0.369  10.282  20.826  0.00  0.00    +0.000 N 
ATOM      8  C   UNL     1       0.067   9.072  21.534  0.00  0.00    +0.000 C 
ATOM      9  C   UNL     1       1.434   8.593  21.015  0.00  0.00    +0.000 C 
BRANCH   7  10
ATOM     10  C   UNL     1      -0.576  11.459  21.536  0.00  0.00    +0.000 A 
ATOM     11  C   UNL     1      -1.598  11.530  22.496  0.00  0.00    +0.000 A 
ATOM     12  C   UNL     1      -1.824  12.686  23.252  0.00  0.00    +0.000 A 
ATOM     13  C   UNL     1      -1.029  13.808  23.065  0.00  0.00    +0.000 A 
ATOM     14  C   UNL     1      -0.020  13.779  22.110  0.00  0.00    +0.000 A 
ATOM     15  C   UNL     1       0.199  12.619  21.362  0.00  0.00    +0.000 A 
ATOM     16  F   UNL     1       1.225  12.634  20.497  0.00  0.00    +0.000 F 
ENDBRANCH   7  10
ENDBRANCH   1   2
BRANCH   1  17
ATOM     17  N   UNL     1       3.080   5.102  18.904  0.00  0.00    +0.000 N 
BRANCH  17  18
ATOM     18  C   UNL     1       4.400   5.055  18.373  0.00  0.00    +0.000 A 
ATOM     19  C   UNL     1       5.476   5.177  19.246  0.00  0.00    +0.000 A 
ATOM     20  C   UNL     1       6.778   5.127  18.759  0.00  0.00    +0.000 A 
ATOM     21  C   UNL     1       7.005   4.941  17.395  0.00  0.00    +0.000 A 
ATOM     22  C   UNL     1       5.932   4.797  16.500  0.00  0.00    +0.000 A 
ATOM     23  C   UNL     1       4.619   4.858  17.002  0.00  0.00    +0.000 A 
BRANCH  22  24
ATOM     24  C   UNL     1       6.188   4.577  15.028  0.00  0.00    +0.000 C 
ATOM     25  F   UNL     1       5.237   5.143  14.226  0.00  0.00    +0.000 F 
ATOM     26  F   UNL     1       7.371   5.117  14.620  0.00  0.00    +0.000 F 
ATOM     27  F   UNL     1       6.230   3.266  14.680  0.00  0.00    +0.000 F 
ENDBRANCH  22  24
ENDBRANCH  17  18
BRANCH  17  29
ATOM     28  C   UNL     1       0.938   3.851  20.040  0.00  0.00    +0.000 C 
ATOM     29  S   UNL     1       2.032   3.821  18.631  0.00  0.00    +0.000 S 
ATOM     30  O   UNL     1       2.807   2.594  18.705  0.00  0.00    +0.000 OA
ATOM     31  O   UNL     1       1.235   4.109  17.457  0.00  0.00    +0.000 OA
ENDBRANCH  17  29
ENDBRANCH   1  17
TORSDOF 6
ENDMDL
MODEL 2
REMARK VINA RESULT:      -8.7      0.873      1.364
REMARK  Name = 
REMARK  7 active torsions:
REMARK  status: ('A' for Active; 'I' for Inactive)
REMARK    1  A    between atoms: C_1  and  S_2
REMARK    2  A    between atoms: S_2  and  N_5
REMARK    3  A    between atoms: N_5  and  C_6
REMARK    4  A    between atoms: N_5  and  C_22
REMARK    5  A    between atoms: C_6  and  C_7
REMARK    6  A    between atoms: N_12  and  C_13
REMARK    7  A    between atoms: C_26  and  C_27
REMARK                            x       y       z     vdW  Elec       q    Type
REMARK                         _______ _______ _______ _____ _____    ______ ____
ROOT
ATOM      1  C   UNL     1       2.818   6.401  19.547  0.00  0.00    +0.000 C 
ENDROOT
BRANCH   1   2
ATOM      2  C   UNL     1       2.411   7.644  18.758  0.00  0.00    +0.000 C 
ATOM      3  O   UNL     1       2.821   7.857  17.615  0.00  0.00    +0.000 OA
ATOM      4  N   UNL     1       1.534   8.524  19.409  0.00  0.00    +0.000 N 
ATOM      5  C   UNL     1       1.030   9.715  18.700  0.00  0.00    +0.000 C 
ATOM      6  C   UNL     1      -0.359  10.158  19.211  0.00  0.00    +0.000 C 
ATOM      7  N   UNL     1      -0.402  10.242  20.684  0.00  0.00    +0.000 N 
ATOM      8  C   UNL     1       0.121   9.078  21.410  0.00  0.00    +0.000 C 
ATOM      9  C   UNL     1       1.501   8.666  20.869  0.00  0.00    +0.000 C 
BRANCH   7  10
ATOM     10  C   UNL     1      -0.660  11.423  21.370  0.00  0.00    +0.000 A 
ATOM     11  C   UNL     1      -0.391  12.661  20.763  0.00  0.00    +0.000 A 
ATOM     12  C   UNL     1      -0.661  13.875  21.407  0.00  0.00    +0.000 A 
ATOM     13  C   UNL     1      -1.208  13.881  22.682  0.00  0.00    +0.000 A 
ATOM     14  C   UNL     1      -1.471  12.674  23.319  0.00  0.00    +0.000 A 
ATOM     15  C   UNL     1      -1.201  11.468  22.667  0.00  0.00    +0.000 A 
ATOM     16  F   UNL     1      -1.529  10.338  23.311  0.00  0.00    +0.000 F 
ENDBRANCH   7  10
ENDBRANCH   1   2
BRANCH   1  17
ATOM     17  N   UNL     1       3.189   5.185  18.801  0.00  0.00    +0.000 N 
BRANCH  17  18
ATOM     18  C   UNL     1       4.499   5.075  18.255  0.00  0.00    +0.000 A 
ATOM     19  C   UNL     1       5.589   5.119  19.119  0.00  0.00    +0.000 A 
ATOM     20  C   UNL     1       6.881   5.006  18.618  0.00  0.00    +0.000 A 
ATOM     21  C   UNL     1       7.085   4.835  17.249  0.00  0.00    +0.000 A 
ATOM     22  C   UNL     1       5.997   4.770  16.362  0.00  0.00    +0.000 A 
ATOM     23  C   UNL     1       4.694   4.894  16.879  0.00  0.00    +0.000 A 
BRANCH  22  24
ATOM     24  C   UNL     1       6.226   4.565  14.883  0.00  0.00    +0.000 C 
ATOM     25  F   UNL     1       6.281   3.248  14.524  0.00  0.00    +0.000 F 
ATOM     26  F   UNL     1       5.232   5.106  14.124  0.00  0.00    +0.000 F 
ATOM     27  F   UNL     1       7.384   5.117  14.438  0.00  0.00    +0.000 F 
ENDBRANCH  22  24
ENDBRANCH  17  18
BRANCH  17  29
ATOM     28  C   UNL     1       1.059   3.994  20.021  0.00  0.00    +0.000 C 
ATOM     29  S   UNL     1       2.087   3.944  18.564  0.00  0.00    +0.000 S 
ATOM     30  O   UNL     1       2.821   2.691  18.589  0.00  0.00    +0.000 OA
ATOM     31  O   UNL     1       1.248   4.272  17.430  0.00  0.00    +0.000 OA
ENDBRANCH  17  29
ENDBRANCH   1  17
TORSDOF 6
ENDMDL
MODEL 3
REMARK VINA RESULT:      -8.5      0.671      1.040
REMARK  Name = 
REMARK  7 active torsions:
REMARK  status: ('A' for Active; 'I' for Inactive)
REMARK    1  A    between atoms: C_1  and  S_2
REMARK    2  A    between atoms: S_2  and  N_5
REMARK    3  A    between atoms: N_5  and  C_6
REMARK    4  A    between atoms: N_5  and  C_22
REMARK    5  A    between atoms: C_6  and  C_7
REMARK    6  A    between atoms: N_12  and  C_13
REMARK    7  A    between atoms: C_26  and  C_27
REMARK                            x       y       z     vdW  Elec       q    Type
REMARK                         _______ _______ _______ _____ _____    ______ ____
ROOT
ATOM      1  C   UNL     1       2.606   6.324  19.687  0.00  0.00    +0.000 C 
ENDROOT
BRANCH   1   2
ATOM      2  C   UNL     1       2.281   7.603  18.918  0.00  0.00    +0.000 C 
ATOM      3  O   UNL     1       2.720   7.814  17.786  0.00  0.00    +0.000 OA
ATOM      4  N   UNL     1       1.446   8.518  19.575  0.00  0.00    +0.000 N 
ATOM      5  C   UNL     1       1.022   9.750  18.885  0.00  0.00    +0.000 C 
ATOM      6  C   UNL     1      -0.347  10.261  19.385  0.00  0.00    +0.000 C 
ATOM      7  N   UNL     1      -0.407  10.319  20.859  0.00  0.00    +0.000 N 
ATOM      8  C   UNL     1       0.038   9.113  21.568  0.00  0.00    +0.000 C 
ATOM      9  C   UNL     1       1.400   8.633  21.038  0.00  0.00    +0.000 C 
BRANCH   7  10
ATOM     10  C   UNL     1      -0.608  11.499  21.565  0.00  0.00    +0.000 A 
ATOM     11  C   UNL     1      -1.636  11.581  22.518  0.00  0.00    +0.000 A 
ATOM     12  C   UNL     1      -1.857  12.741  23.271  0.00  0.00    +0.000 A 
ATOM     13  C   UNL     1      -1.050  13.855  23.087  0.00  0.00    +0.000 A 
ATOM     14  C   UNL     1      -0.034  13.814  22.141  0.00  0.00    +0.000 A 
ATOM     15  C   UNL     1       0.180  12.651  21.396  0.00  0.00    +0.000 A 
ATOM     16  F   UNL     1       1.212  12.655  20.539  0.00  0.00    +0.000 F 
ENDBRANCH   7  10
ENDBRANCH   1   2
BRANCH   1  17
ATOM     17  N   UNL     1       3.016   5.130  18.925  0.00  0.00    +0.000 N 
BRANCH  17  18
ATOM     18  C   UNL     1       4.339   5.057  18.405  0.00  0.00    +0.000 A 
ATOM     19  C   UNL     1       5.410   5.138  19.288  0.00  0.00    +0.000 A 
ATOM     20  C   UNL     1       6.714   5.062  18.812  0.00  0.00    +0.000 A 
ATOM     21  C   UNL     1       6.948   4.890  17.447  0.00  0.00    +0.000 A 
ATOM     22  C   UNL     1       5.880   4.786  16.541  0.00  0.00    +0.000 A 
ATOM     23  C   UNL     1       4.564   4.874  17.033  0.00  0.00    +0.000 A 
BRANCH  22  24
ATOM     24  C   UNL     1       6.143   4.581  15.068  0.00  0.00    +0.000 C 
ATOM     25  F   UNL     1       7.324   5.128  14.651  0.00  0.00    +0.000 F 
ATOM     26  F   UNL     1       6.218   3.262  14.733  0.00  0.00    +0.000 F 
ATOM     27  F   UNL     1       5.185   5.120  14.271  0.00  0.00    +0.000 F 
ENDBRANCH  22  24
ENDBRANCH  17  18
BRANCH  17  29
ATOM     28  C   UNL     1       2.969   2.413  18.675  0.00  0.00    +0.000 C 
ATOM     29  S   UNL     1       1.943   3.873  18.641  0.00  0.00    +0.000 S 
ATOM     30  O   UNL     1       1.439   4.021  17.286  0.00  0.00    +0.000 OA
ATOM     31  O   UNL     1       1.022   3.781  19.753  0.00  0.00    +0.000 OA
ENDBRANCH  17  29
ENDBRANCH   1  17
TORSDOF 6
ENDMDL
MODEL 4
REMARK VINA RESULT:      -8.5      1.097      1.208
REMARK  Name = 
REMARK  7 active torsions:
REMARK  status: ('A' for Active; 'I' for Inactive)
REMARK    1  A    between atoms: C_1  and  S_2
REMARK    2  A    between atoms: S_2  and  N_5
REMARK    3  A    between atoms: N_5  and  C_6
REMARK    4  A    between atoms: N_5  and  C_22
REMARK    5  A    between atoms: C_6  and  C_7
REMARK    6  A    between atoms: N_12  and  C_13
REMARK    7  A    between atoms: C_26  and  C_27
REMARK                            x       y       z     vdW  Elec       q    Type
REMARK                         _______ _______ _______ _____ _____    ______ ____
ROOT
ATOM      1  C   UNL     1       2.761   6.539  19.482  0.00  0.00    +0.000 C 
ENDROOT
BRANCH   1   2
ATOM      2  C   UNL     1       2.468   7.762  18.615  0.00  0.00    +0.000 C 
ATOM      3  O   UNL     1       3.044   7.956  17.543  0.00  0.00    +0.000 OA
ATOM      4  N   UNL     1       1.499   8.647  19.110  0.00  0.00    +0.000 N 
ATOM      5  C   UNL     1       1.101   9.820  18.310  0.00  0.00    +0.000 C 
ATOM      6  C   UNL     1      -0.351  10.260  18.598  0.00  0.00    +0.000 C 
ATOM      7  N   UNL     1      -0.615  10.373  20.046  0.00  0.00    +0.000 N 
ATOM      8  C   UNL     1      -0.200   9.228  20.866  0.00  0.00    +0.000 C 
ATOM      9  C   UNL     1       1.247   8.817  20.546  0.00  0.00    +0.000 C 
BRANCH   7  10
ATOM     10  C   UNL     1      -0.980  11.565  20.661  0.00  0.00    +0.000 A 
ATOM     11  C   UNL     1      -0.180  12.102  21.682  0.00  0.00    +0.000 A 
ATOM     12  C   UNL     1      -0.495  13.313  22.310  0.00  0.00    +0.000 A 
ATOM     13  C   UNL     1      -1.626  14.021  21.930  0.00  0.00    +0.000 A 
ATOM     14  C   UNL     1      -2.450  13.510  20.935  0.00  0.00    +0.000 A 
ATOM     15  C   UNL     1      -2.126  12.302  20.312  0.00  0.00    +0.000 A 
ATOM     16  F   UNL     1      -2.929  11.890  19.320  0.00  0.00    +0.000 F 
ENDBRANCH   7  10
ENDBRANCH   1   2
BRANCH   1  17
ATOM     17  N   UNL     1       3.156   5.284  18.817  0.00  0.00    +0.000 N 
BRANCH  17  18
ATOM     18  C   UNL     1       4.473   5.161  18.289  0.00  0.00    +0.000 A 
ATOM     19  C   UNL     1       5.553   5.247  19.161  0.00  0.00    +0.000 A 
ATOM     20  C   UNL     1       6.851   5.122  18.678  0.00  0.00    +0.000 A 
ATOM     21  C   UNL     1       7.069   4.897  17.319  0.00  0.00    +0.000 A 
ATOM     22  C   UNL     1       5.991   4.789  16.425  0.00  0.00    +0.000 A 
ATOM     23  C   UNL     1       4.682   4.925  16.923  0.00  0.00    +0.000 A 
BRANCH  22  24
ATOM     24  C   UNL     1       6.237   4.526  14.958  0.00  0.00    +0.000 C 
ATOM     25  F   UNL     1       5.234   4.989  14.153  0.00  0.00    +0.000 F 
ATOM     26  F   UNL     1       7.371   5.130  14.505  0.00  0.00    +0.000 F 
ATOM     27  F   UNL     1       6.367   3.207  14.663  0.00  0.00    +0.000 F 
ENDBRANCH  22  24
ENDBRANCH  17  18
BRANCH  17  29
ATOM     28  C   UNL     1       1.024   4.149  20.085  0.00  0.00    +0.000 C 
ATOM     29  S   UNL     1       2.075   4.013  18.650  0.00  0.00    +0.000 S 
ATOM     30  O   UNL     1       2.827   2.776  18.774  0.00  0.00    +0.000 OA
ATOM     31  O   UNL     1       1.250   4.249  17.484  0.00  0.00    +0.000 OA
ENDBRANCH  17  29
ENDBRANCH   1  17
TORSDOF 6
ENDMDL
MODEL 5
REMARK VINA RESULT:      -8.5      1.077      1.433
REMARK  Name = 
REMARK  7 active torsions:
REMARK  status: ('A' for Active; 'I' for Inactive)
REMARK    1  A    between atoms: C_1  and  S_2
REMARK    2  A    between atoms: S_2  and  N_5
REMARK    3  A    between atoms: N_5  and  C_6
REMARK    4  A    between atoms: N_5  and  C_22
REMARK    5  A    between atoms: C_6  and  C_7
REMARK    6  A    between atoms: N_12  and  C_13
REMARK    7  A    between atoms: C_26  and  C_27
REMARK                            x       y       z     vdW  Elec       q    Type
REMARK                         _______ _______ _______ _____ _____    ______ ____
ROOT
ATOM      1  C   UNL     1       2.573   6.344  19.713  0.00  0.00    +0.000 C 
ENDROOT
BRANCH   1   2
ATOM      2  C   UNL     1       2.255   7.612  18.923  0.00  0.00    +0.000 C 
ATOM      3  O   UNL     1       2.652   7.779  17.769  0.00  0.00    +0.000 OA
ATOM      4  N   UNL     1       1.478   8.571  19.589  0.00  0.00    +0.000 N 
ATOM      5  C   UNL     1       1.063   9.797  18.883  0.00  0.00    +0.000 C 
ATOM      6  C   UNL     1      -0.267  10.365  19.426  0.00  0.00    +0.000 C 
ATOM      7  N   UNL     1      -0.262  10.463  20.899  0.00  0.00    +0.000 N 
ATOM      8  C   UNL     1       0.175   9.263  21.622  0.00  0.00    +0.000 C 
ATOM      9  C   UNL     1       1.498   8.725  21.049  0.00  0.00    +0.000 C 
BRANCH   7  10
ATOM     10  C   UNL     1      -0.396  11.668  21.580  0.00  0.00    +0.000 A 
ATOM     11  C   UNL     1       0.309  12.802  21.146  0.00  0.00    +0.000 A 
ATOM     12  C   UNL     1       0.184  14.041  21.786  0.00  0.00    +0.000 A 
ATOM     13  C   UNL     1      -0.654  14.177  22.883  0.00  0.00    +0.000 A 
ATOM     14  C   UNL     1      -1.354  13.071  23.350  0.00  0.00    +0.000 A 
ATOM     15  C   UNL     1      -1.224  11.839  22.703  0.00  0.00    +0.000 A 
ATOM     16  F   UNL     1      -1.968  10.824  23.166  0.00  0.00    +0.000 F 
ENDBRANCH   7  10
ENDBRANCH   1   2
BRANCH   1  17
ATOM     17  N   UNL     1       3.010   5.146  18.974  0.00  0.00    +0.000 N 
BRANCH  17  18
ATOM     18  C   UNL     1       4.337   5.090  18.461  0.00  0.00    +0.000 A 
ATOM     19  C   UNL     1       5.402   5.226  19.345  0.00  0.00    +0.000 A 
ATOM     20  C   UNL     1       6.710   5.168  18.876  0.00  0.00    +0.000 A 
ATOM     21  C   UNL     1       6.954   4.959  17.519  0.00  0.00    +0.000 A 
ATOM     22  C   UNL     1       5.892   4.801  16.613  0.00  0.00    +0.000 A 
ATOM     23  C   UNL     1       4.573   4.871  17.096  0.00  0.00    +0.000 A 
BRANCH  22  24
ATOM     24  C   UNL     1       6.167   4.557  15.147  0.00  0.00    +0.000 C 
ATOM     25  F   UNL     1       5.293   5.205  14.320  0.00  0.00    +0.000 F 
ATOM     26  F   UNL     1       7.405   4.987  14.772  0.00  0.00    +0.000 F 
ATOM     27  F   UNL     1       6.101   3.246  14.800  0.00  0.00    +0.000 F 
ENDBRANCH  22  24
ENDBRANCH  17  18
BRANCH  17  29
ATOM     28  C   UNL     1       3.010   2.421  18.819  0.00  0.00    +0.000 C 
ATOM     29  S   UNL     1       1.964   3.862  18.707  0.00  0.00    +0.000 S 
ATOM     30  O   UNL     1       1.494   3.956  17.335  0.00  0.00    +0.000 OA
ATOM     31  O   UNL     1       1.015   3.796  19.797  0.00  0.00    +0.000 OA
ENDBRANCH  17  29
ENDBRANCH   1  17
TORSDOF 6
ENDMDL
MODEL 6
REMARK VINA RESULT:      -8.5      1.703      2.196
REMARK  Name = 
REMARK  7 active torsions:
REMARK  status: ('A' for Active; 'I' for Inactive)
REMARK    1  A    between atoms: C_1  and  S_2
REMARK    2  A    between atoms: S_2  and  N_5
REMARK    3  A    between atoms: N_5  and  C_6
REMARK    4  A    between atoms: N_5  and  C_22
REMARK    5  A    between atoms: C_6  and  C_7
REMARK    6  A    between atoms: N_12  and  C_13
REMARK    7  A    between atoms: C_26  and  C_27
REMARK                            x       y       z     vdW  Elec       q    Type
REMARK                         _______ _______ _______ _____ _____    ______ ____
ROOT
ATOM      1  C   UNL     1       2.475   6.304  19.782  0.00  0.00    +0.000 C 
ENDROOT
BRANCH   1   2
ATOM      2  C   UNL     1       2.229   7.597  19.006  0.00  0.00    +0.000 C 
ATOM      3  O   UNL     1       2.715   7.792  17.890  0.00  0.00    +0.000 OA
ATOM      4  N   UNL     1       1.410   8.544  19.637  0.00  0.00    +0.000 N 
ATOM      5  C   UNL     1       1.059   9.793  18.935  0.00  0.00    +0.000 C 
ATOM      6  C   UNL     1      -0.304  10.358  19.391  0.00  0.00    +0.000 C 
ATOM      7  N   UNL     1      -0.412  10.416  20.862  0.00  0.00    +0.000 N 
ATOM      8  C   UNL     1      -0.041   9.192  21.582  0.00  0.00    +0.000 C 
ATOM      9  C   UNL     1       1.318   8.658  21.097  0.00  0.00    +0.000 C 
BRANCH   7  10
ATOM     10  C   UNL     1      -0.590  11.602  21.564  0.00  0.00    +0.000 A 
ATOM     11  C   UNL     1      -1.599  11.699  22.535  0.00  0.00    +0.000 A 
ATOM     12  C   UNL     1      -1.795  12.866  23.285  0.00  0.00    +0.000 A 
ATOM     13  C   UNL     1      -0.982  13.971  23.079  0.00  0.00    +0.000 A 
ATOM     14  C   UNL     1       0.015  13.916  22.114  0.00  0.00    +0.000 A 
ATOM     15  C   UNL     1       0.205  12.747  21.372  0.00  0.00    +0.000 A 
ATOM     16  F   UNL     1       1.220  12.736  20.495  0.00  0.00    +0.000 F 
ENDBRANCH   7  10
ENDBRANCH   1   2
BRANCH   1  17
ATOM     17  N   UNL     1       2.762   5.072  19.024  0.00  0.00    +0.000 N 
BRANCH  17  18
ATOM     18  C   UNL     1       4.004   4.950  18.339  0.00  0.00    +0.000 A 
ATOM     19  C   UNL     1       3.998   4.516  17.017  0.00  0.00    +0.000 A 
ATOM     20  C   UNL     1       5.194   4.393  16.318  0.00  0.00    +0.000 A 
ATOM     21  C   UNL     1       6.400   4.719  16.939  0.00  0.00    +0.000 A 
ATOM     22  C   UNL     1       6.425   5.176  18.267  0.00  0.00    +0.000 A 
ATOM     23  C   UNL     1       5.210   5.288  18.968  0.00  0.00    +0.000 A 
BRANCH  22  24
ATOM     24  C   UNL     1       7.735   5.544  18.925  0.00  0.00    +0.000 C 
ATOM     25  F   UNL     1       8.220   6.755  18.517  0.00  0.00    +0.000 F 
ATOM     26  F   UNL     1       7.627   5.636  20.280  0.00  0.00    +0.000 F 
ATOM     27  F   UNL     1       8.727   4.650  18.684  0.00  0.00    +0.000 F 
ENDBRANCH  22  24
ENDBRANCH  17  18
BRANCH  17  29
ATOM     28  C   UNL     1       2.614   2.351  19.162  0.00  0.00    +0.000 C 
ATOM     29  S   UNL     1       1.641   3.829  18.935  0.00  0.00    +0.000 S 
ATOM     30  O   UNL     1       1.117   3.804  17.579  0.00  0.00    +0.000 OA
ATOM     31  O   UNL     1       0.737   3.930  20.061  0.00  0.00    +0.000 OA
ENDBRANCH  17  29
ENDBRANCH   1  17
TORSDOF 6
ENDMDL
MODEL 7
REMARK VINA RESULT:      -8.3      1.940      2.555
REMARK  Name = 
REMARK  7 active torsions:
REMARK  status: ('A' for Active; 'I' for Inactive)
REMARK    1  A    between atoms: C_1  and  S_2
REMARK    2  A    between atoms: S_2  and  N_5
REMARK    3  A    between atoms: N_5  and  C_6
REMARK    4  A    between atoms: N_5  and  C_22
REMARK    5  A    between atoms: C_6  and  C_7
REMARK    6  A    between atoms: N_12  and  C_13
REMARK    7  A    between atoms: C_26  and  C_27
REMARK                            x       y       z     vdW  Elec       q    Type
REMARK                         _______ _______ _______ _____ _____    ______ ____
ROOT
ATOM      1  C   UNL     1       2.323   6.419  19.993  0.00  0.00    +0.000 C 
ENDROOT
BRANCH   1   2
ATOM      2  C   UNL     1       1.974   7.660  19.173  0.00  0.00    +0.000 C 
ATOM      3  O   UNL     1       2.312   7.781  17.995  0.00  0.00    +0.000 OA
ATOM      4  N   UNL     1       1.237   8.649  19.841  0.00  0.00    +0.000 N 
ATOM      5  C   UNL     1       0.794   9.851  19.111  0.00  0.00    +0.000 C 
ATOM      6  C   UNL     1      -0.503  10.449  19.699  0.00  0.00    +0.000 C 
ATOM      7  N   UNL     1      -0.424  10.602  21.165  0.00  0.00    +0.000 N 
ATOM      8  C   UNL     1       0.043   9.425  21.910  0.00  0.00    +0.000 C 
ATOM      9  C   UNL     1       1.331   8.857  21.291  0.00  0.00    +0.000 C 
BRANCH   7  10
ATOM     10  C   UNL     1      -0.516  11.831  21.806  0.00  0.00    +0.000 A 
ATOM     11  C   UNL     1       0.283  12.906  21.384  0.00  0.00    +0.000 A 
ATOM     12  C   UNL     1       0.204  14.168  21.984  0.00  0.00    +0.000 A 
ATOM     13  C   UNL     1      -0.681  14.389  23.029  0.00  0.00    +0.000 A 
ATOM     14  C   UNL     1      -1.475  13.344  23.484  0.00  0.00    +0.000 A 
ATOM     15  C   UNL     1      -1.390  12.088  22.877  0.00  0.00    +0.000 A 
ATOM     16  F   UNL     1      -2.223  11.135  23.324  0.00  0.00    +0.000 F 
ENDBRANCH   7  10
ENDBRANCH   1   2
BRANCH   1  17
ATOM     17  N   UNL     1       2.699   5.186  19.277  0.00  0.00    +0.000 N 
BRANCH  17  18
ATOM     18  C   UNL     1       3.901   5.162  18.515  0.00  0.00    +0.000 A 
ATOM     19  C   UNL     1       3.818   4.948  17.144  0.00  0.00    +0.000 A 
ATOM     20  C   UNL     1       4.974   4.926  16.370  0.00  0.00    +0.000 A 
ATOM     21  C   UNL     1       6.217   5.134  16.969  0.00  0.00    +0.000 A 
ATOM     22  C   UNL     1       6.319   5.371  18.350  0.00  0.00    +0.000 A 
ATOM     23  C   UNL     1       5.145   5.381  19.124  0.00  0.00    +0.000 A 
BRANCH  22  24
ATOM     24  C   UNL     1       7.668   5.614  18.986  0.00  0.00    +0.000 C 
ATOM     25  F   UNL     1       8.225   6.809  18.627  0.00  0.00    +0.000 F 
ATOM     26  F   UNL     1       7.602   5.641  20.347  0.00  0.00    +0.000 F 
ATOM     27  F   UNL     1       8.589   4.668  18.670  0.00  0.00    +0.000 F 
ENDBRANCH  22  24
ENDBRANCH  17  18
BRANCH  17  29
ATOM     28  C   UNL     1       2.871   2.474  19.517  0.00  0.00    +0.000 C 
ATOM     29  S   UNL     1       1.722   3.824  19.326  0.00  0.00    +0.000 S 
ATOM     30  O   UNL     1       1.096   3.684  18.022  0.00  0.00    +0.000 OA
ATOM     31  O   UNL     1       0.908   3.873  20.522  0.00  0.00    +0.000 OA
ENDBRANCH  17  29
ENDBRANCH   1  17
TORSDOF 6
ENDMDL
MODEL 8
REMARK VINA RESULT:      -8.3      1.278      1.609
REMARK  Name = 
REMARK  7 active torsions:
REMARK  status: ('A' for Active; 'I' for Inactive)
REMARK    1  A    between atoms: C_1  and  S_2
REMARK    2  A    between atoms: S_2  and  N_5
REMARK    3  A    between atoms: N_5  and  C_6
REMARK    4  A    between atoms: N_5  and  C_22
REMARK    5  A    between atoms: C_6  and  C_7
REMARK    6  A    between atoms: N_12  and  C_13
REMARK    7  A    between atoms: C_26  and  C_27
REMARK                            x       y       z     vdW  Elec       q    Type
REMARK                         _______ _______ _______ _____ _____    ______ ____
ROOT
ATOM      1  C   UNL     1       2.634   6.591  19.540  0.00  0.00    +0.000 C 
ENDROOT
BRANCH   1   2
ATOM      2  C   UNL     1       2.377   7.816  18.665  0.00  0.00    +0.000 C 
ATOM      3  O   UNL     1       2.967   7.993  17.598  0.00  0.00    +0.000 OA
ATOM      4  N   UNL     1       1.422   8.724  19.146  0.00  0.00    +0.000 N 
ATOM      5  C   UNL     1       1.057   9.901  18.337  0.00  0.00    +0.000 C 
ATOM      6  C   UNL     1      -0.389  10.374  18.608  0.00  0.00    +0.000 C 
ATOM      7  N   UNL     1      -0.664  10.499  20.053  0.00  0.00    +0.000 N 
ATOM      8  C   UNL     1      -0.282   9.349  20.882  0.00  0.00    +0.000 C 
ATOM      9  C   UNL     1       1.160   8.906  20.579  0.00  0.00    +0.000 C 
BRANCH   7  10
ATOM     10  C   UNL     1      -1.009  11.701  20.659  0.00  0.00    +0.000 A 
ATOM     11  C   UNL     1      -0.138  12.296  21.586  0.00  0.00    +0.000 A 
ATOM     12  C   UNL     1      -0.433  13.519  22.201  0.00  0.00    +0.000 A 
ATOM     13  C   UNL     1      -1.615  14.182  21.901  0.00  0.00    +0.000 A 
ATOM     14  C   UNL     1      -2.507  13.615  21.000  0.00  0.00    +0.000 A 
ATOM     15  C   UNL     1      -2.203  12.394  20.391  0.00  0.00    +0.000 A 
ATOM     16  F   UNL     1      -3.078  11.926  19.488  0.00  0.00    +0.000 F 
ENDBRANCH   7  10
ENDBRANCH   1   2
BRANCH   1  17
ATOM     17  N   UNL     1       3.006   5.324  18.885  0.00  0.00    +0.000 N 
BRANCH  17  18
ATOM     18  C   UNL     1       4.324   5.167  18.370  0.00  0.00    +0.000 A 
ATOM     19  C   UNL     1       5.394   5.188  19.258  0.00  0.00    +0.000 A 
ATOM     20  C   UNL     1       6.694   5.029  18.788  0.00  0.00    +0.000 A 
ATOM     21  C   UNL     1       6.922   4.834  17.426  0.00  0.00    +0.000 A 
ATOM     22  C   UNL     1       5.853   4.791  16.516  0.00  0.00    +0.000 A 
ATOM     23  C   UNL     1       4.544   4.962  17.001  0.00  0.00    +0.000 A 
BRANCH  22  24
ATOM     24  C   UNL     1       6.109   4.561  15.044  0.00  0.00    +0.000 C 
ATOM     25  F   UNL     1       7.266   5.138  14.603  0.00  0.00    +0.000 F 
ATOM     26  F   UNL     1       6.226   3.238  14.739  0.00  0.00    +0.000 F 
ATOM     27  F   UNL     1       5.126   5.048  14.246  0.00  0.00    +0.000 F 
ENDBRANCH  22  24
ENDBRANCH  17  18
BRANCH  17  29
ATOM     28  C   UNL     1       2.882   2.598  18.848  0.00  0.00    +0.000 C 
ATOM     29  S   UNL     1       1.896   4.079  18.713  0.00  0.00    +0.000 S 
ATOM     30  O   UNL     1       1.377   4.135  17.357  0.00  0.00    +0.000 OA
ATOM     31  O   UNL     1       0.988   4.100  19.840  0.00  0.00    +0.000 OA
ENDBRANCH  17  29
ENDBRANCH   1  17
TORSDOF 6
ENDMDL
MODEL 9
REMARK VINA RESULT:      -8.2      1.984      2.502
REMARK  Name = 
REMARK  7 active torsions:
REMARK  status: ('A' for Active; 'I' for Inactive)
REMARK    1  A    between atoms: C_1  and  S_2
REMARK    2  A    between atoms: S_2  and  N_5
REMARK    3  A    between atoms: N_5  and  C_6
REMARK    4  A    between atoms: N_5  and  C_22
REMARK    5  A    between atoms: C_6  and  C_7
REMARK    6  A    between atoms: N_12  and  C_13
REMARK    7  A    between atoms: C_26  and  C_27
REMARK                            x       y       z     vdW  Elec       q    Type
REMARK                         _______ _______ _______ _____ _____    ______ ____
ROOT
ATOM      1  C   UNL     1       2.556   6.381  19.470  0.00  0.00    +0.000 C 
ENDROOT
BRANCH   1   2
ATOM      2  C   UNL     1       2.419   7.635  18.609  0.00  0.00    +0.000 C 
ATOM      3  O   UNL     1       3.066   7.789  17.571  0.00  0.00    +0.000 OA
ATOM      4  N   UNL     1       1.505   8.596  19.065  0.00  0.00    +0.000 N 
ATOM      5  C   UNL     1       1.253   9.808  18.264  0.00  0.00    +0.000 C 
ATOM      6  C   UNL     1      -0.168  10.370  18.482  0.00  0.00    +0.000 C 
ATOM      7  N   UNL     1      -0.499  10.490  19.916  0.00  0.00    +0.000 N 
ATOM      8  C   UNL     1      -0.229   9.304  20.738  0.00  0.00    +0.000 C 
ATOM      9  C   UNL     1       1.192   8.771  20.488  0.00  0.00    +0.000 C 
BRANCH   7  10
ATOM     10  C   UNL     1      -0.791  11.702  20.529  0.00  0.00    +0.000 A 
ATOM     11  C   UNL     1       0.164  12.321  21.352  0.00  0.00    +0.000 A 
ATOM     12  C   UNL     1      -0.078  13.555  21.968  0.00  0.00    +0.000 A 
ATOM     13  C   UNL     1      -1.289  14.204  21.776  0.00  0.00    +0.000 A 
ATOM     14  C   UNL     1      -2.263  13.612  20.982  0.00  0.00    +0.000 A 
ATOM     15  C   UNL     1      -2.011  12.382  20.370  0.00  0.00    +0.000 A 
ATOM     16  F   UNL     1      -2.969  11.889  19.570  0.00  0.00    +0.000 F 
ENDBRANCH   7  10
ENDBRANCH   1   2
BRANCH   1  17
ATOM     17  N   UNL     1       2.953   5.120  18.818  0.00  0.00    +0.000 N 
BRANCH  17  18
ATOM     18  C   UNL     1       4.252   5.010  18.247  0.00  0.00    +0.000 A 
ATOM     19  C   UNL     1       4.368   4.595  16.925  0.00  0.00    +0.000 A 
ATOM     20  C   UNL     1       5.622   4.485  16.335  0.00  0.00    +0.000 A 
ATOM     21  C   UNL     1       6.766   4.805  17.067  0.00  0.00    +0.000 A 
ATOM     22  C   UNL     1       6.669   5.243  18.398  0.00  0.00    +0.000 A 
ATOM     23  C   UNL     1       5.395   5.342  18.987  0.00  0.00    +0.000 A 
BRANCH  22  24
ATOM     24  C   UNL     1       7.912   5.605  19.177  0.00  0.00    +0.000 C 
ATOM     25  F   UNL     1       8.939   4.722  18.993  0.00  0.00    +0.000 F 
ATOM     26  F   UNL     1       8.413   6.821  18.819  0.00  0.00    +0.000 F 
ATOM     27  F   UNL     1       7.709   5.660  20.518  0.00  0.00    +0.000 F 
ENDBRANCH  22  24
ENDBRANCH  17  18
BRANCH  17  29
ATOM     28  C   UNL     1       0.873   3.986  20.172  0.00  0.00    +0.000 C 
ATOM     29  S   UNL     1       1.891   3.826  18.717  0.00  0.00    +0.000 S 
ATOM     30  O   UNL     1       2.668   2.606  18.859  0.00  0.00    +0.000 OA
ATOM     31  O   UNL     1       1.034   4.011  17.565  0.00  0.00    +0.000 OA
ENDBRANCH  17  29
ENDBRANCH   1  17
TORSDOF 6
ENDMDL
