MODEL 1
REMARK VINA RESULT:      -8.7      0.000      0.000
REMARK  Name = 
REMARK  10 active torsions:
REMARK  status: ('A' for Active; 'I' for Inactive)
REMARK    1  A    between atoms: C_2  and  C_25
REMARK    2  A    between atoms: N_3  and  C_4
REMARK    3  A    between atoms: C_5  and  C_6
REMARK    4  A    between atoms: N_8  and  C_9
REMARK    5  A    between atoms: C_9  and  C_10
REMARK    6  A    between atoms: C_10  and  C_11
REMARK    7  A    between atoms: C_11  and  C_12
REMARK    8  A    between atoms: C_19  and  O_20
REMARK    9  A    between atoms: C_21  and  O_22
REMARK   10  A    between atoms: C_23  and  O_24
REMARK                            x       y       z     vdW  Elec       q    Type
REMARK                         _______ _______ _______ _____ _____    ______ ____
ROOT
ATOM      1  C   UNL     1       4.490   4.364  17.382  0.00  0.00    +0.000 A 
ATOM      2  C   UNL     1       5.274   4.907  18.419  0.00  0.00    +0.000 A 
ATOM      3  C   UNL     1       4.706   5.104  19.697  0.00  0.00    +0.000 A 
ATOM      4  C   UNL     1       3.368   4.778  19.909  0.00  0.00    +0.000 A 
ATOM      5  C   UNL     1       2.584   4.310  18.865  0.00  0.00    +0.000 A 
ATOM      6  C   UNL     1       3.133   4.120  17.604  0.00  0.00    +0.000 A 
ENDROOT
BRANCH   1   9
ATOM      7  O   UNL     1       5.136   6.193  15.316  0.00  0.00    +0.000 OA
ATOM      8  C   UNL     1       5.262   4.983  15.157  0.00  0.00    +0.000 C 
ATOM      9  N   UNL     1       4.984   4.016  16.108  0.00  0.00    +0.000 N 
ATOM     10  H   UNL     1       5.608   3.214  16.102  0.00  0.00    +0.000 HD
BRANCH   8  11
ATOM     11  C   UNL     1       5.865   4.450  13.907  0.00  0.00    +0.000 A 
ATOM     12  C   UNL     1       5.186   3.472  13.170  0.00  0.00    +0.000 A 
ATOM     13  C   UNL     1       5.756   2.965  11.999  0.00  0.00    +0.000 A 
ATOM     14  C   UNL     1       7.001   3.428  11.572  0.00  0.00    +0.000 A 
ATOM     15  C   UNL     1       7.681   4.398  12.309  0.00  0.00    +0.000 A 
ATOM     16  C   UNL     1       7.115   4.910  13.475  0.00  0.00    +0.000 A 
ENDBRANCH   8  11
ENDBRANCH   1   9
BRANCH   2  17
ATOM     17  C   UNL     1       6.600   5.525  18.127  0.00  0.00    +0.000 C 
ATOM     18  O   UNL     1       7.606   4.824  18.067  0.00  0.00    +0.000 OA
ATOM     19  N   UNL     1       6.608   6.875  17.834  0.00  0.00    +0.000 N 
ATOM     20  H   UNL     1       5.797   7.435  18.055  0.00  0.00    +0.000 HD
BRANCH  19  21
ATOM     21  C   UNL     1       7.836   7.549  17.450  0.00  0.00    +0.000 C 
BRANCH  21  22
ATOM     22  C   UNL     1       8.384   8.455  18.556  0.00  0.00    +0.000 C 
BRANCH  22  23
ATOM     23  C   UNL     1       8.325   9.933  18.166  0.00  0.00    +0.000 C 
BRANCH  23  24
ATOM     24  C   UNL     1       9.474  10.727  18.735  0.00  0.00    +0.000 A 
ATOM     25  C   UNL     1      10.530  11.138  17.911  0.00  0.00    +0.000 A 
ATOM     26  C   UNL     1      11.590  11.882  18.434  0.00  0.00    +0.000 A 
ATOM     27  C   UNL     1      11.608  12.214  19.787  0.00  0.00    +0.000 A 
ATOM     28  C   UNL     1      10.569  11.800  20.619  0.00  0.00    +0.000 A 
ATOM     29  C   UNL     1       9.507  11.058  20.096  0.00  0.00    +0.000 A 
ENDBRANCH  23  24
ENDBRANCH  22  23
ENDBRANCH  21  22
ENDBRANCH  19  21
ENDBRANCH   2  17
BRANCH   4  30
ATOM     30  O   UNL     1       2.763   4.935  21.125  0.00  0.00    +0.000 OA
ATOM     31  H   UNL     1       3.278   5.571  21.653  0.00  0.00    +0.000 HD
ENDBRANCH   4  30
BRANCH   5  32
ATOM     32  O   UNL     1       1.260   4.018  19.055  0.00  0.00    +0.000 OA
ATOM     33  H   UNL     1       1.117   3.197  18.538  0.00  0.00    +0.000 HD
ENDBRANCH   5  32
BRANCH   6  34
ATOM     34  O   UNL     1       2.345   3.645  16.586  0.00  0.00    +0.000 OA
ATOM     35  H   UNL     1       1.522   3.352  17.030  0.00  0.00    +0.000 HD
ENDBRANCH   6  34
TORSDOF 10
ENDMDL
MODEL 2
REMARK VINA RESULT:      -8.5      0.775      1.363
REMARK  Name = 
REMARK  10 active torsions:
REMARK  status: ('A' for Active; 'I' for Inactive)
REMARK    1  A    between atoms: C_2  and  C_25
REMARK    2  A    between atoms: N_3  and  C_4
REMARK    3  A    between atoms: C_5  and  C_6
REMARK    4  A    between atoms: N_8  and  C_9
REMARK    5  A    between atoms: C_9  and  C_10
REMARK    6  A    between atoms: C_10  and  C_11
REMARK    7  A    between atoms: C_11  and  C_12
REMARK    8  A    between atoms: C_19  and  O_20
REMARK    9  A    between atoms: C_21  and  O_22
REMARK   10  A    between atoms: C_23  and  O_24
REMARK                            x       y       z     vdW  Elec       q    Type
REMARK                         _______ _______ _______ _____ _____    ______ ____
ROOT
ATOM      1  C   UNL     1       4.447   4.272  17.498  0.00  0.00    +0.000 A 
ATOM      2  C   UNL     1       5.237   4.722  18.575  0.00  0.00    +0.000 A 
ATOM      3  C   UNL     1       4.652   4.891  19.850  0.00  0.00    +0.000 A 
ATOM      4  C   UNL     1       3.294   4.631  20.020  0.00  0.00    +0.000 A 
ATOM      5  C   UNL     1       2.509   4.257  18.939  0.00  0.00    +0.000 A 
ATOM      6  C   UNL     1       3.074   4.095  17.682  0.00  0.00    +0.000 A 
ENDROOT
BRANCH   1   9
ATOM      7  O   UNL     1       5.120   6.154  15.489  0.00  0.00    +0.000 OA
ATOM      8  C   UNL     1       5.241   4.949  15.298  0.00  0.00    +0.000 C 
ATOM      9  N   UNL     1       4.950   3.957  16.219  0.00  0.00    +0.000 N 
ATOM     10  H   UNL     1       5.568   3.152  16.196  0.00  0.00    +0.000 HD
BRANCH   8  11
ATOM     11  C   UNL     1       5.851   4.446  14.038  0.00  0.00    +0.000 A 
ATOM     12  C   UNL     1       7.093   4.942  13.622  0.00  0.00    +0.000 A 
ATOM     13  C   UNL     1       7.663   4.476  12.434  0.00  0.00    +0.000 A 
ATOM     14  C   UNL     1       6.992   3.526  11.663  0.00  0.00    +0.000 A 
ATOM     15  C   UNL     1       5.752   3.036  12.075  0.00  0.00    +0.000 A 
ATOM     16  C   UNL     1       5.181   3.495  13.261  0.00  0.00    +0.000 A 
ENDBRANCH   8  11
ENDBRANCH   1   9
BRANCH   2  17
ATOM     17  C   UNL     1       6.601   5.278  18.338  0.00  0.00    +0.000 C 
ATOM     18  O   UNL     1       7.560   4.522  18.212  0.00  0.00    +0.000 OA
ATOM     19  N   UNL     1       6.697   6.646  18.171  0.00  0.00    +0.000 N 
ATOM     20  H   UNL     1       5.922   7.234  18.445  0.00  0.00    +0.000 HD
BRANCH  19  21
ATOM     21  C   UNL     1       7.967   7.272  17.848  0.00  0.00    +0.000 C 
BRANCH  21  22
ATOM     22  C   UNL     1       7.868   8.798  17.758  0.00  0.00    +0.000 C 
BRANCH  22  23
ATOM     23  C   UNL     1       8.737   9.490  18.810  0.00  0.00    +0.000 C 
BRANCH  23  24
ATOM     24  C   UNL     1       9.307  10.798  18.319  0.00  0.00    +0.000 A 
ATOM     25  C   UNL     1      10.692  10.973  18.210  0.00  0.00    +0.000 A 
ATOM     26  C   UNL     1      11.221  12.178  17.746  0.00  0.00    +0.000 A 
ATOM     27  C   UNL     1      10.370  13.224  17.394  0.00  0.00    +0.000 A 
ATOM     28  C   UNL     1       8.990  13.065  17.510  0.00  0.00    +0.000 A 
ATOM     29  C   UNL     1       8.460  11.858  17.972  0.00  0.00    +0.000 A 
ENDBRANCH  23  24
ENDBRANCH  22  23
ENDBRANCH  21  22
ENDBRANCH  19  21
ENDBRANCH   2  17
BRANCH   4  30
ATOM     30  O   UNL     1       2.672   4.765  21.230  0.00  0.00    +0.000 OA
ATOM     31  H   UNL     1       3.159   4.244  21.893  0.00  0.00    +0.000 HD
ENDBRANCH   4  30
BRANCH   5  32
ATOM     32  O   UNL     1       1.167   4.030  19.089  0.00  0.00    +0.000 OA
ATOM     33  H   UNL     1       1.098   3.535  19.933  0.00  0.00    +0.000 HD
ENDBRANCH   5  32
BRANCH   6  34
ATOM     34  O   UNL     1       2.284   3.712  16.628  0.00  0.00    +0.000 OA
ATOM     35  H   UNL     1       2.425   2.745  16.554  0.00  0.00    +0.000 HD
ENDBRANCH   6  34
TORSDOF 10
ENDMDL
MODEL 3
REMARK VINA RESULT:      -8.4      0.735      1.028
REMARK  Name = 
REMARK  10 active torsions:
REMARK  status: ('A' for Active; 'I' for Inactive)
REMARK    1  A    between atoms: C_2  and  C_25
REMARK    2  A    between atoms: N_3  and  C_4
REMARK    3  A    between atoms: C_5  and  C_6
REMARK    4  A    between atoms: N_8  and  C_9
REMARK    5  A    between atoms: C_9  and  C_10
REMARK    6  A    between atoms: C_10  and  C_11
REMARK    7  A    between atoms: C_11  and  C_12
REMARK    8  A    between atoms: C_19  and  O_20
REMARK    9  A    between atoms: C_21  and  O_22
REMARK   10  A    between atoms: C_23  and  O_24
REMARK                            x       y       z     vdW  Elec       q    Type
REMARK                         _______ _______ _______ _____ _____    ______ ____
ROOT
ATOM      1  C   UNL     1       4.448   4.343  17.408  0.00  0.00    +0.000 A 
ATOM      2  C   UNL     1       5.231   4.832  18.472  0.00  0.00    +0.000 A 
ATOM      3  C   UNL     1       4.648   5.008  19.747  0.00  0.00    +0.000 A 
ATOM      4  C   UNL     1       3.298   4.717  19.928  0.00  0.00    +0.000 A 
ATOM      5  C   UNL     1       2.517   4.303  18.859  0.00  0.00    +0.000 A 
ATOM      6  C   UNL     1       3.081   4.133  17.602  0.00  0.00    +0.000 A 
ENDROOT
BRANCH   1   9
ATOM      7  O   UNL     1       5.155   6.212  15.397  0.00  0.00    +0.000 OA
ATOM      8  C   UNL     1       5.261   5.004  15.210  0.00  0.00    +0.000 C 
ATOM      9  N   UNL     1       4.952   4.018  16.132  0.00  0.00    +0.000 N 
ATOM     10  H   UNL     1       5.561   3.206  16.113  0.00  0.00    +0.000 HD
BRANCH   8  11
ATOM     11  C   UNL     1       5.870   4.492  13.954  0.00  0.00    +0.000 A 
ATOM     12  C   UNL     1       5.194   3.527  13.197  0.00  0.00    +0.000 A 
ATOM     13  C   UNL     1       5.770   3.040  12.020  0.00  0.00    +0.000 A 
ATOM     14  C   UNL     1       7.018   3.508  11.608  0.00  0.00    +0.000 A 
ATOM     15  C   UNL     1       7.695   4.465  12.365  0.00  0.00    +0.000 A 
ATOM     16  C   UNL     1       7.123   4.957  13.537  0.00  0.00    +0.000 A 
ENDBRANCH   8  11
ENDBRANCH   1   9
BRANCH   2  17
ATOM     17  C   UNL     1       6.578   5.419  18.219  0.00  0.00    +0.000 C 
ATOM     18  O   UNL     1       7.567   4.692  18.171  0.00  0.00    +0.000 OA
ATOM     19  N   UNL     1       6.629   6.773  17.947  0.00  0.00    +0.000 N 
ATOM     20  H   UNL     1       5.827   7.351  18.159  0.00  0.00    +0.000 HD
BRANCH  19  21
ATOM     21  C   UNL     1       7.882   7.419  17.601  0.00  0.00    +0.000 C 
BRANCH  21  22
ATOM     22  C   UNL     1       7.871   8.924  17.890  0.00  0.00    +0.000 C 
BRANCH  22  23
ATOM     23  C   UNL     1       8.927   9.313  18.926  0.00  0.00    +0.000 C 
BRANCH  23  24
ATOM     24  C   UNL     1       9.328  10.764  18.824  0.00  0.00    +0.000 A 
ATOM     25  C   UNL     1      10.238  11.316  19.736  0.00  0.00    +0.000 A 
ATOM     26  C   UNL     1      10.617  12.656  19.637  0.00  0.00    +0.000 A 
ATOM     27  C   UNL     1      10.083  13.459  18.632  0.00  0.00    +0.000 A 
ATOM     28  C   UNL     1       9.167  12.925  17.727  0.00  0.00    +0.000 A 
ATOM     29  C   UNL     1       8.789  11.584  17.823  0.00  0.00    +0.000 A 
ENDBRANCH  23  24
ENDBRANCH  22  23
ENDBRANCH  21  22
ENDBRANCH  19  21
ENDBRANCH   2  17
BRANCH   4  30
ATOM     30  O   UNL     1       2.678   4.855  21.139  0.00  0.00    +0.000 OA
ATOM     31  H   UNL     1       2.965   5.692  21.546  0.00  0.00    +0.000 HD
ENDBRANCH   4  30
BRANCH   5  32
ATOM     32  O   UNL     1       1.182   4.044  19.020  0.00  0.00    +0.000 OA
ATOM     33  H   UNL     1       0.929   3.565  18.203  0.00  0.00    +0.000 HD
ENDBRANCH   5  32
BRANCH   6  34
ATOM     34  O   UNL     1       2.296   3.712  16.558  0.00  0.00    +0.000 OA
ATOM     35  H   UNL     1       2.664   4.171  15.774  0.00  0.00    +0.000 HD
ENDBRANCH   6  34
TORSDOF 10
ENDMDL
MODEL 4
REMARK VINA RESULT:      -8.2      3.075      5.326
REMARK  Name = 
REMARK  10 active torsions:
REMARK  status: ('A' for Active; 'I' for Inactive)
REMARK    1  A    between atoms: C_2  and  C_25
REMARK    2  A    between atoms: N_3  and  C_4
REMARK    3  A    between atoms: C_5  and  C_6
REMARK    4  A    between atoms: N_8  and  C_9
REMARK    5  A    between atoms: C_9  and  C_10
REMARK    6  A    between atoms: C_10  and  C_11
REMARK    7  A    between atoms: C_11  and  C_12
REMARK    8  A    between atoms: C_19  and  O_20
REMARK    9  A    between atoms: C_21  and  O_22
REMARK   10  A    between atoms: C_23  and  O_24
REMARK                            x       y       z     vdW  Elec       q    Type
REMARK                         _______ _______ _______ _____ _____    ______ ____
ROOT
ATOM      1  C   UNL     1       3.665   5.649  19.345  0.00  0.00    +0.000 A 
ATOM      2  C   UNL     1       4.581   5.205  18.371  0.00  0.00    +0.000 A 
ATOM      3  C   UNL     1       4.895   3.830  18.280  0.00  0.00    +0.000 A 
ATOM      4  C   UNL     1       4.311   2.934  19.173  0.00  0.00    +0.000 A 
ATOM      5  C   UNL     1       3.465   3.389  20.174  0.00  0.00    +0.000 A 
ATOM      6  C   UNL     1       3.155   4.738  20.274  0.00  0.00    +0.000 A 
ENDROOT
BRANCH   1   9
ATOM      7  O   UNL     1       1.625   6.790  17.742  0.00  0.00    +0.000 OA
ATOM      8  C   UNL     1       2.193   7.444  18.609  0.00  0.00    +0.000 C 
ATOM      9  N   UNL     1       3.190   6.973  19.447  0.00  0.00    +0.000 N 
ATOM     10  H   UNL     1       3.167   7.341  20.393  0.00  0.00    +0.000 HD
BRANCH   8  11
ATOM     11  C   UNL     1       1.747   8.829  18.916  0.00  0.00    +0.000 A 
ATOM     12  C   UNL     1       1.064   9.089  20.111  0.00  0.00    +0.000 A 
ATOM     13  C   UNL     1       0.638  10.389  20.396  0.00  0.00    +0.000 A 
ATOM     14  C   UNL     1       0.886  11.421  19.490  0.00  0.00    +0.000 A 
ATOM     15  C   UNL     1       1.562  11.160  18.298  0.00  0.00    +0.000 A 
ATOM     16  C   UNL     1       1.993   9.867  18.010  0.00  0.00    +0.000 A 
ENDBRANCH   8  11
ENDBRANCH   1   9
BRANCH   2  17
ATOM     17  C   UNL     1       5.423   6.178  17.618  0.00  0.00    +0.000 C 
ATOM     18  O   UNL     1       4.913   6.909  16.773  0.00  0.00    +0.000 OA
ATOM     19  N   UNL     1       6.749   6.277  17.993  0.00  0.00    +0.000 N 
ATOM     20  H   UNL     1       7.157   5.552  18.567  0.00  0.00    +0.000 HD
BRANCH  19  21
ATOM     21  C   UNL     1       7.628   7.258  17.381  0.00  0.00    +0.000 C 
BRANCH  21  22
ATOM     22  C   UNL     1       8.223   8.235  18.399  0.00  0.00    +0.000 C 
BRANCH  22  23
ATOM     23  C   UNL     1       8.285   9.663  17.852  0.00  0.00    +0.000 C 
BRANCH  23  24
ATOM     24  C   UNL     1       9.319  10.506  18.556  0.00  0.00    +0.000 A 
ATOM     25  C   UNL     1       9.317  10.614  19.953  0.00  0.00    +0.000 A 
ATOM     26  C   UNL     1      10.279  11.385  20.606  0.00  0.00    +0.000 A 
ATOM     27  C   UNL     1      11.247  12.065  19.869  0.00  0.00    +0.000 A 
ATOM     28  C   UNL     1      11.251  11.976  18.478  0.00  0.00    +0.000 A 
ATOM     29  C   UNL     1      10.290  11.201  17.823  0.00  0.00    +0.000 A 
ENDBRANCH  23  24
ENDBRANCH  22  23
ENDBRANCH  21  22
ENDBRANCH  19  21
ENDBRANCH   2  17
BRANCH   4  30
ATOM     30  O   UNL     1       4.566   1.592  19.129  0.00  0.00    +0.000 OA
ATOM     31  H   UNL     1       4.365   1.205  20.000  0.00  0.00    +0.000 HD
ENDBRANCH   4  30
BRANCH   5  32
ATOM     32  O   UNL     1       2.911   2.520  21.076  0.00  0.00    +0.000 OA
ATOM     33  H   UNL     1       3.682   2.088  21.500  0.00  0.00    +0.000 HD
ENDBRANCH   5  32
BRANCH   6  34
ATOM     34  O   UNL     1       2.308   5.168  21.263  0.00  0.00    +0.000 OA
ATOM     35  H   UNL     1       2.054   4.350  21.740  0.00  0.00    +0.000 HD
ENDBRANCH   6  34
TORSDOF 10
ENDMDL
MODEL 5
REMARK VINA RESULT:      -8.2      4.291      5.782
REMARK  Name = 
REMARK  10 active torsions:
REMARK  status: ('A' for Active; 'I' for Inactive)
REMARK    1  A    between atoms: C_2  and  C_25
REMARK    2  A    between atoms: N_3  and  C_4
REMARK    3  A    between atoms: C_5  and  C_6
REMARK    4  A    between atoms: N_8  and  C_9
REMARK    5  A    between atoms: C_9  and  C_10
REMARK    6  A    between atoms: C_10  and  C_11
REMARK    7  A    between atoms: C_11  and  C_12
REMARK    8  A    between atoms: C_19  and  O_20
REMARK    9  A    between atoms: C_21  and  O_22
REMARK   10  A    between atoms: C_23  and  O_24
REMARK                            x       y       z     vdW  Elec       q    Type
REMARK                         _______ _______ _______ _____ _____    ______ ____
ROOT
ATOM      1  C   UNL     1       3.860   4.422  17.758  0.00  0.00    +0.000 A 
ATOM      2  C   UNL     1       3.539   5.553  18.535  0.00  0.00    +0.000 A 
ATOM      3  C   UNL     1       3.062   5.383  19.854  0.00  0.00    +0.000 A 
ATOM      4  C   UNL     1       2.895   4.097  20.362  0.00  0.00    +0.000 A 
ATOM      5  C   UNL     1       3.146   2.989  19.566  0.00  0.00    +0.000 A 
ATOM      6  C   UNL     1       3.609   3.146  18.267  0.00  0.00    +0.000 A 
ENDROOT
BRANCH   1   9
ATOM      7  O   UNL     1       6.646   4.414  17.238  0.00  0.00    +0.000 OA
ATOM      8  C   UNL     1       5.829   4.478  16.326  0.00  0.00    +0.000 C 
ATOM      9  N   UNL     1       4.452   4.476  16.479  0.00  0.00    +0.000 N 
ATOM     10  H   UNL     1       3.939   3.984  15.755  0.00  0.00    +0.000 HD
BRANCH   8  11
ATOM     11  C   UNL     1       6.281   4.442  14.910  0.00  0.00    +0.000 A 
ATOM     12  C   UNL     1       5.618   3.621  13.989  0.00  0.00    +0.000 A 
ATOM     13  C   UNL     1       6.048   3.581  12.660  0.00  0.00    +0.000 A 
ATOM     14  C   UNL     1       7.139   4.352  12.256  0.00  0.00    +0.000 A 
ATOM     15  C   UNL     1       7.802   5.167  13.174  0.00  0.00    +0.000 A 
ATOM     16  C   UNL     1       7.375   5.213  14.500  0.00  0.00    +0.000 A 
ENDBRANCH   8  11
ENDBRANCH   1   9
BRANCH   2  17
ATOM     17  C   UNL     1       3.434   6.902  17.908  0.00  0.00    +0.000 C 
ATOM     18  O   UNL     1       4.141   7.191  16.947  0.00  0.00    +0.000 OA
ATOM     19  N   UNL     1       2.451   7.742  18.395  0.00  0.00    +0.000 N 
ATOM     20  H   UNL     1       2.012   7.530  19.281  0.00  0.00    +0.000 HD
BRANCH  19  21
ATOM     21  C   UNL     1       2.212   9.041  17.791  0.00  0.00    +0.000 C 
BRANCH  21  22
ATOM     22  C   UNL     1       0.816   9.589  18.103  0.00  0.00    +0.000 C 
BRANCH  22  23
ATOM     23  C   UNL     1       0.875  10.814  19.019  0.00  0.00    +0.000 C 
BRANCH  23  24
ATOM     24  C   UNL     1       0.323  10.532  20.395  0.00  0.00    +0.000 A 
ATOM     25  C   UNL     1       0.238   9.218  20.871  0.00  0.00    +0.000 A 
ATOM     26  C   UNL     1      -0.263   8.957  22.148  0.00  0.00    +0.000 A 
ATOM     27  C   UNL     1      -0.692  10.007  22.957  0.00  0.00    +0.000 A 
ATOM     28  C   UNL     1      -0.624  11.318  22.489  0.00  0.00    +0.000 A 
ATOM     29  C   UNL     1      -0.121  11.580  21.212  0.00  0.00    +0.000 A 
ENDBRANCH  23  24
ENDBRANCH  22  23
ENDBRANCH  21  22
ENDBRANCH  19  21
ENDBRANCH   2  17
BRANCH   4  30
ATOM     30  O   UNL     1       2.449   3.867  21.633  0.00  0.00    +0.000 OA
ATOM     31  H   UNL     1       1.755   4.516  21.845  0.00  0.00    +0.000 HD
ENDBRANCH   4  30
BRANCH   5  32
ATOM     32  O   UNL     1       2.954   1.720  20.045  0.00  0.00    +0.000 OA
ATOM     33  H   UNL     1       2.128   1.421  19.611  0.00  0.00    +0.000 HD
ENDBRANCH   5  32
BRANCH   6  34
ATOM     34  O   UNL     1       3.863   2.038  17.499  0.00  0.00    +0.000 OA
ATOM     35  H   UNL     1       4.826   1.886  17.600  0.00  0.00    +0.000 HD
ENDBRANCH   6  34
TORSDOF 10
ENDMDL
MODEL 6
REMARK VINA RESULT:      -8.2      1.869      5.278
REMARK  Name = 
REMARK  10 active torsions:
REMARK  status: ('A' for Active; 'I' for Inactive)
REMARK    1  A    between atoms: C_2  and  C_25
REMARK    2  A    between atoms: N_3  and  C_4
REMARK    3  A    between atoms: C_5  and  C_6
REMARK    4  A    between atoms: N_8  and  C_9
REMARK    5  A    between atoms: C_9  and  C_10
REMARK    6  A    between atoms: C_10  and  C_11
REMARK    7  A    between atoms: C_11  and  C_12
REMARK    8  A    between atoms: C_19  and  O_20
REMARK    9  A    between atoms: C_21  and  O_22
REMARK   10  A    between atoms: C_23  and  O_24
REMARK                            x       y       z     vdW  Elec       q    Type
REMARK                         _______ _______ _______ _____ _____    ______ ____
ROOT
ATOM      1  C   UNL     1       6.142   4.498  16.669  0.00  0.00    +0.000 A 
ATOM      2  C   UNL     1       6.927   5.660  16.526  0.00  0.00    +0.000 A 
ATOM      3  C   UNL     1       7.479   5.981  15.266  0.00  0.00    +0.000 A 
ATOM      4  C   UNL     1       7.257   5.131  14.185  0.00  0.00    +0.000 A 
ATOM      5  C   UNL     1       6.542   3.954  14.350  0.00  0.00    +0.000 A 
ATOM      6  C   UNL     1       6.002   3.627  15.587  0.00  0.00    +0.000 A 
ENDROOT
BRANCH   1   9
ATOM      7  O   UNL     1       3.571   5.441  17.403  0.00  0.00    +0.000 OA
ATOM      8  C   UNL     1       4.196   4.669  18.123  0.00  0.00    +0.000 C 
ATOM      9  N   UNL     1       5.448   4.146  17.845  0.00  0.00    +0.000 N 
ATOM     10  H   UNL     1       5.592   3.188  18.150  0.00  0.00    +0.000 HD
BRANCH   8  11
ATOM     11  C   UNL     1       3.568   4.118  19.354  0.00  0.00    +0.000 A 
ATOM     12  C   UNL     1       3.981   2.875  19.848  0.00  0.00    +0.000 A 
ATOM     13  C   UNL     1       3.387   2.354  21.000  0.00  0.00    +0.000 A 
ATOM     14  C   UNL     1       2.380   3.069  21.651  0.00  0.00    +0.000 A 
ATOM     15  C   UNL     1       1.965   4.306  21.156  0.00  0.00    +0.000 A 
ATOM     16  C   UNL     1       2.558   4.831  20.009  0.00  0.00    +0.000 A 
ENDBRANCH   8  11
ENDBRANCH   1   9
BRANCH   2  17
ATOM     17  C   UNL     1       7.409   6.405  17.725  0.00  0.00    +0.000 C 
ATOM     18  O   UNL     1       7.566   5.819  18.792  0.00  0.00    +0.000 OA
ATOM     19  N   UNL     1       7.755   7.730  17.539  0.00  0.00    +0.000 N 
ATOM     20  H   UNL     1       7.456   8.207  16.699  0.00  0.00    +0.000 HD
BRANCH  19  21
ATOM     21  C   UNL     1       8.318   8.515  18.623  0.00  0.00    +0.000 C 
BRANCH  21  22
ATOM     22  C   UNL     1       8.852   9.872  18.155  0.00  0.00    +0.000 C 
BRANCH  22  23
ATOM     23  C   UNL     1       9.395  10.703  19.319  0.00  0.00    +0.000 C 
BRANCH  23  24
ATOM     24  C   UNL     1      10.358  11.773  18.865  0.00  0.00    +0.000 A 
ATOM     25  C   UNL     1      11.434  12.151  19.678  0.00  0.00    +0.000 A 
ATOM     26  C   UNL     1      12.332  13.133  19.255  0.00  0.00    +0.000 A 
ATOM     27  C   UNL     1      12.158  13.752  18.019  0.00  0.00    +0.000 A 
ATOM     28  C   UNL     1      11.083  13.392  17.207  0.00  0.00    +0.000 A 
ATOM     29  C   UNL     1      10.186  12.408  17.628  0.00  0.00    +0.000 A 
ENDBRANCH  23  24
ENDBRANCH  22  23
ENDBRANCH  21  22
ENDBRANCH  19  21
ENDBRANCH   2  17
BRANCH   4  30
ATOM     30  O   UNL     1       7.754   5.392  12.939  0.00  0.00    +0.000 OA
ATOM     31  H   UNL     1       8.257   4.618  12.631  0.00  0.00    +0.000 HD
ENDBRANCH   4  30
BRANCH   5  32
ATOM     32  O   UNL     1       6.346   3.096  13.301  0.00  0.00    +0.000 OA
ATOM     33  H   UNL     1       6.733   2.249  13.607  0.00  0.00    +0.000 HD
ENDBRANCH   5  32
BRANCH   6  34
ATOM     34  O   UNL     1       5.288   2.465  15.729  0.00  0.00    +0.000 OA
ATOM     35  H   UNL     1       5.181   2.130  14.814  0.00  0.00    +0.000 HD
ENDBRANCH   6  34
TORSDOF 10
ENDMDL
MODEL 7
REMARK VINA RESULT:      -8.2      1.874      5.235
REMARK  Name = 
REMARK  10 active torsions:
REMARK  status: ('A' for Active; 'I' for Inactive)
REMARK    1  A    between atoms: C_2  and  C_25
REMARK    2  A    between atoms: N_3  and  C_4
REMARK    3  A    between atoms: C_5  and  C_6
REMARK    4  A    between atoms: N_8  and  C_9
REMARK    5  A    between atoms: C_9  and  C_10
REMARK    6  A    between atoms: C_10  and  C_11
REMARK    7  A    between atoms: C_11  and  C_12
REMARK    8  A    between atoms: C_19  and  O_20
REMARK    9  A    between atoms: C_21  and  O_22
REMARK   10  A    between atoms: C_23  and  O_24
REMARK                            x       y       z     vdW  Elec       q    Type
REMARK                         _______ _______ _______ _____ _____    ______ ____
ROOT
ATOM      1  C   UNL     1       6.130   4.523  16.695  0.00  0.00    +0.000 A 
ATOM      2  C   UNL     1       6.924   5.682  16.581  0.00  0.00    +0.000 A 
ATOM      3  C   UNL     1       7.493   6.021  15.333  0.00  0.00    +0.000 A 
ATOM      4  C   UNL     1       7.279   5.190  14.236  0.00  0.00    +0.000 A 
ATOM      5  C   UNL     1       6.555   4.015  14.373  0.00  0.00    +0.000 A 
ATOM      6  C   UNL     1       5.998   3.671  15.597  0.00  0.00    +0.000 A 
ENDROOT
BRANCH   1   9
ATOM      7  O   UNL     1       3.601   5.546  17.466  0.00  0.00    +0.000 OA
ATOM      8  C   UNL     1       4.191   4.721  18.155  0.00  0.00    +0.000 C 
ATOM      9  N   UNL     1       5.420   4.156  17.857  0.00  0.00    +0.000 N 
ATOM     10  H   UNL     1       5.523   3.182  18.124  0.00  0.00    +0.000 HD
BRANCH   8  11
ATOM     11  C   UNL     1       3.538   4.151  19.364  0.00  0.00    +0.000 A 
ATOM     12  C   UNL     1       2.593   4.909  20.065  0.00  0.00    +0.000 A 
ATOM     13  C   UNL     1       1.985   4.377  21.206  0.00  0.00    +0.000 A 
ATOM     14  C   UNL     1       2.326   3.098  21.646  0.00  0.00    +0.000 A 
ATOM     15  C   UNL     1       3.272   2.344  20.951  0.00  0.00    +0.000 A 
ATOM     16  C   UNL     1       3.878   2.868  19.810  0.00  0.00    +0.000 A 
ENDBRANCH   8  11
ENDBRANCH   1   9
BRANCH   2  17
ATOM     17  C   UNL     1       7.395   6.405  17.798  0.00  0.00    +0.000 C 
ATOM     18  O   UNL     1       7.437   5.826  18.880  0.00  0.00    +0.000 OA
ATOM     19  N   UNL     1       7.865   7.692  17.617  0.00  0.00    +0.000 N 
ATOM     20  H   UNL     1       7.659   8.177  16.755  0.00  0.00    +0.000 HD
BRANCH  19  21
ATOM     21  C   UNL     1       8.427   8.445  18.724  0.00  0.00    +0.000 C 
BRANCH  21  22
ATOM     22  C   UNL     1       8.836   9.866  18.325  0.00  0.00    +0.000 C 
BRANCH  22  23
ATOM     23  C   UNL     1       9.540  10.600  19.468  0.00  0.00    +0.000 C 
BRANCH  23  24
ATOM     24  C   UNL     1      10.370  11.763  18.984  0.00  0.00    +0.000 A 
ATOM     25  C   UNL     1      10.756  11.849  17.640  0.00  0.00    +0.000 A 
ATOM     26  C   UNL     1      11.515  12.930  17.187  0.00  0.00    +0.000 A 
ATOM     27  C   UNL     1      11.903  13.930  18.076  0.00  0.00    +0.000 A 
ATOM     28  C   UNL     1      11.534  13.849  19.418  0.00  0.00    +0.000 A 
ATOM     29  C   UNL     1      10.773  12.770  19.871  0.00  0.00    +0.000 A 
ENDBRANCH  23  24
ENDBRANCH  22  23
ENDBRANCH  21  22
ENDBRANCH  19  21
ENDBRANCH   2  17
BRANCH   4  30
ATOM     30  O   UNL     1       7.793   5.469  13.000  0.00  0.00    +0.000 OA
ATOM     31  H   UNL     1       7.271   4.995  12.328  0.00  0.00    +0.000 HD
ENDBRANCH   4  30
BRANCH   5  32
ATOM     32  O   UNL     1       6.367   3.175  13.308  0.00  0.00    +0.000 OA
ATOM     33  H   UNL     1       6.851   3.606  12.572  0.00  0.00    +0.000 HD
ENDBRANCH   5  32
BRANCH   6  34
ATOM     34  O   UNL     1       5.276   2.510  15.711  0.00  0.00    +0.000 OA
ATOM     35  H   UNL     1       5.855   1.822  15.323  0.00  0.00    +0.000 HD
ENDBRANCH   6  34
TORSDOF 10
ENDMDL
MODEL 8
REMARK VINA RESULT:      -8.1      0.694      1.316
REMARK  Name = 
REMARK  10 active torsions:
REMARK  status: ('A' for Active; 'I' for Inactive)
REMARK    1  A    between atoms: C_2  and  C_25
REMARK    2  A    between atoms: N_3  and  C_4
REMARK    3  A    between atoms: C_5  and  C_6
REMARK    4  A    between atoms: N_8  and  C_9
REMARK    5  A    between atoms: C_9  and  C_10
REMARK    6  A    between atoms: C_10  and  C_11
REMARK    7  A    between atoms: C_11  and  C_12
REMARK    8  A    between atoms: C_19  and  O_20
REMARK    9  A    between atoms: C_21  and  O_22
REMARK   10  A    between atoms: C_23  and  O_24
REMARK                            x       y       z     vdW  Elec       q    Type
REMARK                         _______ _______ _______ _____ _____    ______ ____
ROOT
ATOM      1  C   UNL     1       4.427   4.399  17.426  0.00  0.00    +0.000 A 
ATOM      2  C   UNL     1       5.202   4.921  18.481  0.00  0.00    +0.000 A 
ATOM      3  C   UNL     1       4.613   5.119  19.750  0.00  0.00    +0.000 A 
ATOM      4  C   UNL     1       3.266   4.816  19.934  0.00  0.00    +0.000 A 
ATOM      5  C   UNL     1       2.494   4.368  18.872  0.00  0.00    +0.000 A 
ATOM      6  C   UNL     1       3.062   4.177  17.621  0.00  0.00    +0.000 A 
ENDROOT
BRANCH   1   9
ATOM      7  O   UNL     1       5.107   6.229  15.371  0.00  0.00    +0.000 OA
ATOM      8  C   UNL     1       5.233   5.019  15.213  0.00  0.00    +0.000 C 
ATOM      9  N   UNL     1       4.940   4.051  16.159  0.00  0.00    +0.000 N 
ATOM     10  H   UNL     1       5.562   3.249  16.161  0.00  0.00    +0.000 HD
BRANCH   8  11
ATOM     11  C   UNL     1       5.854   4.486  13.971  0.00  0.00    +0.000 A 
ATOM     12  C   UNL     1       7.100   4.970  13.554  0.00  0.00    +0.000 A 
ATOM     13  C   UNL     1       7.679   4.475  12.383  0.00  0.00    +0.000 A 
ATOM     14  C   UNL     1       7.014   3.507  11.630  0.00  0.00    +0.000 A 
ATOM     15  C   UNL     1       5.770   3.028  12.043  0.00  0.00    +0.000 A 
ATOM     16  C   UNL     1       5.189   3.516  13.212  0.00  0.00    +0.000 A 
ENDBRANCH   8  11
ENDBRANCH   1   9
BRANCH   2  17
ATOM     17  C   UNL     1       6.543   5.518  18.218  0.00  0.00    +0.000 C 
ATOM     18  O   UNL     1       7.549   4.815  18.262  0.00  0.00    +0.000 OA
ATOM     19  N   UNL     1       6.571   6.844  17.832  0.00  0.00    +0.000 N 
ATOM     20  H   UNL     1       5.750   7.418  17.969  0.00  0.00    +0.000 HD
BRANCH  19  21
ATOM     21  C   UNL     1       7.820   7.490  17.468  0.00  0.00    +0.000 C 
BRANCH  21  22
ATOM     22  C   UNL     1       8.210   8.611  18.437  0.00  0.00    +0.000 C 
BRANCH  22  23
ATOM     23  C   UNL     1       8.703   9.857  17.700  0.00  0.00    +0.000 C 
BRANCH  23  24
ATOM     24  C   UNL     1       9.132  10.954  18.643  0.00  0.00    +0.000 A 
ATOM     25  C   UNL     1       9.638  10.643  19.911  0.00  0.00    +0.000 A 
ATOM     26  C   UNL     1      10.045  11.657  20.781  0.00  0.00    +0.000 A 
ATOM     27  C   UNL     1       9.940  12.991  20.395  0.00  0.00    +0.000 A 
ATOM     28  C   UNL     1       9.425  13.313  19.140  0.00  0.00    +0.000 A 
ATOM     29  C   UNL     1       9.021  12.300  18.268  0.00  0.00    +0.000 A 
ENDBRANCH  23  24
ENDBRANCH  22  23
ENDBRANCH  21  22
ENDBRANCH  19  21
ENDBRANCH   2  17
BRANCH   4  30
ATOM     30  O   UNL     1       2.641   4.974  21.140  0.00  0.00    +0.000 OA
ATOM     31  H   UNL     1       1.971   4.275  21.242  0.00  0.00    +0.000 HD
ENDBRANCH   4  30
BRANCH   5  32
ATOM     32  O   UNL     1       1.161   4.097  19.035  0.00  0.00    +0.000 OA
ATOM     33  H   UNL     1       1.141   3.375  19.698  0.00  0.00    +0.000 HD
ENDBRANCH   5  32
BRANCH   6  34
ATOM     34  O   UNL     1       2.286   3.723  16.585  0.00  0.00    +0.000 OA
ATOM     35  H   UNL     1       2.014   4.535  16.109  0.00  0.00    +0.000 HD
ENDBRANCH   6  34
TORSDOF 10
ENDMDL
MODEL 9
REMARK VINA RESULT:      -8.1      4.383      6.079
REMARK  Name = 
REMARK  10 active torsions:
REMARK  status: ('A' for Active; 'I' for Inactive)
REMARK    1  A    between atoms: C_2  and  C_25
REMARK    2  A    between atoms: N_3  and  C_4
REMARK    3  A    between atoms: C_5  and  C_6
REMARK    4  A    between atoms: N_8  and  C_9
REMARK    5  A    between atoms: C_9  and  C_10
REMARK    6  A    between atoms: C_10  and  C_11
REMARK    7  A    between atoms: C_11  and  C_12
REMARK    8  A    between atoms: C_19  and  O_20
REMARK    9  A    between atoms: C_21  and  O_22
REMARK   10  A    between atoms: C_23  and  O_24
REMARK                            x       y       z     vdW  Elec       q    Type
REMARK                         _______ _______ _______ _____ _____    ______ ____
ROOT
ATOM      1  C   UNL     1       3.033   4.198  17.647  0.00  0.00    +0.000 A 
ATOM      2  C   UNL     1       2.757   5.256  18.537  0.00  0.00    +0.000 A 
ATOM      3  C   UNL     1       2.058   4.997  19.736  0.00  0.00    +0.000 A 
ATOM      4  C   UNL     1       1.630   3.700  20.013  0.00  0.00    +0.000 A 
ATOM      5  C   UNL     1       1.844   2.679  19.100  0.00  0.00    +0.000 A 
ATOM      6  C   UNL     1       2.524   2.925  17.915  0.00  0.00    +0.000 A 
ENDROOT
BRANCH   1   9
ATOM      7  O   UNL     1       5.863   4.075  17.565  0.00  0.00    +0.000 OA
ATOM      8  C   UNL     1       5.205   4.257  16.547  0.00  0.00    +0.000 C 
ATOM      9  N   UNL     1       3.823   4.320  16.485  0.00  0.00    +0.000 N 
ATOM     10  H   UNL     1       3.410   3.917  15.650  0.00  0.00    +0.000 HD
BRANCH   8  11
ATOM     11  C   UNL     1       5.875   4.308  15.220  0.00  0.00    +0.000 A 
ATOM     12  C   UNL     1       7.036   5.074  15.058  0.00  0.00    +0.000 A 
ATOM     13  C   UNL     1       7.661   5.128  13.809  0.00  0.00    +0.000 A 
ATOM     14  C   UNL     1       7.125   4.428  12.728  0.00  0.00    +0.000 A 
ATOM     15  C   UNL     1       5.964   3.670  12.889  0.00  0.00    +0.000 A 
ATOM     16  C   UNL     1       5.339   3.609  14.133  0.00  0.00    +0.000 A 
ENDBRANCH   8  11
ENDBRANCH   1   9
BRANCH   2  17
ATOM     17  C   UNL     1       2.947   6.674  18.115  0.00  0.00    +0.000 C 
ATOM     18  O   UNL     1       4.034   7.047  17.683  0.00  0.00    +0.000 OA
ATOM     19  N   UNL     1       1.831   7.488  18.144  0.00  0.00    +0.000 N 
ATOM     20  H   UNL     1       1.013   7.189  18.656  0.00  0.00    +0.000 HD
BRANCH  19  21
ATOM     21  C   UNL     1       1.895   8.859  17.669  0.00  0.00    +0.000 C 
BRANCH  21  22
ATOM     22  C   UNL     1       1.616   9.881  18.775  0.00  0.00    +0.000 C 
BRANCH  22  23
ATOM     23  C   UNL     1       0.116  10.081  19.002  0.00  0.00    +0.000 C 
BRANCH  23  24
ATOM     24  C   UNL     1      -0.238  10.183  20.465  0.00  0.00    +0.000 A 
ATOM     25  C   UNL     1      -0.874  11.327  20.964  0.00  0.00    +0.000 A 
ATOM     26  C   UNL     1      -1.212  11.419  22.316  0.00  0.00    +0.000 A 
ATOM     27  C   UNL     1      -0.908  10.372  23.183  0.00  0.00    +0.000 A 
ATOM     28  C   UNL     1      -0.264   9.234  22.700  0.00  0.00    +0.000 A 
ATOM     29  C   UNL     1       0.071   9.140  21.348  0.00  0.00    +0.000 A 
ENDBRANCH  23  24
ENDBRANCH  22  23
ENDBRANCH  21  22
ENDBRANCH  19  21
ENDBRANCH   2  17
BRANCH   4  30
ATOM     30  O   UNL     1       0.959   3.384  21.161  0.00  0.00    +0.000 OA
ATOM     31  H   UNL     1       1.259   2.511  21.471  0.00  0.00    +0.000 HD
ENDBRANCH   4  30
BRANCH   5  32
ATOM     32  O   UNL     1       1.399   1.408  19.348  0.00  0.00    +0.000 OA
ATOM     33  H   UNL     1       1.799   0.868  18.633  0.00  0.00    +0.000 HD
ENDBRANCH   5  32
BRANCH   6  34
ATOM     34  O   UNL     1       2.736   1.900  17.029  0.00  0.00    +0.000 OA
ATOM     35  H   UNL     1       2.023   1.257  17.223  0.00  0.00    +0.000 HD
ENDBRANCH   6  34
TORSDOF 10
ENDMDL
