MODEL 1
REMARK VINA RESULT:      -7.7      0.000      0.000
REMARK  Name = 
REMARK  4 active torsions:
REMARK  status: ('A' for Active; 'I' for Inactive)
REMARK    1  A    between atoms: C_2  and  C_3
REMARK    2  A    between atoms: N_7  and  C_8
REMARK    3  A    between atoms: C_12  and  C_14
REMARK    4  A    between atoms: C_21  and  O_22
REMARK                            x       y       z     vdW  Elec       q    Type
REMARK                         _______ _______ _______ _____ _____    ______ ____
ROOT
ATOM      1  C   UNL     1       4.376   5.962  18.312  0.00  0.00    +0.000 C 
ATOM      2  C   UNL     1       4.425   7.083  17.282  0.00  0.00    +0.000 C 
ATOM      3  C   UNL     1       5.336   6.640  16.148  0.00  0.00    +0.000 C 
ATOM      4  N   UNL     1       6.486   5.848  16.602  0.00  0.00    +0.000 N 
ATOM      5  C   UNL     1       7.101   4.823  15.873  0.00  0.00    +0.000 C 
ATOM      6  O   UNL     1       7.972   4.105  16.379  0.00  0.00    +0.000 OA
ATOM      7  C   UNL     1       6.910   6.107  17.985  0.00  0.00    +0.000 C 
ATOM      8  C   UNL     1       5.768   5.793  18.981  0.00  0.00    +0.000 C 
ENDROOT
BRANCH   1  13
ATOM      9  C   UNL     1       0.751   9.472  19.329  0.00  0.00    +0.000 A 
ATOM     10  C   UNL     1       1.679   9.405  18.297  0.00  0.00    +0.000 A 
ATOM     11  C   UNL     1       2.560   8.331  18.257  0.00  0.00    +0.000 A 
ATOM     12  C   UNL     1       2.501   7.342  19.232  0.00  0.00    +0.000 A 
ATOM     13  N   UNL     1       3.326   6.254  19.269  0.00  0.00    +0.000 N 
ATOM     14  N   UNL     1       1.611   7.404  20.241  0.00  0.00    +0.000 NA
ATOM     15  C   UNL     1       0.759   8.457  20.272  0.00  0.00    +0.000 A 
ATOM     16  H   UNL     1       3.129   5.627  20.040  0.00  0.00    +0.000 HD
BRANCH   9  18
ATOM     17  N   UNL     1      -0.933  11.425  19.498  0.00  0.00    +0.000 NA
ATOM     18  C   UNL     1      -0.174  10.549  19.418  0.00  0.00    +0.000 C 
ENDBRANCH   9  18
ENDBRANCH   1  13
BRANCH   5  19
ATOM     19  C   UNL     1       6.652   4.490  14.487  0.00  0.00    +0.000 A 
ATOM     20  C   UNL     1       5.452   3.820  14.210  0.00  0.00    +0.000 A 
ATOM     21  C   UNL     1       5.183   3.348  12.924  0.00  0.00    +0.000 A 
ATOM     22  C   UNL     1       6.054   3.642  11.880  0.00  0.00    +0.000 A 
ATOM     23  C   UNL     1       7.185   4.422  12.118  0.00  0.00    +0.000 A 
ATOM     24  C   UNL     1       7.489   4.837  13.417  0.00  0.00    +0.000 A 
ENDBRANCH   5  19
BRANCH   8  25
ATOM     25  O   UNL     1       5.918   4.454  19.478  0.00  0.00    +0.000 OA
ATOM     26  H   UNL     1       5.133   3.949  19.199  0.00  0.00    +0.000 HD
ENDBRANCH   8  25
TORSDOF 4
ENDMDL
MODEL 2
REMARK VINA RESULT:      -7.4      3.353      8.567
REMARK  Name = 
REMARK  4 active torsions:
REMARK  status: ('A' for Active; 'I' for Inactive)
REMARK    1  A    between atoms: C_2  and  C_3
REMARK    2  A    between atoms: N_7  and  C_8
REMARK    3  A    between atoms: C_12  and  C_14
REMARK    4  A    between atoms: C_21  and  O_22
REMARK                            x       y       z     vdW  Elec       q    Type
REMARK                         _______ _______ _______ _____ _____    ______ ____
ROOT
ATOM      1  C   UNL     1       1.895   8.263  19.517  0.00  0.00    +0.000 C 
ATOM      2  C   UNL     1       1.071   8.708  18.315  0.00  0.00    +0.000 C 
ATOM      3  C   UNL     1       0.808  10.199  18.452  0.00  0.00    +0.000 C 
ATOM      4  N   UNL     1       0.590  10.626  19.840  0.00  0.00    +0.000 N 
ATOM      5  C   UNL     1       0.942  11.874  20.367  0.00  0.00    +0.000 C 
ATOM      6  O   UNL     1       0.860  12.109  21.579  0.00  0.00    +0.000 OA
ATOM      7  C   UNL     1       0.071   9.582  20.736  0.00  0.00    +0.000 C 
ATOM      8  C   UNL     1       1.050   8.387  20.815  0.00  0.00    +0.000 C 
ENDROOT
BRANCH   1  13
ATOM      9  C   UNL     1       5.076   5.610  16.461  0.00  0.00    +0.000 A 
ATOM     10  C   UNL     1       4.782   6.968  16.497  0.00  0.00    +0.000 A 
ATOM     11  C   UNL     1       3.869   7.431  17.438  0.00  0.00    +0.000 A 
ATOM     12  C   UNL     1       3.273   6.545  18.328  0.00  0.00    +0.000 A 
ATOM     13  N   UNL     1       2.368   6.912  19.282  0.00  0.00    +0.000 N 
ATOM     14  N   UNL     1       3.546   5.225  18.293  0.00  0.00    +0.000 NA
ATOM     15  C   UNL     1       4.434   4.786  17.371  0.00  0.00    +0.000 A 
ATOM     16  H   UNL     1       2.051   6.139  19.855  0.00  0.00    +0.000 HD
BRANCH   9  18
ATOM     17  N   UNL     1       6.762   4.647  14.755  0.00  0.00    +0.000 NA
ATOM     18  C   UNL     1       6.002   5.082  15.519  0.00  0.00    +0.000 C 
ENDBRANCH   9  18
ENDBRANCH   1  13
BRANCH   5  19
ATOM     19  C   UNL     1       1.532  12.937  19.497  0.00  0.00    +0.000 A 
ATOM     20  C   UNL     1       2.702  12.753  18.748  0.00  0.00    +0.000 A 
ATOM     21  C   UNL     1       3.323  13.835  18.124  0.00  0.00    +0.000 A 
ATOM     22  C   UNL     1       2.721  15.089  18.145  0.00  0.00    +0.000 A 
ATOM     23  C   UNL     1       1.488  15.256  18.775  0.00  0.00    +0.000 A 
ATOM     24  C   UNL     1       0.900  14.188  19.457  0.00  0.00    +0.000 A 
ENDBRANCH   5  19
BRANCH   8  25
ATOM     25  O   UNL     1       1.913   8.546  21.952  0.00  0.00    +0.000 OA
ATOM     26  H   UNL     1       2.225   9.470  21.955  0.00  0.00    +0.000 HD
ENDBRANCH   8  25
TORSDOF 4
ENDMDL
MODEL 3
REMARK VINA RESULT:      -7.4      4.017      9.151
REMARK  Name = 
REMARK  4 active torsions:
REMARK  status: ('A' for Active; 'I' for Inactive)
REMARK    1  A    between atoms: C_2  and  C_3
REMARK    2  A    between atoms: N_7  and  C_8
REMARK    3  A    between atoms: C_12  and  C_14
REMARK    4  A    between atoms: C_21  and  O_22
REMARK                            x       y       z     vdW  Elec       q    Type
REMARK                         _______ _______ _______ _____ _____    ______ ____
ROOT
ATOM      1  C   UNL     1       1.068   9.148  20.975  0.00  0.00    +0.000 C 
ATOM      2  C   UNL     1       0.347   9.489  19.677  0.00  0.00    +0.000 C 
ATOM      3  C   UNL     1       0.239  11.002  19.582  0.00  0.00    +0.000 C 
ATOM      4  N   UNL     1       0.012  11.651  20.879  0.00  0.00    +0.000 N 
ATOM      5  C   UNL     1       0.474  12.923  21.239  0.00  0.00    +0.000 C 
ATOM      6  O   UNL     1       0.368  13.343  22.398  0.00  0.00    +0.000 OA
ATOM      7  C   UNL     1      -0.652  10.811  21.886  0.00  0.00    +0.000 C 
ATOM      8  C   UNL     1       0.189   9.549  22.192  0.00  0.00    +0.000 C 
ENDROOT
BRANCH   1  13
ATOM      9  C   UNL     1       3.458   5.621  18.086  0.00  0.00    +0.000 A 
ATOM     10  C   UNL     1       3.263   6.980  17.874  0.00  0.00    +0.000 A 
ATOM     11  C   UNL     1       2.570   7.715  18.830  0.00  0.00    +0.000 A 
ATOM     12  C   UNL     1       2.091   7.093  19.978  0.00  0.00    +0.000 A 
ATOM     13  N   UNL     1       1.403   7.737  20.965  0.00  0.00    +0.000 N 
ATOM     14  N   UNL     1       2.269   5.774  20.186  0.00  0.00    +0.000 NA
ATOM     15  C   UNL     1       2.943   5.068  19.248  0.00  0.00    +0.000 A 
ATOM     16  H   UNL     1       1.147   7.132  21.736  0.00  0.00    +0.000 HD
BRANCH   9  18
ATOM     17  N   UNL     1       4.727   4.165  16.369  0.00  0.00    +0.000 NA
ATOM     18  C   UNL     1       4.160   4.821  17.142  0.00  0.00    +0.000 C 
ENDBRANCH   9  18
ENDBRANCH   1  13
BRANCH   5  19
ATOM     19  C   UNL     1       1.210  13.779  20.260  0.00  0.00    +0.000 A 
ATOM     20  C   UNL     1       2.588  13.670  20.029  0.00  0.00    +0.000 A 
ATOM     21  C   UNL     1       3.259  14.627  19.266  0.00  0.00    +0.000 A 
ATOM     22  C   UNL     1       2.542  15.636  18.632  0.00  0.00    +0.000 A 
ATOM     23  C   UNL     1       1.153  15.678  18.745  0.00  0.00    +0.000 A 
ATOM     24  C   UNL     1       0.490  14.760  19.563  0.00  0.00    +0.000 A 
ENDBRANCH   5  19
BRANCH   8  25
ATOM     25  O   UNL     1       1.017   9.789  23.340  0.00  0.00    +0.000 OA
ATOM     26  H   UNL     1       1.945   9.738  23.048  0.00  0.00    +0.000 HD
ENDBRANCH   8  25
TORSDOF 4
ENDMDL
MODEL 4
REMARK VINA RESULT:      -7.4      4.060      9.090
REMARK  Name = 
REMARK  4 active torsions:
REMARK  status: ('A' for Active; 'I' for Inactive)
REMARK    1  A    between atoms: C_2  and  C_3
REMARK    2  A    between atoms: N_7  and  C_8
REMARK    3  A    between atoms: C_12  and  C_14
REMARK    4  A    between atoms: C_21  and  O_22
REMARK                            x       y       z     vdW  Elec       q    Type
REMARK                         _______ _______ _______ _____ _____    ______ ____
ROOT
ATOM      1  C   UNL     1       1.035   9.113  21.074  0.00  0.00    +0.000 C 
ATOM      2  C   UNL     1       0.366   9.477  19.755  0.00  0.00    +0.000 C 
ATOM      3  C   UNL     1       0.252  10.991  19.687  0.00  0.00    +0.000 C 
ATOM      4  N   UNL     1      -0.033  11.612  20.987  0.00  0.00    +0.000 N 
ATOM      5  C   UNL     1       0.405  12.879  21.392  0.00  0.00    +0.000 C 
ATOM      6  O   UNL     1       0.248  13.274  22.554  0.00  0.00    +0.000 OA
ATOM      7  C   UNL     1      -0.732  10.746  21.947  0.00  0.00    +0.000 C 
ATOM      8  C   UNL     1       0.104   9.483  22.262  0.00  0.00    +0.000 C 
ENDROOT
BRANCH   1  13
ATOM      9  C   UNL     1       3.419   5.628  18.130  0.00  0.00    +0.000 A 
ATOM     10  C   UNL     1       3.211   6.988  17.931  0.00  0.00    +0.000 A 
ATOM     11  C   UNL     1       2.524   7.709  18.900  0.00  0.00    +0.000 A 
ATOM     12  C   UNL     1       2.062   7.075  20.048  0.00  0.00    +0.000 A 
ATOM     13  N   UNL     1       1.380   7.705  21.049  0.00  0.00    +0.000 N 
ATOM     14  N   UNL     1       2.251   5.755  20.244  0.00  0.00    +0.000 NA
ATOM     15  C   UNL     1       2.920   5.062  19.292  0.00  0.00    +0.000 A 
ATOM     16  H   UNL     1       1.138   7.092  21.818  0.00  0.00    +0.000 HD
BRANCH   9  18
ATOM     17  N   UNL     1       4.686   4.206  16.384  0.00  0.00    +0.000 NA
ATOM     18  C   UNL     1       4.115   4.842  17.171  0.00  0.00    +0.000 C 
ENDBRANCH   9  18
ENDBRANCH   1  13
BRANCH   5  19
ATOM     19  C   UNL     1       1.175  13.759  20.462  0.00  0.00    +0.000 A 
ATOM     20  C   UNL     1       0.571  14.717  19.636  0.00  0.00    +0.000 A 
ATOM     21  C   UNL     1       1.305  15.361  18.639  0.00  0.00    +0.000 A 
ATOM     22  C   UNL     1       2.675  15.139  18.534  0.00  0.00    +0.000 A 
ATOM     23  C   UNL     1       3.313  14.289  19.435  0.00  0.00    +0.000 A 
ATOM     24  C   UNL     1       2.565  13.593  20.390  0.00  0.00    +0.000 A 
ENDBRANCH   5  19
BRANCH   8  25
ATOM     25  O   UNL     1       0.882   9.704  23.448  0.00  0.00    +0.000 OA
ATOM     26  H   UNL     1       1.242  10.608  23.398  0.00  0.00    +0.000 HD
ENDBRANCH   8  25
TORSDOF 4
ENDMDL
MODEL 5
REMARK VINA RESULT:      -7.3      4.025      9.049
REMARK  Name = 
REMARK  4 active torsions:
REMARK  status: ('A' for Active; 'I' for Inactive)
REMARK    1  A    between atoms: C_2  and  C_3
REMARK    2  A    between atoms: N_7  and  C_8
REMARK    3  A    between atoms: C_12  and  C_14
REMARK    4  A    between atoms: C_21  and  O_22
REMARK                            x       y       z     vdW  Elec       q    Type
REMARK                         _______ _______ _______ _____ _____    ______ ____
ROOT
ATOM      1  C   UNL     1       1.978   9.770  18.001  0.00  0.00    +0.000 C 
ATOM      2  C   UNL     1       1.159   9.223  19.163  0.00  0.00    +0.000 C 
ATOM      3  C   UNL     1      -0.134  10.019  19.243  0.00  0.00    +0.000 C 
ATOM      4  N   UNL     1       0.038  11.440  18.915  0.00  0.00    +0.000 N 
ATOM      5  C   UNL     1      -0.926  12.250  18.301  0.00  0.00    +0.000 C 
ATOM      6  O   UNL     1      -0.658  13.398  17.926  0.00  0.00    +0.000 OA
ATOM      7  C   UNL     1       1.385  11.975  19.158  0.00  0.00    +0.000 C 
ATOM      8  C   UNL     1       2.438  11.221  18.312  0.00  0.00    +0.000 C 
ENDROOT
BRANCH   1  13
ATOM      9  C   UNL     1       3.099   4.750  17.806  0.00  0.00    +0.000 A 
ATOM     10  C   UNL     1       1.899   5.397  18.076  0.00  0.00    +0.000 A 
ATOM     11  C   UNL     1       1.871   6.787  18.065  0.00  0.00    +0.000 A 
ATOM     12  C   UNL     1       3.026   7.508  17.782  0.00  0.00    +0.000 A 
ATOM     13  N   UNL     1       3.088   8.871  17.750  0.00  0.00    +0.000 N 
ATOM     14  N   UNL     1       4.195   6.887  17.528  0.00  0.00    +0.000 NA
ATOM     15  C   UNL     1       4.211   5.533  17.544  0.00  0.00    +0.000 A 
ATOM     16  H   UNL     1       4.006   9.226  17.508  0.00  0.00    +0.000 HD
BRANCH   9  18
ATOM     17  N   UNL     1       3.251   2.170  17.794  0.00  0.00    +0.000 NA
ATOM     18  C   UNL     1       3.185   3.330  17.803  0.00  0.00    +0.000 C 
ENDBRANCH   9  18
ENDBRANCH   1  13
BRANCH   5  19
ATOM     19  C   UNL     1      -2.285  11.719  17.981  0.00  0.00    +0.000 A 
ATOM     20  C   UNL     1      -2.591  11.068  16.778  0.00  0.00    +0.000 A 
ATOM     21  C   UNL     1      -3.915  10.782  16.441  0.00  0.00    +0.000 A 
ATOM     22  C   UNL     1      -4.934  11.039  17.352  0.00  0.00    +0.000 A 
ATOM     23  C   UNL     1      -4.628  11.566  18.606  0.00  0.00    +0.000 A 
ATOM     24  C   UNL     1      -3.311  11.914  18.917  0.00  0.00    +0.000 A 
ENDBRANCH   5  19
BRANCH   8  25
ATOM     25  O   UNL     1       2.675  11.936  17.090  0.00  0.00    +0.000 OA
ATOM     26  H   UNL     1       2.533  11.313  16.354  0.00  0.00    +0.000 HD
ENDBRANCH   8  25
TORSDOF 4
ENDMDL
MODEL 6
REMARK VINA RESULT:      -7.2      1.964      2.673
REMARK  Name = 
REMARK  4 active torsions:
REMARK  status: ('A' for Active; 'I' for Inactive)
REMARK    1  A    between atoms: C_2  and  C_3
REMARK    2  A    between atoms: N_7  and  C_8
REMARK    3  A    between atoms: C_12  and  C_14
REMARK    4  A    between atoms: C_21  and  O_22
REMARK                            x       y       z     vdW  Elec       q    Type
REMARK                         _______ _______ _______ _____ _____    ______ ____
ROOT
ATOM      1  C   UNL     1       2.775   5.945  19.542  0.00  0.00    +0.000 C 
ATOM      2  C   UNL     1       4.256   6.213  19.775  0.00  0.00    +0.000 C 
ATOM      3  C   UNL     1       5.047   5.378  18.783  0.00  0.00    +0.000 C 
ATOM      4  N   UNL     1       4.450   4.061  18.524  0.00  0.00    +0.000 N 
ATOM      5  C   UNL     1       4.519   3.366  17.311  0.00  0.00    +0.000 C 
ATOM      6  O   UNL     1       3.869   2.329  17.124  0.00  0.00    +0.000 OA
ATOM      7  C   UNL     1       3.622   3.531  19.616  0.00  0.00    +0.000 C 
ATOM      8  C   UNL     1       2.435   4.476  19.918  0.00  0.00    +0.000 C 
ENDROOT
BRANCH   1  13
ATOM      9  C   UNL     1       0.665  10.618  19.091  0.00  0.00    +0.000 A 
ATOM     10  C   UNL     1       1.390   9.863  18.178  0.00  0.00    +0.000 A 
ATOM     11  C   UNL     1       1.854   8.610  18.563  0.00  0.00    +0.000 A 
ATOM     12  C   UNL     1       1.586   8.127  19.839  0.00  0.00    +0.000 A 
ATOM     13  N   UNL     1       2.001   6.911  20.299  0.00  0.00    +0.000 N 
ATOM     14  N   UNL     1       0.891   8.858  20.733  0.00  0.00    +0.000 NA
ATOM     15  C   UNL     1       0.446  10.077  20.348  0.00  0.00    +0.000 A 
ATOM     16  H   UNL     1       1.700   6.715  21.246  0.00  0.00    +0.000 HD
BRANCH   9  18
ATOM     17  N   UNL     1      -0.248  12.955  18.472  0.00  0.00    +0.000 NA
ATOM     18  C   UNL     1       0.166  11.907  18.751  0.00  0.00    +0.000 C 
ENDBRANCH   9  18
ENDBRANCH   1  13
BRANCH   5  19
ATOM     19  C   UNL     1       5.299   3.908  16.158  0.00  0.00    +0.000 A 
ATOM     20  C   UNL     1       4.811   3.932  14.844  0.00  0.00    +0.000 A 
ATOM     21  C   UNL     1       5.654   4.251  13.778  0.00  0.00    +0.000 A 
ATOM     22  C   UNL     1       6.960   4.660  14.025  0.00  0.00    +0.000 A 
ATOM     23  C   UNL     1       7.418   4.768  15.337  0.00  0.00    +0.000 A 
ATOM     24  C   UNL     1       6.595   4.385  16.399  0.00  0.00    +0.000 A 
ENDBRANCH   5  19
BRANCH   8  25
ATOM     25  O   UNL     1       1.274   4.038  19.196  0.00  0.00    +0.000 OA
ATOM     26  H   UNL     1       1.480   3.165  18.814  0.00  0.00    +0.000 HD
ENDBRANCH   8  25
TORSDOF 4
ENDMDL
MODEL 7
REMARK VINA RESULT:      -7.1      2.025      2.845
REMARK  Name = 
REMARK  4 active torsions:
REMARK  status: ('A' for Active; 'I' for Inactive)
REMARK    1  A    between atoms: C_2  and  C_3
REMARK    2  A    between atoms: N_7  and  C_8
REMARK    3  A    between atoms: C_12  and  C_14
REMARK    4  A    between atoms: C_21  and  O_22
REMARK                            x       y       z     vdW  Elec       q    Type
REMARK                         _______ _______ _______ _____ _____    ______ ____
ROOT
ATOM      1  C   UNL     1       2.789   5.866  19.544  0.00  0.00    +0.000 C 
ATOM      2  C   UNL     1       4.265   6.060  19.865  0.00  0.00    +0.000 C 
ATOM      3  C   UNL     1       5.072   5.196  18.909  0.00  0.00    +0.000 C 
ATOM      4  N   UNL     1       4.428   3.912  18.601  0.00  0.00    +0.000 N 
ATOM      5  C   UNL     1       4.533   3.225  17.385  0.00  0.00    +0.000 C 
ATOM      6  O   UNL     1       3.847   2.223  17.150  0.00  0.00    +0.000 OA
ATOM      7  C   UNL     1       3.514   3.413  19.638  0.00  0.00    +0.000 C 
ATOM      8  C   UNL     1       2.358   4.412  19.883  0.00  0.00    +0.000 C 
ENDROOT
BRANCH   1  13
ATOM      9  C   UNL     1       0.896  10.623  19.011  0.00  0.00    +0.000 A 
ATOM     10  C   UNL     1       1.634   9.841  18.131  0.00  0.00    +0.000 A 
ATOM     11  C   UNL     1       2.026   8.569  18.532  0.00  0.00    +0.000 A 
ATOM     12  C   UNL     1       1.677   8.094  19.792  0.00  0.00    +0.000 A 
ATOM     13  N   UNL     1       2.020   6.861  20.266  0.00  0.00    +0.000 N 
ATOM     14  N   UNL     1       0.971   8.851  20.655  0.00  0.00    +0.000 NA
ATOM     15  C   UNL     1       0.596  10.088  20.254  0.00  0.00    +0.000 A 
ATOM     16  H   UNL     1       1.665   6.676  21.197  0.00  0.00    +0.000 HD
BRANCH   9  18
ATOM     17  N   UNL     1       0.111  12.998  18.364  0.00  0.00    +0.000 NA
ATOM     18  C   UNL     1       0.468  11.931  18.653  0.00  0.00    +0.000 C 
ENDBRANCH   9  18
ENDBRANCH   1  13
BRANCH   5  19
ATOM     19  C   UNL     1       5.404   3.740  16.285  0.00  0.00    +0.000 A 
ATOM     20  C   UNL     1       6.687   4.260  16.502  0.00  0.00    +0.000 A 
ATOM     21  C   UNL     1       7.370   4.918  15.477  0.00  0.00    +0.000 A 
ATOM     22  C   UNL     1       6.826   4.961  14.198  0.00  0.00    +0.000 A 
ATOM     23  C   UNL     1       5.610   4.332  13.938  0.00  0.00    +0.000 A 
ATOM     24  C   UNL     1       4.896   3.732  14.978  0.00  0.00    +0.000 A 
ENDBRANCH   5  19
BRANCH   8  25
ATOM     25  O   UNL     1       1.221   4.036  19.090  0.00  0.00    +0.000 OA
ATOM     26  H   UNL     1       0.445   4.499  19.454  0.00  0.00    +0.000 HD
ENDBRANCH   8  25
TORSDOF 4
ENDMDL
MODEL 8
REMARK VINA RESULT:      -7.1      0.216      1.005
REMARK  Name = 
REMARK  4 active torsions:
REMARK  status: ('A' for Active; 'I' for Inactive)
REMARK    1  A    between atoms: C_2  and  C_3
REMARK    2  A    between atoms: N_7  and  C_8
REMARK    3  A    between atoms: C_12  and  C_14
REMARK    4  A    between atoms: C_21  and  O_22
REMARK                            x       y       z     vdW  Elec       q    Type
REMARK                         _______ _______ _______ _____ _____    ______ ____
ROOT
ATOM      1  C   UNL     1       4.365   6.005  18.215  0.00  0.00    +0.000 C 
ATOM      2  C   UNL     1       4.395   7.058  17.115  0.00  0.00    +0.000 C 
ATOM      3  C   UNL     1       5.329   6.569  16.020  0.00  0.00    +0.000 C 
ATOM      4  N   UNL     1       6.496   5.840  16.534  0.00  0.00    +0.000 N 
ATOM      5  C   UNL     1       7.145   4.787  15.877  0.00  0.00    +0.000 C 
ATOM      6  O   UNL     1       8.030   4.127  16.436  0.00  0.00    +0.000 OA
ATOM      7  C   UNL     1       6.898   6.199  17.901  0.00  0.00    +0.000 C 
ATOM      8  C   UNL     1       5.755   5.918  18.904  0.00  0.00    +0.000 C 
ENDROOT
BRANCH   1  13
ATOM      9  C   UNL     1       0.829   9.630  19.136  0.00  0.00    +0.000 A 
ATOM     10  C   UNL     1       1.784   9.535  18.132  0.00  0.00    +0.000 A 
ATOM     11  C   UNL     1       2.630   8.432  18.114  0.00  0.00    +0.000 A 
ATOM     12  C   UNL     1       2.511   7.443  19.084  0.00  0.00    +0.000 A 
ATOM     13  N   UNL     1       3.298   6.329  19.142  0.00  0.00    +0.000 N 
ATOM     14  N   UNL     1       1.594   7.533  20.067  0.00  0.00    +0.000 NA
ATOM     15  C   UNL     1       0.776   8.612  20.076  0.00  0.00    +0.000 A 
ATOM     16  H   UNL     1       3.059   5.707  19.904  0.00  0.00    +0.000 HD
BRANCH   9  18
ATOM     17  N   UNL     1      -0.797  11.634  19.259  0.00  0.00    +0.000 NA
ATOM     18  C   UNL     1      -0.063  10.736  19.203  0.00  0.00    +0.000 C 
ENDBRANCH   9  18
ENDBRANCH   1  13
BRANCH   5  19
ATOM     19  C   UNL     1       6.719   4.353  14.512  0.00  0.00    +0.000 A 
ATOM     20  C   UNL     1       7.483   4.585  13.360  0.00  0.00    +0.000 A 
ATOM     21  C   UNL     1       6.946   4.351  12.093  0.00  0.00    +0.000 A 
ATOM     22  C   UNL     1       5.686   3.776  11.968  0.00  0.00    +0.000 A 
ATOM     23  C   UNL     1       4.969   3.418  13.109  0.00  0.00    +0.000 A 
ATOM     24  C   UNL     1       5.478   3.714  14.376  0.00  0.00    +0.000 A 
ENDBRANCH   5  19
BRANCH   8  25
ATOM     25  O   UNL     1       5.935   4.619  19.488  0.00  0.00    +0.000 OA
ATOM     26  H   UNL     1       6.081   4.745  20.444  0.00  0.00    +0.000 HD
ENDBRANCH   8  25
TORSDOF 4
ENDMDL
MODEL 9
REMARK VINA RESULT:      -7.1      5.616     11.190
REMARK  Name = 
REMARK  4 active torsions:
REMARK  status: ('A' for Active; 'I' for Inactive)
REMARK    1  A    between atoms: C_2  and  C_3
REMARK    2  A    between atoms: N_7  and  C_8
REMARK    3  A    between atoms: C_12  and  C_14
REMARK    4  A    between atoms: C_21  and  O_22
REMARK                            x       y       z     vdW  Elec       q    Type
REMARK                         _______ _______ _______ _____ _____    ______ ____
ROOT
ATOM      1  C   UNL     1       0.366  11.900  19.160  0.00  0.00    +0.000 C 
ATOM      2  C   UNL     1       1.182  12.293  20.385  0.00  0.00    +0.000 C 
ATOM      3  C   UNL     1       0.284  13.098  21.310  0.00  0.00    +0.000 C 
ATOM      4  N   UNL     1      -0.653  13.974  20.593  0.00  0.00    +0.000 N 
ATOM      5  C   UNL     1      -1.936  14.320  21.036  0.00  0.00    +0.000 C 
ATOM      6  O   UNL     1      -2.721  14.944  20.311  0.00  0.00    +0.000 OA
ATOM      7  C   UNL     1      -0.211  14.392  19.256  0.00  0.00    +0.000 C 
ATOM      8  C   UNL     1       0.002  13.166  18.337  0.00  0.00    +0.000 C 
ENDROOT
BRANCH   1  13
ATOM      9  C   UNL     1       2.275   7.132  19.509  0.00  0.00    +0.000 A 
ATOM     10  C   UNL     1       1.548   7.883  20.424  0.00  0.00    +0.000 A 
ATOM     11  C   UNL     1       1.148   9.167  20.071  0.00  0.00    +0.000 A 
ATOM     12  C   UNL     1       1.470   9.680  18.820  0.00  0.00    +0.000 A 
ATOM     13  N   UNL     1       1.119  10.928  18.391  0.00  0.00    +0.000 N 
ATOM     14  N   UNL     1       2.184   8.962  17.930  0.00  0.00    +0.000 NA
ATOM     15  C   UNL     1       2.569   7.714  18.285  0.00  0.00    +0.000 A 
ATOM     16  H   UNL     1       1.421  11.127  17.445  0.00  0.00    +0.000 HD
BRANCH   9  18
ATOM     17  N   UNL     1       3.062   4.734  20.061  0.00  0.00    +0.000 NA
ATOM     18  C   UNL     1       2.709   5.813  19.817  0.00  0.00    +0.000 C 
ENDBRANCH   9  18
ENDBRANCH   1  13
BRANCH   5  19
ATOM     19  C   UNL     1      -2.441  13.857  22.364  0.00  0.00    +0.000 A 
ATOM     20  C   UNL     1      -2.975  12.579  22.579  0.00  0.00    +0.000 A 
ATOM     21  C   UNL     1      -3.623  12.272  23.776  0.00  0.00    +0.000 A 
ATOM     22  C   UNL     1      -3.643  13.200  24.812  0.00  0.00    +0.000 A 
ATOM     23  C   UNL     1      -3.001  14.427  24.659  0.00  0.00    +0.000 A 
ATOM     24  C   UNL     1      -2.410  14.760  23.437  0.00  0.00    +0.000 A 
ENDBRANCH   5  19
BRANCH   8  25
ATOM     25  O   UNL     1      -1.187  12.929  17.567  0.00  0.00    +0.000 OA
ATOM     26  H   UNL     1      -1.604  13.794  17.398  0.00  0.00    +0.000 HD
ENDBRANCH   8  25
TORSDOF 4
ENDMDL
