MODEL 1
REMARK VINA RESULT:      -6.6      0.000      0.000
REMARK  Name = 
REMARK  2 active torsions:
REMARK  status: ('A' for Active; 'I' for Inactive)
REMARK    1  A    between atoms: C_1  and  N_2
REMARK    2  A    between atoms: C_21  and  O_22
REMARK                            x       y       z     vdW  Elec       q    Type
REMARK                         _______ _______ _______ _____ _____    ______ ____
ROOT
ATOM      1  C   UNL     1       1.704   5.425  20.978  0.00  0.00    +0.000 C 
ATOM      2  N   UNL     1       2.299   6.705  20.602  0.00  0.00    +0.000 N 
ATOM      3  C   UNL     1       1.411   7.829  20.707  0.00  0.00    +0.000 A 
ATOM      4  C   UNL     1       0.445   7.984  21.715  0.00  0.00    +0.000 A 
ATOM      5  C   UNL     1      -0.440   9.087  21.724  0.00  0.00    +0.000 A 
ATOM      6  C   UNL     1      -0.342  10.092  20.763  0.00  0.00    +0.000 A 
ATOM      7 CL   UNL     1      -1.444  11.411  20.755  0.00  0.00    +0.000 Cl
ATOM      8  C   UNL     1       0.603   9.991  19.765  0.00  0.00    +0.000 A 
ATOM      9  C   UNL     1       1.418   8.854  19.726  0.00  0.00    +0.000 A 
ATOM     10  C   UNL     1       2.077   8.571  18.443  0.00  0.00    +0.000 C 
ATOM     11  O   UNL     1       2.041   9.363  17.500  0.00  0.00    +0.000 OA
ATOM     12  N   UNL     1       2.522   7.289  18.341  0.00  0.00    +0.000 N 
ATOM     13  C   UNL     1       1.616   6.311  17.713  0.00  0.00    +0.000 C 
ATOM     14  C   UNL     1       2.355   5.118  17.116  0.00  0.00    +0.000 C 
ATOM     15  C   UNL     1       3.718   4.987  17.711  0.00  0.00    +0.000 A 
ATOM     16  C   UNL     1       4.132   5.735  18.812  0.00  0.00    +0.000 A 
ATOM     17  N   UNL     1       5.525   5.777  18.713  0.00  0.00    +0.000 N 
ATOM     18  C   UNL     1       5.963   5.126  17.556  0.00  0.00    +0.000 A 
ATOM     19  C   UNL     1       7.216   5.086  16.909  0.00  0.00    +0.000 A 
ATOM     20  C   UNL     1       7.308   4.404  15.672  0.00  0.00    +0.000 A 
ATOM     21  C   UNL     1       6.196   3.774  15.128  0.00  0.00    +0.000 A 
ATOM     22  C   UNL     1       4.968   3.825  15.772  0.00  0.00    +0.000 A 
ATOM     23  C   UNL     1       4.847   4.522  16.990  0.00  0.00    +0.000 A 
ATOM     24  C   UNL     1       3.275   6.818  19.480  0.00  0.00    +0.000 C 
ATOM     25  H   UNL     1       6.120   6.402  19.239  0.00  0.00    +0.000 HD
ENDROOT
BRANCH  21  26
ATOM     26  O   UNL     1       6.237   3.123  13.928  0.00  0.00    +0.000 OA
ATOM     27  H   UNL     1       6.495   2.199  14.071  0.00  0.00    +0.000 HD
ENDBRANCH  21  26
TORSDOF 1
ENDMDL
MODEL 2
REMARK VINA RESULT:      -6.4      5.472      8.662
REMARK  Name = 
REMARK  2 active torsions:
REMARK  status: ('A' for Active; 'I' for Inactive)
REMARK    1  A    between atoms: C_1  and  N_2
REMARK    2  A    between atoms: C_21  and  O_22
REMARK                            x       y       z     vdW  Elec       q    Type
REMARK                         _______ _______ _______ _____ _____    ______ ____
ROOT
ATOM      1  C   UNL     1      -1.116  14.996  23.209  0.00  0.00    +0.000 C 
ATOM      2  N   UNL     1      -2.035  14.676  22.120  0.00  0.00    +0.000 N 
ATOM      3  C   UNL     1      -3.405  15.021  22.376  0.00  0.00    +0.000 A 
ATOM      4  C   UNL     1      -3.816  16.166  23.078  0.00  0.00    +0.000 A 
ATOM      5  C   UNL     1      -5.182  16.414  23.348  0.00  0.00    +0.000 A 
ATOM      6  C   UNL     1      -6.173  15.558  22.871  0.00  0.00    +0.000 A 
ATOM      7 CL   UNL     1      -7.829  15.843  23.234  0.00  0.00    +0.000 Cl
ATOM      8  C   UNL     1      -5.819  14.433  22.161  0.00  0.00    +0.000 A 
ATOM      9  C   UNL     1      -4.459  14.160  21.971  0.00  0.00    +0.000 A 
ATOM     10  C   UNL     1      -4.116  12.775  21.620  0.00  0.00    +0.000 C 
ATOM     11  O   UNL     1      -4.977  11.934  21.358  0.00  0.00    +0.000 OA
ATOM     12  N   UNL     1      -2.804  12.478  21.828  0.00  0.00    +0.000 N 
ATOM     13  C   UNL     1      -2.448  11.887  23.130  0.00  0.00    +0.000 C 
ATOM     14  C   UNL     1      -1.161  11.070  23.075  0.00  0.00    +0.000 C 
ATOM     15  C   UNL     1      -0.342  11.450  21.887  0.00  0.00    +0.000 A 
ATOM     16  C   UNL     1      -0.642  12.554  21.089  0.00  0.00    +0.000 A 
ATOM     17  N   UNL     1      -0.070  12.264  19.847  0.00  0.00    +0.000 N 
ATOM     18  C   UNL     1       0.517  10.996  19.852  0.00  0.00    +0.000 A 
ATOM     19  C   UNL     1       1.012  10.178  18.814  0.00  0.00    +0.000 A 
ATOM     20  C   UNL     1       1.459   8.877  19.144  0.00  0.00    +0.000 A 
ATOM     21  C   UNL     1       1.430   8.432  20.460  0.00  0.00    +0.000 A 
ATOM     22  C   UNL     1       0.937   9.244  21.471  0.00  0.00    +0.000 A 
ATOM     23  C   UNL     1       0.460  10.533  21.161  0.00  0.00    +0.000 A 
ATOM     24  C   UNL     1      -1.873  13.445  21.292  0.00  0.00    +0.000 C 
ATOM     25  H   UNL     1      -0.271  12.764  18.992  0.00  0.00    +0.000 HD
ENDROOT
BRANCH  21  26
ATOM     26  O   UNL     1       1.833   7.177  20.819  0.00  0.00    +0.000 OA
ATOM     27  H   UNL     1       1.097   6.556  20.702  0.00  0.00    +0.000 HD
ENDBRANCH  21  26
TORSDOF 1
ENDMDL
MODEL 3
REMARK VINA RESULT:      -6.4      5.290      8.371
REMARK  Name = 
REMARK  2 active torsions:
REMARK  status: ('A' for Active; 'I' for Inactive)
REMARK    1  A    between atoms: C_1  and  N_2
REMARK    2  A    between atoms: C_21  and  O_22
REMARK                            x       y       z     vdW  Elec       q    Type
REMARK                         _______ _______ _______ _____ _____    ______ ____
ROOT
ATOM      1  C   UNL     1      -4.136  12.739  22.466  0.00  0.00    +0.000 C 
ATOM      2  N   UNL     1      -2.923  12.948  23.252  0.00  0.00    +0.000 N 
ATOM      3  C   UNL     1      -2.844  14.230  23.897  0.00  0.00    +0.000 A 
ATOM      4  C   UNL     1      -3.943  14.906  24.452  0.00  0.00    +0.000 A 
ATOM      5  C   UNL     1      -3.805  16.194  25.018  0.00  0.00    +0.000 A 
ATOM      6  C   UNL     1      -2.558  16.812  25.099  0.00  0.00    +0.000 A 
ATOM      7 CL   UNL     1      -2.401  18.394  25.753  0.00  0.00    +0.000 Cl
ATOM      8  C   UNL     1      -1.449  16.178  24.584  0.00  0.00    +0.000 A 
ATOM      9  C   UNL     1      -1.616  14.938  23.957  0.00  0.00    +0.000 A 
ATOM     10  C   UNL     1      -0.536  14.515  23.054  0.00  0.00    +0.000 C 
ATOM     11  O   UNL     1       0.524  15.137  22.966  0.00  0.00    +0.000 OA
ATOM     12  N   UNL     1      -0.911  13.529  22.194  0.00  0.00    +0.000 N 
ATOM     13  C   UNL     1      -1.407  13.945  20.870  0.00  0.00    +0.000 C 
ATOM     14  C   UNL     1      -1.243  12.860  19.811  0.00  0.00    +0.000 C 
ATOM     15  C   UNL     1      -1.078  11.520  20.446  0.00  0.00    +0.000 A 
ATOM     16  C   UNL     1      -1.274  11.305  21.809  0.00  0.00    +0.000 A 
ATOM     17  N   UNL     1      -0.512  10.171  22.106  0.00  0.00    +0.000 N 
ATOM     18  C   UNL     1       0.182   9.727  20.977  0.00  0.00    +0.000 A 
ATOM     19  C   UNL     1       1.222   8.788  20.815  0.00  0.00    +0.000 A 
ATOM     20  C   UNL     1       1.791   8.637  19.528  0.00  0.00    +0.000 A 
ATOM     21  C   UNL     1       1.317   9.380  18.454  0.00  0.00    +0.000 A 
ATOM     22  C   UNL     1       0.298  10.304  18.628  0.00  0.00    +0.000 A 
ATOM     23  C   UNL     1      -0.264  10.491  19.906  0.00  0.00    +0.000 A 
ATOM     24  C   UNL     1      -1.600  12.419  22.811  0.00  0.00    +0.000 C 
ATOM     25  H   UNL     1      -0.277   9.866  23.040  0.00  0.00    +0.000 HD
ENDROOT
BRANCH  21  26
ATOM     26  O   UNL     1       1.851   9.279  17.201  0.00  0.00    +0.000 OA
ATOM     27  H   UNL     1       1.479   8.504  16.752  0.00  0.00    +0.000 HD
ENDBRANCH  21  26
TORSDOF 1
ENDMDL
MODEL 4
REMARK VINA RESULT:      -6.4      9.541     10.242
REMARK  Name = 
REMARK  2 active torsions:
REMARK  status: ('A' for Active; 'I' for Inactive)
REMARK    1  A    between atoms: C_1  and  N_2
REMARK    2  A    between atoms: C_21  and  O_22
REMARK                            x       y       z     vdW  Elec       q    Type
REMARK                         _______ _______ _______ _____ _____    ______ ____
ROOT
ATOM      1  C   UNL     1       6.403  12.125  23.274  0.00  0.00    +0.000 C 
ATOM      2  N   UNL     1       7.668  12.572  23.851  0.00  0.00    +0.000 N 
ATOM      3  C   UNL     1       7.532  13.447  24.983  0.00  0.00    +0.000 A 
ATOM      4  C   UNL     1       6.532  13.324  25.962  0.00  0.00    +0.000 A 
ATOM      5  C   UNL     1       6.418  14.258  27.018  0.00  0.00    +0.000 A 
ATOM      6  C   UNL     1       7.334  15.299  27.156  0.00  0.00    +0.000 A 
ATOM      7 CL   UNL     1       7.169  16.453  28.420  0.00  0.00    +0.000 Cl
ATOM      8  C   UNL     1       8.343  15.446  26.231  0.00  0.00    +0.000 A 
ATOM      9  C   UNL     1       8.395  14.561  25.148  0.00  0.00    +0.000 A 
ATOM     10  C   UNL     1       9.174  15.003  23.983  0.00  0.00    +0.000 C 
ATOM     11  O   UNL     1       9.867  16.021  24.007  0.00  0.00    +0.000 OA
ATOM     12  N   UNL     1       8.878  14.314  22.847  0.00  0.00    +0.000 N 
ATOM     13  C   UNL     1       7.850  14.888  21.961  0.00  0.00    +0.000 C 
ATOM     14  C   UNL     1       7.992  14.426  20.514  0.00  0.00    +0.000 C 
ATOM     15  C   UNL     1       8.802  13.175  20.434  0.00  0.00    +0.000 A 
ATOM     16  C   UNL     1       9.170  12.445  21.563  0.00  0.00    +0.000 A 
ATOM     17  N   UNL     1      10.318  11.747  21.179  0.00  0.00    +0.000 N 
ATOM     18  C   UNL     1      10.688  12.076  19.873  0.00  0.00    +0.000 A 
ATOM     19  C   UNL     1      11.859  11.821  19.128  0.00  0.00    +0.000 A 
ATOM     20  C   UNL     1      11.968  12.390  17.837  0.00  0.00    +0.000 A 
ATOM     21  C   UNL     1      10.935  13.159  17.315  0.00  0.00    +0.000 A 
ATOM     22  C   UNL     1       9.791  13.407  18.059  0.00  0.00    +0.000 A 
ATOM     23  C   UNL     1       9.674  12.873  19.358  0.00  0.00    +0.000 A 
ATOM     24  C   UNL     1       8.855  12.877  23.000  0.00  0.00    +0.000 C 
ATOM     25  H   UNL     1      10.947  11.281  21.819  0.00  0.00    +0.000 HD
ENDROOT
BRANCH  21  26
ATOM     26  O   UNL     1      11.007  13.743  16.082  0.00  0.00    +0.000 OA
ATOM     27  H   UNL     1      11.937  13.853  15.831  0.00  0.00    +0.000 HD
ENDBRANCH  21  26
TORSDOF 1
ENDMDL
MODEL 5
REMARK VINA RESULT:      -6.3      7.411     11.161
REMARK  Name = 
REMARK  2 active torsions:
REMARK  status: ('A' for Active; 'I' for Inactive)
REMARK    1  A    between atoms: C_1  and  N_2
REMARK    2  A    between atoms: C_21  and  O_22
REMARK                            x       y       z     vdW  Elec       q    Type
REMARK                         _______ _______ _______ _____ _____    ______ ____
ROOT
ATOM      1  C   UNL     1      -0.155  10.992  20.224  0.00  0.00    +0.000 C 
ATOM      2  N   UNL     1      -0.533  12.177  19.460  0.00  0.00    +0.000 N 
ATOM      3  C   UNL     1       0.571  12.993  19.039  0.00  0.00    +0.000 A 
ATOM      4  C   UNL     1       1.816  12.490  18.628  0.00  0.00    +0.000 A 
ATOM      5  C   UNL     1       2.883  13.353  18.284  0.00  0.00    +0.000 A 
ATOM      6  C   UNL     1       2.713  14.736  18.285  0.00  0.00    +0.000 A 
ATOM      7 CL   UNL     1       4.023  15.782  17.903  0.00  0.00    +0.000 Cl
ATOM      8  C   UNL     1       1.503  15.275  18.662  0.00  0.00    +0.000 A 
ATOM      9  C   UNL     1       0.483  14.409  19.075  0.00  0.00    +0.000 A 
ATOM     10  C   UNL     1      -0.596  15.009  19.872  0.00  0.00    +0.000 C 
ATOM     11  O   UNL     1      -0.684  16.226  20.043  0.00  0.00    +0.000 OA
ATOM     12  N   UNL     1      -1.327  14.091  20.561  0.00  0.00    +0.000 N 
ATOM     13  C   UNL     1      -0.913  13.804  21.946  0.00  0.00    +0.000 C 
ATOM     14  C   UNL     1      -2.054  13.266  22.804  0.00  0.00    +0.000 C 
ATOM     15  C   UNL     1      -3.148  12.719  21.949  0.00  0.00    +0.000 A 
ATOM     16  C   UNL     1      -3.010  12.544  20.572  0.00  0.00    +0.000 A 
ATOM     17  N   UNL     1      -4.315  12.581  20.074  0.00  0.00    +0.000 N 
ATOM     18  C   UNL     1      -5.233  12.831  21.098  0.00  0.00    +0.000 A 
ATOM     19  C   UNL     1      -6.602  13.172  21.079  0.00  0.00    +0.000 A 
ATOM     20  C   UNL     1      -7.234  13.466  22.310  0.00  0.00    +0.000 A 
ATOM     21  C   UNL     1      -6.526  13.394  23.503  0.00  0.00    +0.000 A 
ATOM     22  C   UNL     1      -5.179  13.062  23.508  0.00  0.00    +0.000 A 
ATOM     23  C   UNL     1      -4.523  12.794  22.291  0.00  0.00    +0.000 A 
ATOM     24  C   UNL     1      -1.764  12.958  19.779  0.00  0.00    +0.000 C 
ATOM     25  H   UNL     1      -4.554  12.682  19.097  0.00  0.00    +0.000 HD
ENDROOT
BRANCH  21  26
ATOM     26  O   UNL     1      -7.093  13.688  24.711  0.00  0.00    +0.000 OA
ATOM     27  H   UNL     1      -6.403  13.720  25.392  0.00  0.00    +0.000 HD
ENDBRANCH  21  26
TORSDOF 1
ENDMDL
MODEL 6
REMARK VINA RESULT:      -6.2      3.840      5.899
REMARK  Name = 
REMARK  2 active torsions:
REMARK  status: ('A' for Active; 'I' for Inactive)
REMARK    1  A    between atoms: C_1  and  N_2
REMARK    2  A    between atoms: C_21  and  O_22
REMARK                            x       y       z     vdW  Elec       q    Type
REMARK                         _______ _______ _______ _____ _____    ______ ____
ROOT
ATOM      1  C   UNL     1      -1.559  12.292  18.866  0.00  0.00    +0.000 C 
ATOM      2  N   UNL     1      -0.793  12.317  20.109  0.00  0.00    +0.000 N 
ATOM      3  C   UNL     1      -0.548  13.632  20.632  0.00  0.00    +0.000 A 
ATOM      4  C   UNL     1      -1.468  14.692  20.570  0.00  0.00    +0.000 A 
ATOM      5  C   UNL     1      -1.139  15.981  21.051  0.00  0.00    +0.000 A 
ATOM      6  C   UNL     1       0.091  16.227  21.659  0.00  0.00    +0.000 A 
ATOM      7 CL   UNL     1       0.502  17.804  22.207  0.00  0.00    +0.000 Cl
ATOM      8  C   UNL     1       1.017  15.212  21.759  0.00  0.00    +0.000 A 
ATOM      9  C   UNL     1       0.706  13.964  21.207  0.00  0.00    +0.000 A 
ATOM     10  C   UNL     1       1.841  13.071  20.936  0.00  0.00    +0.000 C 
ATOM     11  O   UNL     1       2.985  13.336  21.308  0.00  0.00    +0.000 OA
ATOM     12  N   UNL     1       1.540  12.069  20.067  0.00  0.00    +0.000 N 
ATOM     13  C   UNL     1       1.817  12.311  18.640  0.00  0.00    +0.000 C 
ATOM     14  C   UNL     1       2.017  11.022  17.849  0.00  0.00    +0.000 C 
ATOM     15  C   UNL     1       1.426   9.859  18.574  0.00  0.00    +0.000 A 
ATOM     16  C   UNL     1       0.622  10.007  19.703  0.00  0.00    +0.000 A 
ATOM     17  N   UNL     1       0.745   8.797  20.391  0.00  0.00    +0.000 N 
ATOM     18  C   UNL     1       1.643   7.943  19.744  0.00  0.00    +0.000 A 
ATOM     19  C   UNL     1       2.259   6.739  20.143  0.00  0.00    +0.000 A 
ATOM     20  C   UNL     1       3.219   6.160  19.278  0.00  0.00    +0.000 A 
ATOM     21  C   UNL     1       3.523   6.757  18.061  0.00  0.00    +0.000 A 
ATOM     22  C   UNL     1       2.915   7.944  17.683  0.00  0.00    +0.000 A 
ATOM     23  C   UNL     1       1.977   8.552  18.541  0.00  0.00    +0.000 A 
ATOM     24  C   UNL     1       0.319  11.356  20.365  0.00  0.00    +0.000 C 
ATOM     25  H   UNL     1       0.449   8.646  21.346  0.00  0.00    +0.000 HD
ENDROOT
BRANCH  21  26
ATOM     26  O   UNL     1       4.458   6.243  17.207  0.00  0.00    +0.000 OA
ATOM     27  H   UNL     1       4.041   6.047  16.354  0.00  0.00    +0.000 HD
ENDBRANCH  21  26
TORSDOF 1
ENDMDL
MODEL 7
REMARK VINA RESULT:      -6.2      5.149     10.418
REMARK  Name = 
REMARK  2 active torsions:
REMARK  status: ('A' for Active; 'I' for Inactive)
REMARK    1  A    between atoms: C_1  and  N_2
REMARK    2  A    between atoms: C_21  and  O_22
REMARK                            x       y       z     vdW  Elec       q    Type
REMARK                         _______ _______ _______ _____ _____    ______ ____
ROOT
ATOM      1  C   UNL     1       0.437  13.211  18.443  0.00  0.00    +0.000 C 
ATOM      2  N   UNL     1       0.910  12.418  19.574  0.00  0.00    +0.000 N 
ATOM      3  C   UNL     1       1.289  11.073  19.242  0.00  0.00    +0.000 A 
ATOM      4  C   UNL     1       1.930  10.703  18.048  0.00  0.00    +0.000 A 
ATOM      5  C   UNL     1       2.221   9.350  17.757  0.00  0.00    +0.000 A 
ATOM      6  C   UNL     1       1.936   8.342  18.677  0.00  0.00    +0.000 A 
ATOM      7 CL   UNL     1       2.256   6.695  18.303  0.00  0.00    +0.000 Cl
ATOM      8  C   UNL     1       1.325   8.660  19.869  0.00  0.00    +0.000 A 
ATOM      9  C   UNL     1       0.972   9.994  20.107  0.00  0.00    +0.000 A 
ATOM     10  C   UNL     1      -0.044  10.223  21.144  0.00  0.00    +0.000 C 
ATOM     11  O   UNL     1      -0.454   9.315  21.869  0.00  0.00    +0.000 OA
ATOM     12  N   UNL     1      -0.622  11.452  21.066  0.00  0.00    +0.000 N 
ATOM     13  C   UNL     1      -1.869  11.559  20.288  0.00  0.00    +0.000 C 
ATOM     14  C   UNL     1      -2.733  12.742  20.716  0.00  0.00    +0.000 C 
ATOM     15  C   UNL     1      -1.920  13.752  21.455  0.00  0.00    +0.000 A 
ATOM     16  C   UNL     1      -0.529  13.689  21.528  0.00  0.00    +0.000 A 
ATOM     17  N   UNL     1      -0.200  14.387  22.693  0.00  0.00    +0.000 N 
ATOM     18  C   UNL     1      -1.351  14.822  23.356  0.00  0.00    +0.000 A 
ATOM     19  C   UNL     1      -1.555  15.357  24.645  0.00  0.00    +0.000 A 
ATOM     20  C   UNL     1      -2.884  15.605  25.063  0.00  0.00    +0.000 A 
ATOM     21  C   UNL     1      -3.952  15.349  24.213  0.00  0.00    +0.000 A 
ATOM     22  C   UNL     1      -3.739  14.817  22.949  0.00  0.00    +0.000 A 
ATOM     23  C   UNL     1      -2.426  14.536  22.524  0.00  0.00    +0.000 A 
ATOM     24  C   UNL     1       0.307  12.550  20.933  0.00  0.00    +0.000 C 
ATOM     25  H   UNL     1       0.706  14.362  23.142  0.00  0.00    +0.000 HD
ENDROOT
BRANCH  21  26
ATOM     26  O   UNL     1      -5.251  15.555  24.583  0.00  0.00    +0.000 OA
ATOM     27  H   UNL     1      -5.329  15.468  25.546  0.00  0.00    +0.000 HD
ENDBRANCH  21  26
TORSDOF 1
ENDMDL
MODEL 8
REMARK VINA RESULT:      -6.1      3.180      5.049
REMARK  Name = 
REMARK  2 active torsions:
REMARK  status: ('A' for Active; 'I' for Inactive)
REMARK    1  A    between atoms: C_1  and  N_2
REMARK    2  A    between atoms: C_21  and  O_22
REMARK                            x       y       z     vdW  Elec       q    Type
REMARK                         _______ _______ _______ _____ _____    ______ ____
ROOT
ATOM      1  C   UNL     1      -1.800  10.860  18.873  0.00  0.00    +0.000 C 
ATOM      2  N   UNL     1      -1.042  11.022  20.110  0.00  0.00    +0.000 N 
ATOM      3  C   UNL     1      -1.052  12.355  20.645  0.00  0.00    +0.000 A 
ATOM      4  C   UNL     1      -2.161  13.217  20.601  0.00  0.00    +0.000 A 
ATOM      5  C   UNL     1      -2.084  14.541  21.093  0.00  0.00    +0.000 A 
ATOM      6  C   UNL     1      -0.920  15.015  21.694  0.00  0.00    +0.000 A 
ATOM      7 CL   UNL     1      -0.819  16.637  22.256  0.00  0.00    +0.000 Cl
ATOM      8  C   UNL     1       0.186  14.199  21.777  0.00  0.00    +0.000 A 
ATOM      9  C   UNL     1       0.119  12.919  21.215  0.00  0.00    +0.000 A 
ATOM     10  C   UNL     1       1.404  12.267  20.926  0.00  0.00    +0.000 C 
ATOM     11  O   UNL     1       2.478  12.746  21.292  0.00  0.00    +0.000 OA
ATOM     12  N   UNL     1       1.294  11.232  20.048  0.00  0.00    +0.000 N 
ATOM     13  C   UNL     1       1.506  11.537  18.622  0.00  0.00    +0.000 C 
ATOM     14  C   UNL     1       1.945  10.318  17.817  0.00  0.00    +0.000 C 
ATOM     15  C   UNL     1       1.599   9.056  18.533  0.00  0.00    +0.000 A 
ATOM     16  C   UNL     1       0.791   9.034  19.670  0.00  0.00    +0.000 A 
ATOM     17  N   UNL     1       1.154   7.866  20.344  0.00  0.00    +0.000 N 
ATOM     18  C   UNL     1       2.194   7.209  19.681  0.00  0.00    +0.000 A 
ATOM     19  C   UNL     1       3.036   6.143  20.063  0.00  0.00    +0.000 A 
ATOM     20  C   UNL     1       4.082   5.771  19.186  0.00  0.00    +0.000 A 
ATOM     21  C   UNL     1       4.254   6.425  17.973  0.00  0.00    +0.000 A 
ATOM     22  C   UNL     1       3.423   7.475  17.611  0.00  0.00    +0.000 A 
ATOM     23  C   UNL     1       2.393   7.882  18.482  0.00  0.00    +0.000 A 
ATOM     24  C   UNL     1       0.238  10.294  20.348  0.00  0.00    +0.000 C 
ATOM     25  H   UNL     1       0.902   7.652  21.300  0.00  0.00    +0.000 HD
ENDROOT
BRANCH  21  26
ATOM     26  O   UNL     1       5.262   6.111  17.106  0.00  0.00    +0.000 OA
ATOM     27  H   UNL     1       5.373   5.148  17.076  0.00  0.00    +0.000 HD
ENDBRANCH  21  26
TORSDOF 1
ENDMDL
MODEL 9
REMARK VINA RESULT:      -6.1      7.307     10.145
REMARK  Name = 
REMARK  2 active torsions:
REMARK  status: ('A' for Active; 'I' for Inactive)
REMARK    1  A    between atoms: C_1  and  N_2
REMARK    2  A    between atoms: C_21  and  O_22
REMARK                            x       y       z     vdW  Elec       q    Type
REMARK                         _______ _______ _______ _____ _____    ______ ____
ROOT
ATOM      1  C   UNL     1       0.965  11.378  19.660  0.00  0.00    +0.000 C 
ATOM      2  N   UNL     1       0.732  12.475  18.725  0.00  0.00    +0.000 N 
ATOM      3  C   UNL     1       1.662  13.563  18.839  0.00  0.00    +0.000 A 
ATOM      4  C   UNL     1       3.029  13.410  19.126  0.00  0.00    +0.000 A 
ATOM      5  C   UNL     1       3.878  14.530  19.285  0.00  0.00    +0.000 A 
ATOM      6  C   UNL     1       3.397  15.825  19.102  0.00  0.00    +0.000 A 
ATOM      7 CL   UNL     1       4.424  17.184  19.334  0.00  0.00    +0.000 Cl
ATOM      8  C   UNL     1       2.068  16.023  18.801  0.00  0.00    +0.000 A 
ATOM      9  C   UNL     1       1.225  14.908  18.724  0.00  0.00    +0.000 A 
ATOM     10  C   UNL     1      -0.216  15.173  18.847  0.00  0.00    +0.000 C 
ATOM     11  O   UNL     1      -0.671  16.318  18.864  0.00  0.00    +0.000 OA
ATOM     12  N   UNL     1      -0.940  14.064  19.155  0.00  0.00    +0.000 N 
ATOM     13  C   UNL     1      -1.203  13.807  20.582  0.00  0.00    +0.000 C 
ATOM     14  C   UNL     1      -2.446  12.953  20.811  0.00  0.00    +0.000 C 
ATOM     15  C   UNL     1      -2.808  12.203  19.573  0.00  0.00    +0.000 A 
ATOM     16  C   UNL     1      -1.975  12.148  18.456  0.00  0.00    +0.000 A 
ATOM     17  N   UNL     1      -2.831  11.890  17.383  0.00  0.00    +0.000 N 
ATOM     18  C   UNL     1      -4.162  11.842  17.806  0.00  0.00    +0.000 A 
ATOM     19  C   UNL     1      -5.381  11.833  17.097  0.00  0.00    +0.000 A 
ATOM     20  C   UNL     1      -6.586  11.887  17.837  0.00  0.00    +0.000 A 
ATOM     21  C   UNL     1      -6.561  11.924  19.226  0.00  0.00    +0.000 A 
ATOM     22  C   UNL     1      -5.356  11.938  19.912  0.00  0.00    +0.000 A 
ATOM     23  C   UNL     1      -4.144  11.914  19.194  0.00  0.00    +0.000 A 
ATOM     24  C   UNL     1      -0.645  12.905  18.345  0.00  0.00    +0.000 C 
ATOM     25  H   UNL     1      -2.577  11.985  16.409  0.00  0.00    +0.000 HD
ENDROOT
BRANCH  21  26
ATOM     26  O   UNL     1      -7.699  11.997  19.978  0.00  0.00    +0.000 OA
ATOM     27  H   UNL     1      -7.528  11.629  20.858  0.00  0.00    +0.000 HD
ENDBRANCH  21  26
TORSDOF 1
ENDMDL
