MODEL 1
REMARK VINA RESULT:      -7.3      0.000      0.000
REMARK  Name = 
REMARK  6 active torsions:
REMARK  status: ('A' for Active; 'I' for Inactive)
REMARK    1  A    between atoms: C_1  and  C_2
REMARK    2  A    between atoms: C_5  and  C_6
REMARK    3  A    between atoms: C_6  and  N_7
REMARK    4  A    between atoms: N_10  and  N_11
REMARK    5  A    between atoms: C_12  and  C_13
REMARK    6  A    between atoms: C_16  and  C_17
REMARK                            x       y       z     vdW  Elec       q    Type
REMARK                         _______ _______ _______ _____ _____    ______ ____
ROOT
ATOM      1  N   UNL     1       5.698   5.477  17.531  0.00  0.00    +0.000 NA
ATOM      2  C   UNL     1       6.224   5.557  18.892  0.00  0.00    +0.000 C 
ATOM      3  C   UNL     1       7.719   5.877  18.782  0.00  0.00    +0.000 C 
ATOM      4  N   UNL     1       8.023   7.131  18.067  0.00  0.00    +0.000 N 
ATOM      5  C   UNL     1       7.189   7.325  16.862  0.00  0.00    +0.000 C 
ATOM      6  C   UNL     1       5.725   6.808  16.929  0.00  0.00    +0.000 C 
ENDROOT
BRANCH   4   7
ATOM      7  N   UNL     1       8.435   8.164  18.842  0.00  0.00    +0.000 NA
ATOM      8  C   UNL     1       8.441   9.316  18.242  0.00  0.00    +0.000 C 
BRANCH   8   9
ATOM      9  C   UNL     1       9.111  10.440  18.849  0.00  0.00    +0.000 A 
ATOM     10  C   UNL     1       9.659  10.533  20.115  0.00  0.00    +0.000 A 
ATOM     11  C   UNL     1      10.355  11.759  20.314  0.00  0.00    +0.000 A 
ATOM     12  C   UNL     1      10.298  12.575  19.204  0.00  0.00    +0.000 A 
ATOM     13  C   UNL     1      10.907  13.924  19.018  0.00  0.00    +0.000 C 
ATOM     14  S   UNL     1       9.405  11.852  17.934  0.00  0.00    +0.000 S 
ENDBRANCH   8   9
ENDBRANCH   4   7
BRANCH   1  15
ATOM     15  C   UNL     1       4.515   4.659  17.328  0.00  0.00    +0.000 C 
BRANCH  15  20
ATOM     16  C   UNL     1       1.374   2.651  21.801  0.00  0.00    +0.000 C 
ATOM     17  C   UNL     1       2.203   3.196  20.680  0.00  0.00    +0.000 A 
ATOM     18  C   UNL     1       1.880   4.411  20.068  0.00  0.00    +0.000 A 
ATOM     19  C   UNL     1       2.652   4.904  19.012  0.00  0.00    +0.000 A 
ATOM     20  C   UNL     1       3.755   4.183  18.540  0.00  0.00    +0.000 A 
ATOM     21  C   UNL     1       4.081   2.967  19.159  0.00  0.00    +0.000 A 
ATOM     22  C   UNL     1       3.313   2.477  20.220  0.00  0.00    +0.000 A 
ENDBRANCH  15  20
ENDBRANCH   1  15
TORSDOF 4
ENDMDL
MODEL 2
REMARK VINA RESULT:      -7.2      0.369      1.092
REMARK  Name = 
REMARK  6 active torsions:
REMARK  status: ('A' for Active; 'I' for Inactive)
REMARK    1  A    between atoms: C_1  and  C_2
REMARK    2  A    between atoms: C_5  and  C_6
REMARK    3  A    between atoms: C_6  and  N_7
REMARK    4  A    between atoms: N_10  and  N_11
REMARK    5  A    between atoms: C_12  and  C_13
REMARK    6  A    between atoms: C_16  and  C_17
REMARK                            x       y       z     vdW  Elec       q    Type
REMARK                         _______ _______ _______ _____ _____    ______ ____
ROOT
ATOM      1  N   UNL     1       5.628   5.527  17.362  0.00  0.00    +0.000 NA
ATOM      2  C   UNL     1       6.024   5.610  18.766  0.00  0.00    +0.000 C 
ATOM      3  C   UNL     1       7.539   5.835  18.796  0.00  0.00    +0.000 C 
ATOM      4  N   UNL     1       7.990   7.049  18.090  0.00  0.00    +0.000 N 
ATOM      5  C   UNL     1       7.291   7.262  16.806  0.00  0.00    +0.000 C 
ATOM      6  C   UNL     1       5.797   6.837  16.739  0.00  0.00    +0.000 C 
ENDROOT
BRANCH   4   7
ATOM      7  N   UNL     1       8.389   8.075  18.881  0.00  0.00    +0.000 NA
ATOM      8  C   UNL     1       8.532   9.207  18.260  0.00  0.00    +0.000 C 
BRANCH   8   9
ATOM      9  C   UNL     1       9.212  10.303  18.908  0.00  0.00    +0.000 A 
ATOM     10  C   UNL     1       9.318  10.569  20.260  0.00  0.00    +0.000 A 
ATOM     11  C   UNL     1      10.179  11.670  20.529  0.00  0.00    +0.000 A 
ATOM     12  C   UNL     1      10.686  12.227  19.374  0.00  0.00    +0.000 A 
ATOM     13  C   UNL     1      11.623  13.379  19.238  0.00  0.00    +0.000 C 
ATOM     14  S   UNL     1      10.116  11.413  17.978  0.00  0.00    +0.000 S 
ENDBRANCH   8   9
ENDBRANCH   4   7
BRANCH   1  15
ATOM     15  C   UNL     1       4.421   4.777  17.060  0.00  0.00    +0.000 C 
BRANCH  15  20
ATOM     16  C   UNL     1       1.547   2.742  21.698  0.00  0.00    +0.000 C 
ATOM     17  C   UNL     1       2.263   3.235  20.479  0.00  0.00    +0.000 A 
ATOM     18  C   UNL     1       3.365   2.546  19.962  0.00  0.00    +0.000 A 
ATOM     19  C   UNL     1       4.037   3.022  18.833  0.00  0.00    +0.000 A 
ATOM     20  C   UNL     1       3.626   4.204  18.206  0.00  0.00    +0.000 A 
ATOM     21  C   UNL     1       2.517   4.891  18.723  0.00  0.00    +0.000 A 
ATOM     22  C   UNL     1       1.840   4.411  19.849  0.00  0.00    +0.000 A 
ENDBRANCH  15  20
ENDBRANCH   1  15
TORSDOF 4
ENDMDL
MODEL 3
REMARK VINA RESULT:      -7.0      0.904      1.127
REMARK  Name = 
REMARK  6 active torsions:
REMARK  status: ('A' for Active; 'I' for Inactive)
REMARK    1  A    between atoms: C_1  and  C_2
REMARK    2  A    between atoms: C_5  and  C_6
REMARK    3  A    between atoms: C_6  and  N_7
REMARK    4  A    between atoms: N_10  and  N_11
REMARK    5  A    between atoms: C_12  and  C_13
REMARK    6  A    between atoms: C_16  and  C_17
REMARK                            x       y       z     vdW  Elec       q    Type
REMARK                         _______ _______ _______ _____ _____    ______ ____
ROOT
ATOM      1  N   UNL     1       6.085   5.105  17.650  0.00  0.00    +0.000 NA
ATOM      2  C   UNL     1       6.433   5.470  19.022  0.00  0.00    +0.000 C 
ATOM      3  C   UNL     1       7.873   5.994  19.000  0.00  0.00    +0.000 C 
ATOM      4  N   UNL     1       8.086   7.157  18.118  0.00  0.00    +0.000 N 
ATOM      5  C   UNL     1       7.380   7.036  16.825  0.00  0.00    +0.000 C 
ATOM      6  C   UNL     1       6.001   6.318  16.840  0.00  0.00    +0.000 C 
ENDROOT
BRANCH   4   7
ATOM      7  N   UNL     1       8.260   8.345  18.745  0.00  0.00    +0.000 NA
ATOM      8  C   UNL     1       8.423   9.356  17.945  0.00  0.00    +0.000 C 
BRANCH   8   9
ATOM      9  C   UNL     1       8.892  10.617  18.465  0.00  0.00    +0.000 A 
ATOM     10  C   UNL     1       8.849  11.863  17.866  0.00  0.00    +0.000 A 
ATOM     11  C   UNL     1       9.289  12.898  18.739  0.00  0.00    +0.000 A 
ATOM     12  C   UNL     1       9.676  12.410  19.970  0.00  0.00    +0.000 A 
ATOM     13  C   UNL     1      10.181  13.172  21.147  0.00  0.00    +0.000 C 
ATOM     14  S   UNL     1       9.504  10.707  20.057  0.00  0.00    +0.000 S 
ENDBRANCH   8   9
ENDBRANCH   4   7
BRANCH   1  15
ATOM     15  C   UNL     1       5.056   4.095  17.477  0.00  0.00    +0.000 C 
BRANCH  15  20
ATOM     16  C   UNL     1       1.266   2.823  21.711  0.00  0.00    +0.000 C 
ATOM     17  C   UNL     1       2.256   3.185  20.647  0.00  0.00    +0.000 A 
ATOM     18  C   UNL     1       1.992   4.214  19.737  0.00  0.00    +0.000 A 
ATOM     19  C   UNL     1       2.915   4.535  18.738  0.00  0.00    +0.000 A 
ATOM     20  C   UNL     1       4.116   3.824  18.623  0.00  0.00    +0.000 A 
ATOM     21  C   UNL     1       4.381   2.796  19.542  0.00  0.00    +0.000 A 
ATOM     22  C   UNL     1       3.461   2.480  20.545  0.00  0.00    +0.000 A 
ENDBRANCH  15  20
ENDBRANCH   1  15
TORSDOF 4
ENDMDL
MODEL 4
REMARK VINA RESULT:      -7.0      0.831      1.475
REMARK  Name = 
REMARK  6 active torsions:
REMARK  status: ('A' for Active; 'I' for Inactive)
REMARK    1  A    between atoms: C_1  and  C_2
REMARK    2  A    between atoms: C_5  and  C_6
REMARK    3  A    between atoms: C_6  and  N_7
REMARK    4  A    between atoms: N_10  and  N_11
REMARK    5  A    between atoms: C_12  and  C_13
REMARK    6  A    between atoms: C_16  and  C_17
REMARK                            x       y       z     vdW  Elec       q    Type
REMARK                         _______ _______ _______ _____ _____    ______ ____
ROOT
ATOM      1  N   UNL     1       5.487   5.481  17.421  0.00  0.00    +0.000 NA
ATOM      2  C   UNL     1       5.818   5.711  18.825  0.00  0.00    +0.000 C 
ATOM      3  C   UNL     1       7.344   5.812  18.921  0.00  0.00    +0.000 C 
ATOM      4  N   UNL     1       7.938   6.884  18.100  0.00  0.00    +0.000 N 
ATOM      5  C   UNL     1       7.325   6.987  16.758  0.00  0.00    +0.000 C 
ATOM      6  C   UNL     1       5.805   6.682  16.653  0.00  0.00    +0.000 C 
ENDROOT
BRANCH   4   7
ATOM      7  N   UNL     1       8.387   7.966  18.780  0.00  0.00    +0.000 NA
ATOM      8  C   UNL     1       8.374   9.072  18.099  0.00  0.00    +0.000 C 
BRANCH   8   9
ATOM      9  C   UNL     1       9.076  10.231  18.595  0.00  0.00    +0.000 A 
ATOM     10  C   UNL     1       9.702  11.230  17.874  0.00  0.00    +0.000 A 
ATOM     11  C   UNL     1      10.176  12.283  18.708  0.00  0.00    +0.000 A 
ATOM     12  C   UNL     1       9.918  12.045  20.042  0.00  0.00    +0.000 A 
ATOM     13  C   UNL     1      10.246  12.907  21.213  0.00  0.00    +0.000 C 
ATOM     14  S   UNL     1       9.107  10.553  20.272  0.00  0.00    +0.000 S 
ENDBRANCH   8   9
ENDBRANCH   4   7
BRANCH   1  15
ATOM     15  C   UNL     1       4.235   4.802  17.141  0.00  0.00    +0.000 C 
BRANCH  15  20
ATOM     16  C   UNL     1       1.460   2.698  21.809  0.00  0.00    +0.000 C 
ATOM     17  C   UNL     1       2.149   3.211  20.581  0.00  0.00    +0.000 A 
ATOM     18  C   UNL     1       3.203   2.502  19.997  0.00  0.00    +0.000 A 
ATOM     19  C   UNL     1       3.850   2.995  18.861  0.00  0.00    +0.000 A 
ATOM     20  C   UNL     1       3.462   4.216  18.295  0.00  0.00    +0.000 A 
ATOM     21  C   UNL     1       2.400   4.923  18.880  0.00  0.00    +0.000 A 
ATOM     22  C   UNL     1       1.749   4.425  20.013  0.00  0.00    +0.000 A 
ENDBRANCH  15  20
ENDBRANCH   1  15
TORSDOF 4
ENDMDL
MODEL 5
REMARK VINA RESULT:      -7.0      6.183      8.895
REMARK  Name = 
REMARK  6 active torsions:
REMARK  status: ('A' for Active; 'I' for Inactive)
REMARK    1  A    between atoms: C_1  and  C_2
REMARK    2  A    between atoms: C_5  and  C_6
REMARK    3  A    between atoms: C_6  and  N_7
REMARK    4  A    between atoms: N_10  and  N_11
REMARK    5  A    between atoms: C_12  and  C_13
REMARK    6  A    between atoms: C_16  and  C_17
REMARK                            x       y       z     vdW  Elec       q    Type
REMARK                         _______ _______ _______ _____ _____    ______ ____
ROOT
ATOM      1  N   UNL     1       2.456   7.533  19.245  0.00  0.00    +0.000 NA
ATOM      2  C   UNL     1       1.308   7.815  20.104  0.00  0.00    +0.000 C 
ATOM      3  C   UNL     1       1.182   9.339  20.207  0.00  0.00    +0.000 C 
ATOM      4  N   UNL     1       1.002  10.025  18.914  0.00  0.00    +0.000 N 
ATOM      5  C   UNL     1       1.866   9.478  17.846  0.00  0.00    +0.000 C 
ATOM      6  C   UNL     1       2.144   7.949  17.880  0.00  0.00    +0.000 C 
ENDROOT
BRANCH   4   7
ATOM      7  N   UNL     1      -0.242  10.503  18.670  0.00  0.00    +0.000 NA
ATOM      8  C   UNL     1      -0.892   9.862  17.746  0.00  0.00    +0.000 C 
BRANCH   8   9
ATOM      9  C   UNL     1      -2.100  10.425  17.193  0.00  0.00    +0.000 A 
ATOM     10  C   UNL     1      -2.620  10.264  15.923  0.00  0.00    +0.000 A 
ATOM     11  C   UNL     1      -3.902  10.869  15.783  0.00  0.00    +0.000 A 
ATOM     12  C   UNL     1      -4.312  11.492  16.943  0.00  0.00    +0.000 A 
ATOM     13  C   UNL     1      -5.587  12.222  17.198  0.00  0.00    +0.000 C 
ATOM     14  S   UNL     1      -3.144  11.341  18.187  0.00  0.00    +0.000 S 
ENDBRANCH   8   9
ENDBRANCH   4   7
BRANCH   1  15
ATOM     15  C   UNL     1       3.126   6.259  19.435  0.00  0.00    +0.000 C 
BRANCH  15  20
ATOM     16  C   UNL     1       5.906   4.153  14.772  0.00  0.00    +0.000 C 
ATOM     17  C   UNL     1       5.218   4.668  15.998  0.00  0.00    +0.000 A 
ATOM     18  C   UNL     1       4.225   3.920  16.637  0.00  0.00    +0.000 A 
ATOM     19  C   UNL     1       3.578   4.415  17.771  0.00  0.00    +0.000 A 
ATOM     20  C   UNL     1       3.904   5.677  18.282  0.00  0.00    +0.000 A 
ATOM     21  C   UNL     1       4.905   6.425  17.643  0.00  0.00    +0.000 A 
ATOM     22  C   UNL     1       5.557   5.925  16.512  0.00  0.00    +0.000 A 
ENDBRANCH  15  20
ENDBRANCH   1  15
TORSDOF 4
ENDMDL
MODEL 6
REMARK VINA RESULT:      -6.8      6.289      8.893
REMARK  Name = 
REMARK  6 active torsions:
REMARK  status: ('A' for Active; 'I' for Inactive)
REMARK    1  A    between atoms: C_1  and  C_2
REMARK    2  A    between atoms: C_5  and  C_6
REMARK    3  A    between atoms: C_6  and  N_7
REMARK    4  A    between atoms: N_10  and  N_11
REMARK    5  A    between atoms: C_12  and  C_13
REMARK    6  A    between atoms: C_16  and  C_17
REMARK                            x       y       z     vdW  Elec       q    Type
REMARK                         _______ _______ _______ _____ _____    ______ ____
ROOT
ATOM      1  N   UNL     1       2.352   7.751  19.272  0.00  0.00    +0.000 NA
ATOM      2  C   UNL     1       1.194   8.094  20.093  0.00  0.00    +0.000 C 
ATOM      3  C   UNL     1       1.145   9.623  20.194  0.00  0.00    +0.000 C 
ATOM      4  N   UNL     1       1.044  10.316  18.896  0.00  0.00    +0.000 N 
ATOM      5  C   UNL     1       1.912   9.724  17.856  0.00  0.00    +0.000 C 
ATOM      6  C   UNL     1       2.107   8.182  17.898  0.00  0.00    +0.000 C 
ENDROOT
BRANCH   4   7
ATOM      7  N   UNL     1      -0.165  10.859  18.612  0.00  0.00    +0.000 NA
ATOM      8  C   UNL     1      -0.967  10.072  17.961  0.00  0.00    +0.000 C 
BRANCH   8   9
ATOM      9  C   UNL     1      -2.164  10.606  17.356  0.00  0.00    +0.000 A 
ATOM     10  C   UNL     1      -2.591  10.486  16.047  0.00  0.00    +0.000 A 
ATOM     11  C   UNL     1      -3.890  11.036  15.849  0.00  0.00    +0.000 A 
ATOM     12  C   UNL     1      -4.405  11.580  17.007  0.00  0.00    +0.000 A 
ATOM     13  C   UNL     1      -5.729  12.235  17.210  0.00  0.00    +0.000 C 
ATOM     14  S   UNL     1      -3.315  11.420  18.319  0.00  0.00    +0.000 S 
ENDBRANCH   8   9
ENDBRANCH   4   7
BRANCH   1  15
ATOM     15  C   UNL     1       2.947   6.443  19.482  0.00  0.00    +0.000 C 
BRANCH  15  20
ATOM     16  C   UNL     1       5.996   3.781  15.296  0.00  0.00    +0.000 C 
ATOM     17  C   UNL     1       5.195   4.495  16.341  0.00  0.00    +0.000 A 
ATOM     18  C   UNL     1       5.641   5.699  16.894  0.00  0.00    +0.000 A 
ATOM     19  C   UNL     1       4.894   6.350  17.880  0.00  0.00    +0.000 A 
ATOM     20  C   UNL     1       3.692   5.801  18.340  0.00  0.00    +0.000 A 
ATOM     21  C   UNL     1       3.243   4.594  17.780  0.00  0.00    +0.000 A 
ATOM     22  C   UNL     1       3.987   3.947  16.789  0.00  0.00    +0.000 A 
ENDBRANCH  15  20
ENDBRANCH   1  15
TORSDOF 4
ENDMDL
MODEL 7
REMARK VINA RESULT:      -6.6      4.738      7.489
REMARK  Name = 
REMARK  6 active torsions:
REMARK  status: ('A' for Active; 'I' for Inactive)
REMARK    1  A    between atoms: C_1  and  C_2
REMARK    2  A    between atoms: C_5  and  C_6
REMARK    3  A    between atoms: C_6  and  N_7
REMARK    4  A    between atoms: N_10  and  N_11
REMARK    5  A    between atoms: C_12  and  C_13
REMARK    6  A    between atoms: C_16  and  C_17
REMARK                            x       y       z     vdW  Elec       q    Type
REMARK                         _______ _______ _______ _____ _____    ______ ____
ROOT
ATOM      1  N   UNL     1       4.736   5.614  18.218  0.00  0.00    +0.000 NA
ATOM      2  C   UNL     1       4.673   7.049  17.948  0.00  0.00    +0.000 C 
ATOM      3  C   UNL     1       3.193   7.417  17.798  0.00  0.00    +0.000 C 
ATOM      4  N   UNL     1       2.365   7.107  18.979  0.00  0.00    +0.000 N 
ATOM      5  C   UNL     1       2.689   5.796  19.581  0.00  0.00    +0.000 C 
ATOM      6  C   UNL     1       4.178   5.352  19.542  0.00  0.00    +0.000 C 
ENDROOT
BRANCH   4   7
ATOM      7  N   UNL     1       1.974   8.172  19.719  0.00  0.00    +0.000 NA
ATOM      8  C   UNL     1       1.259   7.870  20.760  0.00  0.00    +0.000 C 
BRANCH   8   9
ATOM      9  C   UNL     1       0.549   8.905  21.472  0.00  0.00    +0.000 A 
ATOM     10  C   UNL     1      -0.048   8.838  22.716  0.00  0.00    +0.000 A 
ATOM     11  C   UNL     1      -0.542  10.101  23.148  0.00  0.00    +0.000 A 
ATOM     12  C   UNL     1      -0.328  11.091  22.212  0.00  0.00    +0.000 A 
ATOM     13  C   UNL     1      -0.687  12.535  22.296  0.00  0.00    +0.000 C 
ATOM     14  S   UNL     1       0.467  10.482  20.821  0.00  0.00    +0.000 S 
ENDBRANCH   8   9
ENDBRANCH   4   7
BRANCH   1  15
ATOM     15  C   UNL     1       5.959   4.926  17.843  0.00  0.00    +0.000 C 
BRANCH  15  20
ATOM     16  C   UNL     1       6.582   3.781  12.168  0.00  0.00    +0.000 C 
ATOM     17  C   UNL     1       6.435   4.032  13.637  0.00  0.00    +0.000 A 
ATOM     18  C   UNL     1       5.305   3.595  14.335  0.00  0.00    +0.000 A 
ATOM     19  C   UNL     1       5.170   3.847  15.702  0.00  0.00    +0.000 A 
ATOM     20  C   UNL     1       6.159   4.554  16.396  0.00  0.00    +0.000 A 
ATOM     21  C   UNL     1       7.296   4.988  15.695  0.00  0.00    +0.000 A 
ATOM     22  C   UNL     1       7.433   4.729  14.328  0.00  0.00    +0.000 A 
ENDBRANCH  15  20
ENDBRANCH   1  15
TORSDOF 4
ENDMDL
MODEL 8
REMARK VINA RESULT:      -6.6      7.759      9.171
REMARK  Name = 
REMARK  6 active torsions:
REMARK  status: ('A' for Active; 'I' for Inactive)
REMARK    1  A    between atoms: C_1  and  C_2
REMARK    2  A    between atoms: C_5  and  C_6
REMARK    3  A    between atoms: C_6  and  N_7
REMARK    4  A    between atoms: N_10  and  N_11
REMARK    5  A    between atoms: C_12  and  C_13
REMARK    6  A    between atoms: C_16  and  C_17
REMARK                            x       y       z     vdW  Elec       q    Type
REMARK                         _______ _______ _______ _____ _____    ______ ____
ROOT
ATOM      1  N   UNL     1       1.349   8.475  20.271  0.00  0.00    +0.000 NA
ATOM      2  C   UNL     1       1.030   9.725  19.586  0.00  0.00    +0.000 C 
ATOM      3  C   UNL     1      -0.415  10.085  19.949  0.00  0.00    +0.000 C 
ATOM      4  N   UNL     1      -0.658  10.246  21.395  0.00  0.00    +0.000 N 
ATOM      5  C   UNL     1       0.019   9.217  22.212  0.00  0.00    +0.000 C 
ATOM      6  C   UNL     1       1.404   8.719  21.710  0.00  0.00    +0.000 C 
ENDROOT
BRANCH   4   7
ATOM      7  N   UNL     1      -0.828  11.520  21.824  0.00  0.00    +0.000 NA
ATOM      8  C   UNL     1      -1.472  11.627  22.947  0.00  0.00    +0.000 C 
BRANCH   8   9
ATOM      9  C   UNL     1      -1.964  12.914  23.375  0.00  0.00    +0.000 A 
ATOM     10  C   UNL     1      -1.250  14.076  23.601  0.00  0.00    +0.000 A 
ATOM     11  C   UNL     1      -2.096  15.184  23.888  0.00  0.00    +0.000 A 
ATOM     12  C   UNL     1      -3.429  14.832  23.896  0.00  0.00    +0.000 A 
ATOM     13  C   UNL     1      -4.613  15.704  24.142  0.00  0.00    +0.000 C 
ATOM     14  S   UNL     1      -3.644  13.166  23.556  0.00  0.00    +0.000 S 
ENDBRANCH   8   9
ENDBRANCH   4   7
BRANCH   1  15
ATOM     15  C   UNL     1       2.383   7.644  19.679  0.00  0.00    +0.000 C 
BRANCH  15  20
ATOM     16  C   UNL     1       0.931   2.083  18.741  0.00  0.00    +0.000 C 
ATOM     17  C   UNL     1       1.345   3.499  19.000  0.00  0.00    +0.000 A 
ATOM     18  C   UNL     1       1.223   4.065  20.273  0.00  0.00    +0.000 A 
ATOM     19  C   UNL     1       1.598   5.391  20.502  0.00  0.00    +0.000 A 
ATOM     20  C   UNL     1       2.089   6.182  19.457  0.00  0.00    +0.000 A 
ATOM     21  C   UNL     1       2.215   5.611  18.181  0.00  0.00    +0.000 A 
ATOM     22  C   UNL     1       1.847   4.282  17.954  0.00  0.00    +0.000 A 
ENDBRANCH  15  20
ENDBRANCH   1  15
TORSDOF 4
ENDMDL
MODEL 9
REMARK VINA RESULT:      -6.5      1.584      1.949
REMARK  Name = 
REMARK  6 active torsions:
REMARK  status: ('A' for Active; 'I' for Inactive)
REMARK    1  A    between atoms: C_1  and  C_2
REMARK    2  A    between atoms: C_5  and  C_6
REMARK    3  A    between atoms: C_6  and  N_7
REMARK    4  A    between atoms: N_10  and  N_11
REMARK    5  A    between atoms: C_12  and  C_13
REMARK    6  A    between atoms: C_16  and  C_17
REMARK                            x       y       z     vdW  Elec       q    Type
REMARK                         _______ _______ _______ _____ _____    ______ ____
ROOT
ATOM      1  N   UNL     1       6.009   5.472  17.145  0.00  0.00    +0.000 NA
ATOM      2  C   UNL     1       5.744   6.763  16.514  0.00  0.00    +0.000 C 
ATOM      3  C   UNL     1       6.003   7.845  17.568  0.00  0.00    +0.000 C 
ATOM      4  N   UNL     1       7.371   7.845  18.119  0.00  0.00    +0.000 N 
ATOM      5  C   UNL     1       7.883   6.485  18.391  0.00  0.00    +0.000 C 
ATOM      6  C   UNL     1       7.440   5.358  17.415  0.00  0.00    +0.000 C 
ENDROOT
BRANCH   4   7
ATOM      7  N   UNL     1       8.173   8.854  17.702  0.00  0.00    +0.000 NA
ATOM      8  C   UNL     1       8.628   9.608  18.656  0.00  0.00    +0.000 C 
BRANCH   8   9
ATOM      9  C   UNL     1       9.255  10.869  18.341  0.00  0.00    +0.000 A 
ATOM     10  C   UNL     1       8.730  11.939  17.641  0.00  0.00    +0.000 A 
ATOM     11  C   UNL     1       9.601  13.065  17.642  0.00  0.00    +0.000 A 
ATOM     12  C   UNL     1      10.774  12.815  18.322  0.00  0.00    +0.000 A 
ATOM     13  C   UNL     1      11.923  13.737  18.552  0.00  0.00    +0.000 C 
ATOM     14  S   UNL     1      10.811  11.222  18.952  0.00  0.00    +0.000 S 
ENDBRANCH   8   9
ENDBRANCH   4   7
BRANCH   1  15
ATOM     15  C   UNL     1       5.323   4.316  16.597  0.00  0.00    +0.000 C 
BRANCH  15  20
ATOM     16  C   UNL     1       0.411   2.298  18.987  0.00  0.00    +0.000 C 
ATOM     17  C   UNL     1       1.685   2.838  18.412  0.00  0.00    +0.000 A 
ATOM     18  C   UNL     1       1.767   4.156  17.953  0.00  0.00    +0.000 A 
ATOM     19  C   UNL     1       2.955   4.646  17.404  0.00  0.00    +0.000 A 
ATOM     20  C   UNL     1       4.081   3.822  17.293  0.00  0.00    +0.000 A 
ATOM     21  C   UNL     1       3.997   2.500  17.759  0.00  0.00    +0.000 A 
ATOM     22  C   UNL     1       2.811   2.012  18.315  0.00  0.00    +0.000 A 
ENDBRANCH  15  20
ENDBRANCH   1  15
TORSDOF 4
ENDMDL
