MODEL 1
REMARK VINA RESULT:      -7.7      0.000      0.000
REMARK  Name = 
REMARK  8 active torsions:
REMARK  status: ('A' for Active; 'I' for Inactive)
REMARK    1  A    between atoms: N_1  and  C_2
REMARK    2  A    between atoms: C_2  and  C_3
REMARK    3  A    between atoms: C_3  and  N_4
REMARK    4  A    between atoms: N_4  and  C_5
REMARK    5  A    between atoms: C_5  and  C_6
REMARK    6  A    between atoms: C_6  and  C_7
REMARK    7  A    between atoms: C_7  and  N_8
REMARK    8  A    between atoms: C_9  and  C_11
REMARK                            x       y       z     vdW  Elec       q    Type
REMARK                         _______ _______ _______ _____ _____    ______ ____
ROOT
ATOM      1  N   UNL     1       3.773   5.207  17.360  0.00  0.00    +0.000 N 
ATOM      2  C   UNL     1       3.736   5.865  18.547  0.00  0.00    +0.000 C 
ATOM      3  O   UNL     1       4.491   5.532  19.454  0.00  0.00    +0.000 OA
ATOM      4  H   UNL     1       3.166   5.476  16.580  0.00  0.00    +0.000 HD
ENDROOT
BRANCH   2   5
ATOM      5  C   UNL     1       2.837   7.024  18.763  0.00  0.00    +0.000 A 
ATOM      6  C   UNL     1       2.717   8.052  17.802  0.00  0.00    +0.000 A 
ATOM      7  C   UNL     1       1.921   9.161  18.042  0.00  0.00    +0.000 A 
ATOM      8  C   UNL     1       1.251   9.292  19.251  0.00  0.00    +0.000 A 
ATOM      9  N   UNL     1       0.526  10.407  19.504  0.00  0.00    +0.000 NA
ATOM     10  C   UNL     1      -0.083  10.612  20.699  0.00  0.00    +0.000 A 
ATOM     11  C   UNL     1      -0.777  11.801  20.929  0.00  0.00    +0.000 A 
ATOM     12  C   UNL     1      -1.365  12.038  22.173  0.00  0.00    +0.000 A 
ATOM     13  C   UNL     1      -1.269  11.082  23.190  0.00  0.00    +0.000 A 
ATOM     14  C   UNL     1      -0.592   9.878  22.963  0.00  0.00    +0.000 A 
ATOM     15  C   UNL     1       0.006   9.632  21.718  0.00  0.00    +0.000 A 
ATOM     16  C   UNL     1       0.710   8.449  21.465  0.00  0.00    +0.000 A 
ATOM     17  C   UNL     1       1.353   8.274  20.232  0.00  0.00    +0.000 A 
ATOM     18  C   UNL     1       2.124   7.136  19.969  0.00  0.00    +0.000 A 
ENDBRANCH   2   5
BRANCH   1  19
ATOM     19  C   UNL     1       4.681   4.129  17.087  0.00  0.00    +0.000 C 
BRANCH  19  20
ATOM     20  C   UNL     1       5.521   4.433  15.838  0.00  0.00    +0.000 C 
BRANCH  20  21
ATOM     21  C   UNL     1       6.921   4.959  16.196  0.00  0.00    +0.000 C 
BRANCH  21  22
ATOM     22  N   UNL     1       6.842   6.384  16.532  0.00  0.00    +0.000 NA
ATOM     23  H   UNL     1       7.436   6.918  15.866  0.00  0.00    +0.000 HD
BRANCH  22  24
ATOM     24  C   UNL     1       7.389   6.688  17.852  0.00  0.00    +0.000 C 
BRANCH  24  25
ATOM     25  C   UNL     1       7.747   5.363  18.542  0.00  0.00    +0.000 C 
BRANCH  25  26
ATOM     26  N   UNL     1       8.156   5.578  19.924  0.00  0.00    +0.000 NA
ATOM     27  H   UNL     1       7.493   5.061  20.548  0.00  0.00    +0.000 HD
ATOM     28  H   UNL     1       8.046   6.596  20.144  0.00  0.00    +0.000 HD
ENDBRANCH  25  26
ENDBRANCH  24  25
ENDBRANCH  22  24
ENDBRANCH  21  22
ENDBRANCH  20  21
ENDBRANCH  19  20
ENDBRANCH   1  19
TORSDOF 8
ENDMDL
MODEL 2
REMARK VINA RESULT:      -7.5      2.164      3.340
REMARK  Name = 
REMARK  8 active torsions:
REMARK  status: ('A' for Active; 'I' for Inactive)
REMARK    1  A    between atoms: N_1  and  C_2
REMARK    2  A    between atoms: C_2  and  C_3
REMARK    3  A    between atoms: C_3  and  N_4
REMARK    4  A    between atoms: N_4  and  C_5
REMARK    5  A    between atoms: C_5  and  C_6
REMARK    6  A    between atoms: C_6  and  C_7
REMARK    7  A    between atoms: C_7  and  N_8
REMARK    8  A    between atoms: C_9  and  C_11
REMARK                            x       y       z     vdW  Elec       q    Type
REMARK                         _______ _______ _______ _____ _____    ______ ____
ROOT
ATOM      1  N   UNL     1       3.720   4.582  19.078  0.00  0.00    +0.000 N 
ATOM      2  C   UNL     1       3.870   5.755  18.411  0.00  0.00    +0.000 C 
ATOM      3  O   UNL     1       4.743   5.865  17.557  0.00  0.00    +0.000 OA
ATOM      4  H   UNL     1       2.988   4.457  19.783  0.00  0.00    +0.000 HD
ENDROOT
BRANCH   2   5
ATOM      5  C   UNL     1       2.963   6.904  18.648  0.00  0.00    +0.000 A 
ATOM      6  C   UNL     1       2.827   7.942  17.699  0.00  0.00    +0.000 A 
ATOM      7  C   UNL     1       2.024   9.041  17.959  0.00  0.00    +0.000 A 
ATOM      8  C   UNL     1       1.362   9.153  19.174  0.00  0.00    +0.000 A 
ATOM      9  N   UNL     1       0.630  10.258  19.446  0.00  0.00    +0.000 NA
ATOM     10  C   UNL     1       0.028  10.444  20.647  0.00  0.00    +0.000 A 
ATOM     11  C   UNL     1      -0.674  11.624  20.897  0.00  0.00    +0.000 A 
ATOM     12  C   UNL     1      -1.253  11.843  22.147  0.00  0.00    +0.000 A 
ATOM     13  C   UNL     1      -1.142  10.876  23.152  0.00  0.00    +0.000 A 
ATOM     14  C   UNL     1      -0.456   9.680  22.907  0.00  0.00    +0.000 A 
ATOM     15  C   UNL     1       0.134   9.454  21.654  0.00  0.00    +0.000 A 
ATOM     16  C   UNL     1       0.846   8.280  21.382  0.00  0.00    +0.000 A 
ATOM     17  C   UNL     1       1.480   8.124  20.142  0.00  0.00    +0.000 A 
ATOM     18  C   UNL     1       2.259   6.996  19.860  0.00  0.00    +0.000 A 
ENDBRANCH   2   5
BRANCH   1  19
ATOM     19  C   UNL     1       4.530   3.424  18.824  0.00  0.00    +0.000 C 
BRANCH  19  20
ATOM     20  C   UNL     1       3.713   2.340  18.109  0.00  0.00    +0.000 C 
BRANCH  20  21
ATOM     21  C   UNL     1       2.211   2.669  18.083  0.00  0.00    +0.000 C 
BRANCH  21  22
ATOM     22  N   UNL     1       1.551   2.052  19.237  0.00  0.00    +0.000 NA
ATOM     23  H   UNL     1       0.756   1.472  18.897  0.00  0.00    +0.000 HD
BRANCH  22  24
ATOM     24  C   UNL     1       0.944   3.031  20.136  0.00  0.00    +0.000 C 
BRANCH  24  25
ATOM     25  C   UNL     1       1.312   2.654  21.578  0.00  0.00    +0.000 C 
BRANCH  25  26
ATOM     26  N   UNL     1       2.730   2.867  21.837  0.00  0.00    +0.000 NA
ATOM     27  H   UNL     1       3.279   2.251  21.193  0.00  0.00    +0.000 HD
ATOM     28  H   UNL     1       2.938   2.546  22.811  0.00  0.00    +0.000 HD
ENDBRANCH  25  26
ENDBRANCH  24  25
ENDBRANCH  22  24
ENDBRANCH  21  22
ENDBRANCH  20  21
ENDBRANCH  19  20
ENDBRANCH   1  19
TORSDOF 8
ENDMDL
MODEL 3
REMARK VINA RESULT:      -7.3      1.801      3.137
REMARK  Name = 
REMARK  8 active torsions:
REMARK  status: ('A' for Active; 'I' for Inactive)
REMARK    1  A    between atoms: N_1  and  C_2
REMARK    2  A    between atoms: C_2  and  C_3
REMARK    3  A    between atoms: C_3  and  N_4
REMARK    4  A    between atoms: N_4  and  C_5
REMARK    5  A    between atoms: C_5  and  C_6
REMARK    6  A    between atoms: C_6  and  C_7
REMARK    7  A    between atoms: C_7  and  N_8
REMARK    8  A    between atoms: C_9  and  C_11
REMARK                            x       y       z     vdW  Elec       q    Type
REMARK                         _______ _______ _______ _____ _____    ______ ____
ROOT
ATOM      1  N   UNL     1       3.905   5.717  17.657  0.00  0.00    +0.000 N 
ATOM      2  C   UNL     1       3.396   6.087  18.859  0.00  0.00    +0.000 C 
ATOM      3  O   UNL     1       3.705   5.468  19.871  0.00  0.00    +0.000 OA
ATOM      4  H   UNL     1       3.678   6.227  16.799  0.00  0.00    +0.000 HD
ENDROOT
BRANCH   2   5
ATOM      5  C   UNL     1       2.507   7.267  18.995  0.00  0.00    +0.000 A 
ATOM      6  C   UNL     1       2.378   8.214  17.955  0.00  0.00    +0.000 A 
ATOM      7  C   UNL     1       1.593   9.345  18.117  0.00  0.00    +0.000 A 
ATOM      8  C   UNL     1       0.944   9.579  19.322  0.00  0.00    +0.000 A 
ATOM      9  N   UNL     1       0.231  10.716  19.495  0.00  0.00    +0.000 NA
ATOM     10  C   UNL     1      -0.358  11.022  20.679  0.00  0.00    +0.000 A 
ATOM     11  C   UNL     1      -1.040  12.231  20.823  0.00  0.00    +0.000 A 
ATOM     12  C   UNL     1      -1.605  12.573  22.052  0.00  0.00    +0.000 A 
ATOM     13  C   UNL     1      -1.499  11.702  23.141  0.00  0.00    +0.000 A 
ATOM     14  C   UNL     1      -0.833  10.479  23.003  0.00  0.00    +0.000 A 
ATOM     15  C   UNL     1      -0.257  10.128  21.773  0.00  0.00    +0.000 A 
ATOM     16  C   UNL     1       0.435   8.923  21.606  0.00  0.00    +0.000 A 
ATOM     17  C   UNL     1       1.056   8.643  20.380  0.00  0.00    +0.000 A 
ATOM     18  C   UNL     1       1.816   7.482  20.199  0.00  0.00    +0.000 A 
ENDBRANCH   2   5
BRANCH   1  19
ATOM     19  C   UNL     1       4.827   4.628  17.495  0.00  0.00    +0.000 C 
BRANCH  19  20
ATOM     20  C   UNL     1       4.097   3.370  17.004  0.00  0.00    +0.000 C 
BRANCH  20  21
ATOM     21  C   UNL     1       3.838   2.370  18.143  0.00  0.00    +0.000 C 
BRANCH  21  22
ATOM     22  N   UNL     1       2.505   1.780  17.988  0.00  0.00    +0.000 NA
ATOM     23  H   UNL     1       1.998   2.292  17.238  0.00  0.00    +0.000 HD
BRANCH  22  24
ATOM     24  C   UNL     1       1.672   1.934  19.178  0.00  0.00    +0.000 C 
BRANCH  24  25
ATOM     25  C   UNL     1       1.017   3.323  19.130  0.00  0.00    +0.000 C 
BRANCH  25  26
ATOM     26  N   UNL     1       0.819   3.863  20.469  0.00  0.00    +0.000 NA
ATOM     27  H   UNL     1       0.037   3.336  20.923  0.00  0.00    +0.000 HD
ATOM     28  H   UNL     1       0.501   4.856  20.378  0.00  0.00    +0.000 HD
ENDBRANCH  25  26
ENDBRANCH  24  25
ENDBRANCH  22  24
ENDBRANCH  21  22
ENDBRANCH  20  21
ENDBRANCH  19  20
ENDBRANCH   1  19
TORSDOF 8
ENDMDL
MODEL 4
REMARK VINA RESULT:      -7.2      4.831      7.098
REMARK  Name = 
REMARK  8 active torsions:
REMARK  status: ('A' for Active; 'I' for Inactive)
REMARK    1  A    between atoms: N_1  and  C_2
REMARK    2  A    between atoms: C_2  and  C_3
REMARK    3  A    between atoms: C_3  and  N_4
REMARK    4  A    between atoms: N_4  and  C_5
REMARK    5  A    between atoms: C_5  and  C_6
REMARK    6  A    between atoms: C_6  and  C_7
REMARK    7  A    between atoms: C_7  and  N_8
REMARK    8  A    between atoms: C_9  and  C_11
REMARK                            x       y       z     vdW  Elec       q    Type
REMARK                         _______ _______ _______ _____ _____    ______ ____
ROOT
ATOM      1  N   UNL     1       6.480   4.333  13.394  0.00  0.00    +0.000 N 
ATOM      2  C   UNL     1       6.942   5.020  14.470  0.00  0.00    +0.000 C 
ATOM      3  O   UNL     1       8.015   5.610  14.403  0.00  0.00    +0.000 OA
ATOM      4  H   UNL     1       5.579   3.846  13.416  0.00  0.00    +0.000 HD
ENDROOT
BRANCH   2   5
ATOM      5  C   UNL     1       6.153   5.124  15.721  0.00  0.00    +0.000 A 
ATOM      6  C   UNL     1       6.610   5.889  16.817  0.00  0.00    +0.000 A 
ATOM      7  C   UNL     1       5.894   5.929  18.003  0.00  0.00    +0.000 A 
ATOM      8  C   UNL     1       4.728   5.189  18.142  0.00  0.00    +0.000 A 
ATOM      9  N   UNL     1       4.068   5.183  19.323  0.00  0.00    +0.000 NA
ATOM     10  C   UNL     1       2.967   4.417  19.528  0.00  0.00    +0.000 A 
ATOM     11  C   UNL     1       2.352   4.406  20.780  0.00  0.00    +0.000 A 
ATOM     12  C   UNL     1       1.248   3.583  21.011  0.00  0.00    +0.000 A 
ATOM     13  C   UNL     1       0.749   2.773  19.985  0.00  0.00    +0.000 A 
ATOM     14  C   UNL     1       1.347   2.790  18.720  0.00  0.00    +0.000 A 
ATOM     15  C   UNL     1       2.460   3.611  18.480  0.00  0.00    +0.000 A 
ATOM     16  C   UNL     1       3.096   3.635  17.233  0.00  0.00    +0.000 A 
ATOM     17  C   UNL     1       4.247   4.415  17.056  0.00  0.00    +0.000 A 
ATOM     18  C   UNL     1       4.949   4.410  15.846  0.00  0.00    +0.000 A 
ENDBRANCH   2   5
BRANCH   1  19
ATOM     19  C   UNL     1       7.179   4.271  12.141  0.00  0.00    +0.000 C 
BRANCH  19  20
ATOM     20  C   UNL     1       6.595   3.166  11.250  0.00  0.00    +0.000 C 
BRANCH  20  21
ATOM     21  C   UNL     1       5.419   2.440  11.924  0.00  0.00    +0.000 C 
BRANCH  21  22
ATOM     22  N   UNL     1       4.156   3.055  11.508  0.00  0.00    +0.000 NA
ATOM     23  H   UNL     1       3.441   2.307  11.393  0.00  0.00    +0.000 HD
BRANCH  22  24
ATOM     24  C   UNL     1       4.240   3.699  10.199  0.00  0.00    +0.000 C 
BRANCH  24  25
ATOM     25  C   UNL     1       2.838   4.198   9.818  0.00  0.00    +0.000 C 
BRANCH  25  26
ATOM     26  N   UNL     1       2.811   4.709   8.453  0.00  0.00    +0.000 NA
ATOM     27  H   UNL     1       2.385   5.666   8.469  0.00  0.00    +0.000 HD
ATOM     28  H   UNL     1       2.170   4.103   7.889  0.00  0.00    +0.000 HD
ENDBRANCH  25  26
ENDBRANCH  24  25
ENDBRANCH  22  24
ENDBRANCH  21  22
ENDBRANCH  20  21
ENDBRANCH  19  20
ENDBRANCH   1  19
TORSDOF 8
ENDMDL
MODEL 5
REMARK VINA RESULT:      -7.1      1.353      1.933
REMARK  Name = 
REMARK  8 active torsions:
REMARK  status: ('A' for Active; 'I' for Inactive)
REMARK    1  A    between atoms: N_1  and  C_2
REMARK    2  A    between atoms: C_2  and  C_3
REMARK    3  A    between atoms: C_3  and  N_4
REMARK    4  A    between atoms: N_4  and  C_5
REMARK    5  A    between atoms: C_5  and  C_6
REMARK    6  A    between atoms: C_6  and  C_7
REMARK    7  A    between atoms: C_7  and  N_8
REMARK    8  A    between atoms: C_9  and  C_11
REMARK                            x       y       z     vdW  Elec       q    Type
REMARK                         _______ _______ _______ _____ _____    ______ ____
ROOT
ATOM      1  N   UNL     1       3.585   5.487  19.418  0.00  0.00    +0.000 N 
ATOM      2  C   UNL     1       3.528   6.575  18.608  0.00  0.00    +0.000 C 
ATOM      3  O   UNL     1       4.299   6.672  17.660  0.00  0.00    +0.000 OA
ATOM      4  H   UNL     1       2.942   5.371  20.206  0.00  0.00    +0.000 HD
ENDROOT
BRANCH   2   5
ATOM      5  C   UNL     1       2.513   7.638  18.808  0.00  0.00    +0.000 A 
ATOM      6  C   UNL     1       2.193   8.551  17.779  0.00  0.00    +0.000 A 
ATOM      7  C   UNL     1       1.288   9.579  17.996  0.00  0.00    +0.000 A 
ATOM      8  C   UNL     1       0.704   9.743  19.245  0.00  0.00    +0.000 A 
ATOM      9  N   UNL     1      -0.129  10.785  19.469  0.00  0.00    +0.000 NA
ATOM     10  C   UNL     1      -0.664  11.029  20.692  0.00  0.00    +0.000 A 
ATOM     11  C   UNL     1      -1.478  12.146  20.884  0.00  0.00    +0.000 A 
ATOM     12  C   UNL     1      -1.991  12.429  22.151  0.00  0.00    +0.000 A 
ATOM     13  C   UNL     1      -1.699  11.589  23.231  0.00  0.00    +0.000 A 
ATOM     14  C   UNL     1      -0.899  10.455  23.045  0.00  0.00    +0.000 A 
ATOM     15  C   UNL     1      -0.375  10.165  21.776  0.00  0.00    +0.000 A 
ATOM     16  C   UNL     1       0.447   9.053  21.561  0.00  0.00    +0.000 A 
ATOM     17  C   UNL     1       1.007   8.839  20.293  0.00  0.00    +0.000 A 
ATOM     18  C   UNL     1       1.889   7.778  20.059  0.00  0.00    +0.000 A 
ENDBRANCH   2   5
BRANCH   1  19
ATOM     19  C   UNL     1       4.503   4.402  19.213  0.00  0.00    +0.000 C 
BRANCH  19  20
ATOM     20  C   UNL     1       3.780   3.186  18.619  0.00  0.00    +0.000 C 
BRANCH  20  21
ATOM     21  C   UNL     1       4.258   2.868  17.192  0.00  0.00    +0.000 C 
BRANCH  21  22
ATOM     22  N   UNL     1       4.716   4.098  16.540  0.00  0.00    +0.000 NA
ATOM     23  H   UNL     1       4.004   4.392  15.841  0.00  0.00    +0.000 HD
BRANCH  22  24
ATOM     24  C   UNL     1       5.943   3.910  15.769  0.00  0.00    +0.000 C 
BRANCH  24  25
ATOM     25  C   UNL     1       7.098   4.576  16.533  0.00  0.00    +0.000 C 
BRANCH  25  26
ATOM     26  N   UNL     1       7.192   5.996  16.219  0.00  0.00    +0.000 NA
ATOM     27  H   UNL     1       7.307   6.097  15.184  0.00  0.00    +0.000 HD
ATOM     28  H   UNL     1       8.066   6.371  16.658  0.00  0.00    +0.000 HD
ENDBRANCH  25  26
ENDBRANCH  24  25
ENDBRANCH  22  24
ENDBRANCH  21  22
ENDBRANCH  20  21
ENDBRANCH  19  20
ENDBRANCH   1  19
TORSDOF 8
ENDMDL
MODEL 6
REMARK VINA RESULT:      -7.1      2.089      3.509
REMARK  Name = 
REMARK  8 active torsions:
REMARK  status: ('A' for Active; 'I' for Inactive)
REMARK    1  A    between atoms: N_1  and  C_2
REMARK    2  A    between atoms: C_2  and  C_3
REMARK    3  A    between atoms: C_3  and  N_4
REMARK    4  A    between atoms: N_4  and  C_5
REMARK    5  A    between atoms: C_5  and  C_6
REMARK    6  A    between atoms: C_6  and  C_7
REMARK    7  A    between atoms: C_7  and  N_8
REMARK    8  A    between atoms: C_9  and  C_11
REMARK                            x       y       z     vdW  Elec       q    Type
REMARK                         _______ _______ _______ _____ _____    ______ ____
ROOT
ATOM      1  N   UNL     1       4.361   5.205  19.363  0.00  0.00    +0.000 N 
ATOM      2  C   UNL     1       3.710   5.841  18.355  0.00  0.00    +0.000 C 
ATOM      3  O   UNL     1       3.803   5.422  17.207  0.00  0.00    +0.000 OA
ATOM      4  H   UNL     1       4.286   5.524  20.333  0.00  0.00    +0.000 HD
ENDROOT
BRANCH   2   5
ATOM      5  C   UNL     1       2.836   7.011  18.613  0.00  0.00    +0.000 A 
ATOM      6  C   UNL     1       2.731   8.069  17.683  0.00  0.00    +0.000 A 
ATOM      7  C   UNL     1       1.960   9.187  17.962  0.00  0.00    +0.000 A 
ATOM      8  C   UNL     1       1.300   9.295  19.179  0.00  0.00    +0.000 A 
ATOM      9  N   UNL     1       0.600  10.416  19.470  0.00  0.00    +0.000 NA
ATOM     10  C   UNL     1       0.003  10.598  20.675  0.00  0.00    +0.000 A 
ATOM     11  C   UNL     1      -0.665  11.793  20.945  0.00  0.00    +0.000 A 
ATOM     12  C   UNL     1      -1.239  12.005  22.199  0.00  0.00    +0.000 A 
ATOM     13  C   UNL     1      -1.157  11.018  23.186  0.00  0.00    +0.000 A 
ATOM     14  C   UNL     1      -0.506   9.807  22.920  0.00  0.00    +0.000 A 
ATOM     15  C   UNL     1       0.079   9.587  21.663  0.00  0.00    +0.000 A 
ATOM     16  C   UNL     1       0.757   8.398  21.371  0.00  0.00    +0.000 A 
ATOM     17  C   UNL     1       1.388   8.247  20.128  0.00  0.00    +0.000 A 
ATOM     18  C   UNL     1       2.134   7.102  19.826  0.00  0.00    +0.000 A 
ENDBRANCH   2   5
BRANCH   1  19
ATOM     19  C   UNL     1       5.155   4.026  19.165  0.00  0.00    +0.000 C 
BRANCH  19  20
ATOM     20  C   UNL     1       4.322   2.763  19.422  0.00  0.00    +0.000 C 
BRANCH  20  21
ATOM     21  C   UNL     1       3.533   2.849  20.739  0.00  0.00    +0.000 C 
BRANCH  21  22
ATOM     22  N   UNL     1       2.148   2.425  20.512  0.00  0.00    +0.000 NA
ATOM     23  H   UNL     1       2.122   1.791  19.687  0.00  0.00    +0.000 HD
BRANCH  22  24
ATOM     24  C   UNL     1       1.264   3.534  20.161  0.00  0.00    +0.000 C 
BRANCH  24  25
ATOM     25  C   UNL     1       0.850   3.372  18.691  0.00  0.00    +0.000 C 
BRANCH  25  26
ATOM     26  N   UNL     1       0.831   1.970  18.296  0.00  0.00    +0.000 NA
ATOM     27  H   UNL     1      -0.059   1.542  18.643  0.00  0.00    +0.000 HD
ATOM     28  H   UNL     1       1.613   1.480  18.790  0.00  0.00    +0.000 HD
ENDBRANCH  25  26
ENDBRANCH  24  25
ENDBRANCH  22  24
ENDBRANCH  21  22
ENDBRANCH  20  21
ENDBRANCH  19  20
ENDBRANCH   1  19
TORSDOF 8
ENDMDL
MODEL 7
REMARK VINA RESULT:      -7.1      1.423      2.099
REMARK  Name = 
REMARK  8 active torsions:
REMARK  status: ('A' for Active; 'I' for Inactive)
REMARK    1  A    between atoms: N_1  and  C_2
REMARK    2  A    between atoms: C_2  and  C_3
REMARK    3  A    between atoms: C_3  and  N_4
REMARK    4  A    between atoms: N_4  and  C_5
REMARK    5  A    between atoms: C_5  and  C_6
REMARK    6  A    between atoms: C_6  and  C_7
REMARK    7  A    between atoms: C_7  and  N_8
REMARK    8  A    between atoms: C_9  and  C_11
REMARK                            x       y       z     vdW  Elec       q    Type
REMARK                         _______ _______ _______ _____ _____    ______ ____
ROOT
ATOM      1  N   UNL     1       3.901   5.829  19.649  0.00  0.00    +0.000 N 
ATOM      2  C   UNL     1       3.452   6.597  18.623  0.00  0.00    +0.000 C 
ATOM      3  O   UNL     1       3.868   6.402  17.486  0.00  0.00    +0.000 OA
ATOM      4  H   UNL     1       3.557   5.959  20.605  0.00  0.00    +0.000 HD
ENDROOT
BRANCH   2   5
ATOM      5  C   UNL     1       2.420   7.642  18.829  0.00  0.00    +0.000 A 
ATOM      6  C   UNL     1       2.027   8.504  17.782  0.00  0.00    +0.000 A 
ATOM      7  C   UNL     1       1.108   9.518  18.003  0.00  0.00    +0.000 A 
ATOM      8  C   UNL     1       0.580   9.719  19.271  0.00  0.00    +0.000 A 
ATOM      9  N   UNL     1      -0.269  10.749  19.494  0.00  0.00    +0.000 NA
ATOM     10  C   UNL     1      -0.750  11.029  20.731  0.00  0.00    +0.000 A 
ATOM     11  C   UNL     1      -1.583  12.133  20.918  0.00  0.00    +0.000 A 
ATOM     12  C   UNL     1      -2.042  12.455  22.196  0.00  0.00    +0.000 A 
ATOM     13  C   UNL     1      -1.677  11.667  23.293  0.00  0.00    +0.000 A 
ATOM     14  C   UNL     1      -0.857  10.546  23.114  0.00  0.00    +0.000 A 
ATOM     15  C   UNL     1      -0.387  10.218  21.833  0.00  0.00    +0.000 A 
ATOM     16  C   UNL     1       0.452   9.118  21.622  0.00  0.00    +0.000 A 
ATOM     17  C   UNL     1       0.956   8.866  20.338  0.00  0.00    +0.000 A 
ATOM     18  C   UNL     1       1.853   7.818  20.103  0.00  0.00    +0.000 A 
ENDBRANCH   2   5
BRANCH   1  19
ATOM     19  C   UNL     1       4.842   4.759  19.477  0.00  0.00    +0.000 C 
BRANCH  19  20
ATOM     20  C   UNL     1       6.245   5.313  19.194  0.00  0.00    +0.000 C 
BRANCH  20  21
ATOM     21  C   UNL     1       6.884   4.666  17.954  0.00  0.00    +0.000 C 
BRANCH  21  22
ATOM     22  N   UNL     1       5.916   3.775  17.308  0.00  0.00    +0.000 NA
ATOM     23  H   UNL     1       6.193   2.789  17.494  0.00  0.00    +0.000 HD
BRANCH  22  24
ATOM     24  C   UNL     1       5.913   3.896  15.852  0.00  0.00    +0.000 C 
BRANCH  24  25
ATOM     25  C   UNL     1       6.523   5.257  15.482  0.00  0.00    +0.000 C 
BRANCH  25  26
ATOM     26  N   UNL     1       5.494   6.209  15.085  0.00  0.00    +0.000 NA
ATOM     27  H   UNL     1       4.616   5.981  15.608  0.00  0.00    +0.000 HD
ATOM     28  H   UNL     1       5.286   6.063  14.070  0.00  0.00    +0.000 HD
ENDBRANCH  25  26
ENDBRANCH  24  25
ENDBRANCH  22  24
ENDBRANCH  21  22
ENDBRANCH  20  21
ENDBRANCH  19  20
ENDBRANCH   1  19
TORSDOF 8
ENDMDL
MODEL 8
REMARK VINA RESULT:      -7.0      1.277      1.497
REMARK  Name = 
REMARK  8 active torsions:
REMARK  status: ('A' for Active; 'I' for Inactive)
REMARK    1  A    between atoms: N_1  and  C_2
REMARK    2  A    between atoms: C_2  and  C_3
REMARK    3  A    between atoms: C_3  and  N_4
REMARK    4  A    between atoms: N_4  and  C_5
REMARK    5  A    between atoms: C_5  and  C_6
REMARK    6  A    between atoms: C_6  and  C_7
REMARK    7  A    between atoms: C_7  and  N_8
REMARK    8  A    between atoms: C_9  and  C_11
REMARK                            x       y       z     vdW  Elec       q    Type
REMARK                         _______ _______ _______ _____ _____    ______ ____
ROOT
ATOM      1  N   UNL     1       5.019   5.602  18.771  0.00  0.00    +0.000 N 
ATOM      2  C   UNL     1       3.832   5.769  18.133  0.00  0.00    +0.000 C 
ATOM      3  O   UNL     1       3.460   4.943  17.308  0.00  0.00    +0.000 OA
ATOM      4  H   UNL     1       5.346   6.268  19.478  0.00  0.00    +0.000 HD
ENDROOT
BRANCH   2   5
ATOM      5  C   UNL     1       2.936   6.908  18.448  0.00  0.00    +0.000 A 
ATOM      6  C   UNL     1       2.770   7.984  17.548  0.00  0.00    +0.000 A 
ATOM      7  C   UNL     1       1.978   9.073  17.879  0.00  0.00    +0.000 A 
ATOM      8  C   UNL     1       1.359   9.135  19.120  0.00  0.00    +0.000 A 
ATOM      9  N   UNL     1       0.639  10.228  19.461  0.00  0.00    +0.000 NA
ATOM     10  C   UNL     1       0.078  10.365  20.689  0.00  0.00    +0.000 A 
ATOM     11  C   UNL     1      -0.612  11.535  21.011  0.00  0.00    +0.000 A 
ATOM     12  C   UNL     1      -1.149  11.702  22.288  0.00  0.00    +0.000 A 
ATOM     13  C   UNL     1      -1.005  10.695  23.248  0.00  0.00    +0.000 A 
ATOM     14  C   UNL     1      -0.331   9.510  22.931  0.00  0.00    +0.000 A 
ATOM     15  C   UNL     1       0.216   9.334  21.651  0.00  0.00    +0.000 A 
ATOM     16  C   UNL     1       0.916   8.172  21.307  0.00  0.00    +0.000 A 
ATOM     17  C   UNL     1       1.507   8.067  20.040  0.00  0.00    +0.000 A 
ATOM     18  C   UNL     1       2.274   6.951  19.686  0.00  0.00    +0.000 A 
ENDBRANCH   2   5
BRANCH   1  19
ATOM     19  C   UNL     1       5.879   4.475  18.549  0.00  0.00    +0.000 C 
BRANCH  19  20
ATOM     20  C   UNL     1       7.217   4.925  17.948  0.00  0.00    +0.000 C 
BRANCH  20  21
ATOM     21  C   UNL     1       7.036   5.617  16.586  0.00  0.00    +0.000 C 
BRANCH  21  22
ATOM     22  N   UNL     1       7.677   6.935  16.612  0.00  0.00    +0.000 NA
ATOM     23  H   UNL     1       8.708   6.806  16.564  0.00  0.00    +0.000 HD
BRANCH  22  24
ATOM     24  C   UNL     1       7.446   7.654  17.862  0.00  0.00    +0.000 C 
BRANCH  24  25
ATOM     25  C   UNL     1       8.224   8.977  17.807  0.00  0.00    +0.000 C 
BRANCH  25  26
ATOM     26  N   UNL     1       8.980   9.200  19.033  0.00  0.00    +0.000 NA
ATOM     27  H   UNL     1       9.230   8.268  19.439  0.00  0.00    +0.000 HD
ATOM     28  H   UNL     1       8.352   9.672  19.724  0.00  0.00    +0.000 HD
ENDBRANCH  25  26
ENDBRANCH  24  25
ENDBRANCH  22  24
ENDBRANCH  21  22
ENDBRANCH  20  21
ENDBRANCH  19  20
ENDBRANCH   1  19
TORSDOF 8
ENDMDL
MODEL 9
REMARK VINA RESULT:      -6.9      1.444      2.408
REMARK  Name = 
REMARK  8 active torsions:
REMARK  status: ('A' for Active; 'I' for Inactive)
REMARK    1  A    between atoms: N_1  and  C_2
REMARK    2  A    between atoms: C_2  and  C_3
REMARK    3  A    between atoms: C_3  and  N_4
REMARK    4  A    between atoms: N_4  and  C_5
REMARK    5  A    between atoms: C_5  and  C_6
REMARK    6  A    between atoms: C_6  and  C_7
REMARK    7  A    between atoms: C_7  and  N_8
REMARK    8  A    between atoms: C_9  and  C_11
REMARK                            x       y       z     vdW  Elec       q    Type
REMARK                         _______ _______ _______ _____ _____    ______ ____
ROOT
ATOM      1  N   UNL     1       4.557   4.552  16.940  0.00  0.00    +0.000 N 
ATOM      2  C   UNL     1       3.372   4.392  17.582  0.00  0.00    +0.000 C 
ATOM      3  O   UNL     1       2.734   3.355  17.436  0.00  0.00    +0.000 OA
ATOM      4  H   UNL     1       5.119   5.401  17.057  0.00  0.00    +0.000 HD
ENDROOT
BRANCH   2   5
ATOM      5  C   UNL     1       2.845   5.424  18.507  0.00  0.00    +0.000 A 
ATOM      6  C   UNL     1       2.455   5.099  19.825  0.00  0.00    +0.000 A 
ATOM      7  C   UNL     1       1.906   6.059  20.661  0.00  0.00    +0.000 A 
ATOM      8  C   UNL     1       1.702   7.353  20.201  0.00  0.00    +0.000 A 
ATOM      9  N   UNL     1       1.108   8.268  21.001  0.00  0.00    +0.000 NA
ATOM     10  C   UNL     1       0.821   9.522  20.569  0.00  0.00    +0.000 A 
ATOM     11  C   UNL     1       0.161  10.414  21.416  0.00  0.00    +0.000 A 
ATOM     12  C   UNL     1      -0.180  11.688  20.960  0.00  0.00    +0.000 A 
ATOM     13  C   UNL     1       0.146  12.080  19.658  0.00  0.00    +0.000 A 
ATOM     14  C   UNL     1       0.825  11.200  18.806  0.00  0.00    +0.000 A 
ATOM     15  C   UNL     1       1.168   9.915  19.253  0.00  0.00    +0.000 A 
ATOM     16  C   UNL     1       1.826   9.002  18.421  0.00  0.00    +0.000 A 
ATOM     17  C   UNL     1       2.087   7.704  18.884  0.00  0.00    +0.000 A 
ATOM     18  C   UNL     1       2.679   6.744  18.056  0.00  0.00    +0.000 A 
ENDBRANCH   2   5
BRANCH   1  19
ATOM     19  C   UNL     1       5.136   3.546  16.095  0.00  0.00    +0.000 C 
BRANCH  19  20
ATOM     20  C   UNL     1       6.054   4.185  15.043  0.00  0.00    +0.000 C 
BRANCH  20  21
ATOM     21  C   UNL     1       6.259   5.689  15.292  0.00  0.00    +0.000 C 
BRANCH  21  22
ATOM     22  N   UNL     1       7.419   5.892  16.164  0.00  0.00    +0.000 NA
ATOM     23  H   UNL     1       7.657   4.987  16.620  0.00  0.00    +0.000 HD
BRANCH  22  24
ATOM     24  C   UNL     1       7.147   6.808  17.269  0.00  0.00    +0.000 C 
BRANCH  24  25
ATOM     25  C   UNL     1       7.667   6.168  18.564  0.00  0.00    +0.000 C 
BRANCH  25  26
ATOM     26  N   UNL     1       7.426   4.731  18.581  0.00  0.00    +0.000 NA
ATOM     27  H   UNL     1       6.402   4.568  18.439  0.00  0.00    +0.000 HD
ATOM     28  H   UNL     1       7.660   4.370  19.535  0.00  0.00    +0.000 HD
ENDBRANCH  25  26
ENDBRANCH  24  25
ENDBRANCH  22  24
ENDBRANCH  21  22
ENDBRANCH  20  21
ENDBRANCH  19  20
ENDBRANCH   1  19
TORSDOF 8
ENDMDL
