MODEL 1
REMARK VINA RESULT:      -6.1      0.000      0.000
REMARK  Name = 
REMARK  13 active torsions:
REMARK  status: ('A' for Active; 'I' for Inactive)
REMARK    1  A    between atoms: C_1  and  C_2
REMARK    2  A    between atoms: C_2  and  O_3
REMARK    3  A    between atoms: O_3  and  C_4
REMARK    4  A    between atoms: C_4  and  C_6
REMARK    5  A    between atoms: C_10  and  C_11
REMARK    6  A    between atoms: C_11  and  C_12
REMARK    7  A    between atoms: C_11  and  C_13
REMARK    8  A    between atoms: C_11  and  C_14
REMARK    9  A    between atoms: N_15  and  N_16
REMARK   10  A    between atoms: C_18  and  C_19
REMARK   11  A    between atoms: C_19  and  C_20
REMARK   12  A    between atoms: C_19  and  C_21
REMARK   13  A    between atoms: C_19  and  C_22
REMARK                            x       y       z     vdW  Elec       q    Type
REMARK                         _______ _______ _______ _____ _____    ______ ____
ROOT
ATOM      1  C   UNL     1       3.131   5.084  19.886  0.00  0.00    +0.000 C 
ATOM      2  C   UNL     1       3.073   6.475  19.321  0.00  0.00    +0.000 C 
ATOM      3  O   UNL     1       2.425   7.373  19.862  0.00  0.00    +0.000 OA
ATOM      4  C   UNL     1       3.885   6.781  18.094  0.00  0.00    +0.000 C 
ATOM      5  C   UNL     1       5.252   6.087  18.120  0.00  0.00    +0.000 C 
ATOM      6  N   UNL     1       5.206   4.646  18.517  0.00  0.00    +0.000 N 
ATOM      7  C   UNL     1       3.884   4.077  18.984  0.00  0.00    +0.000 C 
ENDROOT
BRANCH   5   8
ATOM      8  C   UNL     1       6.102   6.349  16.783  0.00  0.00    +0.000 C 
ATOM      9  C   UNL     1       5.175   6.748  15.611  0.00  0.00    +0.000 C 
ATOM     10  C   UNL     1       7.120   7.499  16.965  0.00  0.00    +0.000 C 
ATOM     11  C   UNL     1       6.912   5.130  16.313  0.00  0.00    +0.000 C 
ENDBRANCH   5   8
BRANCH   7  12
ATOM     12  C   UNL     1       3.154   3.228  17.842  0.00  0.00    +0.000 C 
ATOM     13  C   UNL     1       4.175   2.962  16.699  0.00  0.00    +0.000 C 
ATOM     14  C   UNL     1       2.678   1.837  18.309  0.00  0.00    +0.000 C 
ATOM     15  C   UNL     1       1.916   3.880  17.224  0.00  0.00    +0.000 C 
ENDBRANCH   7  12
BRANCH   1  16
ATOM     16  C   UNL     1       1.856   4.541  20.480  0.00  0.00    +0.000 C 
ATOM     17  O   UNL     1       0.780   4.613  19.901  0.00  0.00    +0.000 OA
BRANCH  16  18
ATOM     18  O   UNL     1       2.020   4.035  21.731  0.00  0.00    +0.000 OA
BRANCH  18  20
ATOM     19  C   UNL     1       3.177   1.864  21.655  0.00  0.00    +0.000 C 
ATOM     20  C   UNL     1       1.874   2.613  21.884  0.00  0.00    +0.000 C 
ENDBRANCH  18  20
ENDBRANCH  16  18
ENDBRANCH   1  16
BRANCH   6  21
ATOM     21  N   UNL     1       6.196   4.373  19.355  0.00  0.00    +0.000 NA
ATOM     22  O   UNL     1       6.648   5.404  19.866  0.00  0.00    +0.000 OA
ENDBRANCH   6  21
TORSDOF 6
ENDMDL
MODEL 2
REMARK VINA RESULT:      -6.0      0.596      1.214
REMARK  Name = 
REMARK  13 active torsions:
REMARK  status: ('A' for Active; 'I' for Inactive)
REMARK    1  A    between atoms: C_1  and  C_2
REMARK    2  A    between atoms: C_2  and  O_3
REMARK    3  A    between atoms: O_3  and  C_4
REMARK    4  A    between atoms: C_4  and  C_6
REMARK    5  A    between atoms: C_10  and  C_11
REMARK    6  A    between atoms: C_11  and  C_12
REMARK    7  A    between atoms: C_11  and  C_13
REMARK    8  A    between atoms: C_11  and  C_14
REMARK    9  A    between atoms: N_15  and  N_16
REMARK   10  A    between atoms: C_18  and  C_19
REMARK   11  A    between atoms: C_19  and  C_20
REMARK   12  A    between atoms: C_19  and  C_21
REMARK   13  A    between atoms: C_19  and  C_22
REMARK                            x       y       z     vdW  Elec       q    Type
REMARK                         _______ _______ _______ _____ _____    ______ ____
ROOT
ATOM      1  C   UNL     1       3.119   5.133  19.932  0.00  0.00    +0.000 C 
ATOM      2  C   UNL     1       3.043   6.449  19.211  0.00  0.00    +0.000 C 
ATOM      3  O   UNL     1       2.474   7.428  19.697  0.00  0.00    +0.000 OA
ATOM      4  C   UNL     1       3.742   6.579  17.887  0.00  0.00    +0.000 C 
ATOM      5  C   UNL     1       5.086   5.842  17.869  0.00  0.00    +0.000 C 
ATOM      6  N   UNL     1       5.042   4.461  18.441  0.00  0.00    +0.000 N 
ATOM      7  C   UNL     1       3.757   4.000  19.093  0.00  0.00    +0.000 C 
ENDROOT
BRANCH   5   8
ATOM      8  C   UNL     1       5.811   5.914  16.438  0.00  0.00    +0.000 C 
ATOM      9  C   UNL     1       7.240   6.488  16.574  0.00  0.00    +0.000 C 
ATOM     10  C   UNL     1       5.946   4.517  15.790  0.00  0.00    +0.000 C 
ATOM     11  C   UNL     1       5.075   6.793  15.414  0.00  0.00    +0.000 C 
ENDBRANCH   5   8
BRANCH   7  12
ATOM     12  C   UNL     1       2.899   3.049  18.134  0.00  0.00    +0.000 C 
ATOM     13  C   UNL     1       3.880   2.243  17.235  0.00  0.00    +0.000 C 
ATOM     14  C   UNL     1       2.063   1.996  18.889  0.00  0.00    +0.000 C 
ATOM     15  C   UNL     1       1.902   3.762  17.219  0.00  0.00    +0.000 C 
ENDBRANCH   7  12
BRANCH   1  16
ATOM     16  C   UNL     1       1.894   4.712  20.703  0.00  0.00    +0.000 C 
ATOM     17  O   UNL     1       0.759   4.891  20.280  0.00  0.00    +0.000 OA
BRANCH  16  18
ATOM     18  O   UNL     1       2.182   4.183  21.921  0.00  0.00    +0.000 OA
BRANCH  18  20
ATOM     19  C   UNL     1       1.005   2.067  22.358  0.00  0.00    +0.000 C 
ATOM     20  C   UNL     1       2.313   2.752  21.998  0.00  0.00    +0.000 C 
ENDBRANCH  18  20
ENDBRANCH  16  18
ENDBRANCH   1  16
BRANCH   6  21
ATOM     21  N   UNL     1       6.101   4.252  19.211  0.00  0.00    +0.000 NA
ATOM     22  O   UNL     1       6.477   5.299  19.747  0.00  0.00    +0.000 OA
ENDBRANCH   6  21
TORSDOF 6
ENDMDL
MODEL 3
REMARK VINA RESULT:      -5.9      1.880      5.569
REMARK  Name = 
REMARK  13 active torsions:
REMARK  status: ('A' for Active; 'I' for Inactive)
REMARK    1  A    between atoms: C_1  and  C_2
REMARK    2  A    between atoms: C_2  and  O_3
REMARK    3  A    between atoms: O_3  and  C_4
REMARK    4  A    between atoms: C_4  and  C_6
REMARK    5  A    between atoms: C_10  and  C_11
REMARK    6  A    between atoms: C_11  and  C_12
REMARK    7  A    between atoms: C_11  and  C_13
REMARK    8  A    between atoms: C_11  and  C_14
REMARK    9  A    between atoms: N_15  and  N_16
REMARK   10  A    between atoms: C_18  and  C_19
REMARK   11  A    between atoms: C_19  and  C_20
REMARK   12  A    between atoms: C_19  and  C_21
REMARK   13  A    between atoms: C_19  and  C_22
REMARK                            x       y       z     vdW  Elec       q    Type
REMARK                         _______ _______ _______ _____ _____    ______ ____
ROOT
ATOM      1  C   UNL     1       5.929   6.016  17.988  0.00  0.00    +0.000 C 
ATOM      2  C   UNL     1       6.066   5.244  19.269  0.00  0.00    +0.000 C 
ATOM      3  O   UNL     1       7.027   5.400  20.025  0.00  0.00    +0.000 OA
ATOM      4  C   UNL     1       4.959   4.306  19.659  0.00  0.00    +0.000 C 
ATOM      5  C   UNL     1       3.575   4.875  19.324  0.00  0.00    +0.000 C 
ATOM      6  N   UNL     1       3.466   5.465  17.954  0.00  0.00    +0.000 N 
ATOM      7  C   UNL     1       4.724   5.575  17.122  0.00  0.00    +0.000 C 
ENDROOT
BRANCH   5   8
ATOM      8  C   UNL     1       2.387   3.852  19.671  0.00  0.00    +0.000 C 
ATOM      9  C   UNL     1       1.373   3.772  18.507  0.00  0.00    +0.000 C 
ATOM     10  C   UNL     1       2.913   2.419  19.912  0.00  0.00    +0.000 C 
ATOM     11  C   UNL     1       1.589   4.233  20.929  0.00  0.00    +0.000 C 
ENDBRANCH   5   8
BRANCH   7  12
ATOM     12  C   UNL     1       4.829   4.414  16.026  0.00  0.00    +0.000 C 
ATOM     13  C   UNL     1       3.450   3.698  15.937  0.00  0.00    +0.000 C 
ATOM     14  C   UNL     1       5.126   4.927  14.603  0.00  0.00    +0.000 C 
ATOM     15  C   UNL     1       5.894   3.350  16.293  0.00  0.00    +0.000 C 
ENDBRANCH   7  12
BRANCH   1  16
ATOM     16  C   UNL     1       7.194   6.256  17.203  0.00  0.00    +0.000 C 
ATOM     17  O   UNL     1       7.883   5.340  16.774  0.00  0.00    +0.000 OA
BRANCH  16  18
ATOM     18  O   UNL     1       7.510   7.572  17.086  0.00  0.00    +0.000 OA
BRANCH  18  20
ATOM     19  C   UNL     1       8.418   9.668  18.003  0.00  0.00    +0.000 C 
ATOM     20  C   UNL     1       8.241   8.168  18.173  0.00  0.00    +0.000 C 
ENDBRANCH  18  20
ENDBRANCH  16  18
ENDBRANCH   1  16
BRANCH   6  21
ATOM     21  N   UNL     1       2.792   6.606  18.003  0.00  0.00    +0.000 NA
ATOM     22  O   UNL     1       2.817   7.092  19.139  0.00  0.00    +0.000 OA
ENDBRANCH   6  21
TORSDOF 6
ENDMDL
MODEL 4
REMARK VINA RESULT:      -5.9      0.606      1.082
REMARK  Name = 
REMARK  13 active torsions:
REMARK  status: ('A' for Active; 'I' for Inactive)
REMARK    1  A    between atoms: C_1  and  C_2
REMARK    2  A    between atoms: C_2  and  O_3
REMARK    3  A    between atoms: O_3  and  C_4
REMARK    4  A    between atoms: C_4  and  C_6
REMARK    5  A    between atoms: C_10  and  C_11
REMARK    6  A    between atoms: C_11  and  C_12
REMARK    7  A    between atoms: C_11  and  C_13
REMARK    8  A    between atoms: C_11  and  C_14
REMARK    9  A    between atoms: N_15  and  N_16
REMARK   10  A    between atoms: C_18  and  C_19
REMARK   11  A    between atoms: C_19  and  C_20
REMARK   12  A    between atoms: C_19  and  C_21
REMARK   13  A    between atoms: C_19  and  C_22
REMARK                            x       y       z     vdW  Elec       q    Type
REMARK                         _______ _______ _______ _____ _____    ______ ____
ROOT
ATOM      1  C   UNL     1       3.041   5.150  19.908  0.00  0.00    +0.000 C 
ATOM      2  C   UNL     1       3.002   6.464  19.181  0.00  0.00    +0.000 C 
ATOM      3  O   UNL     1       2.404   7.443  19.633  0.00  0.00    +0.000 OA
ATOM      4  C   UNL     1       3.771   6.593  17.896  0.00  0.00    +0.000 C 
ATOM      5  C   UNL     1       5.116   5.859  17.954  0.00  0.00    +0.000 C 
ATOM      6  N   UNL     1       5.043   4.479  18.525  0.00  0.00    +0.000 N 
ATOM      7  C   UNL     1       3.726   4.017  19.108  0.00  0.00    +0.000 C 
ENDROOT
BRANCH   5   8
ATOM      8  C   UNL     1       5.917   5.929  16.564  0.00  0.00    +0.000 C 
ATOM      9  C   UNL     1       6.246   4.510  16.046  0.00  0.00    +0.000 C 
ATOM     10  C   UNL     1       5.095   6.633  15.461  0.00  0.00    +0.000 C 
ATOM     11  C   UNL     1       7.251   6.688  16.655  0.00  0.00    +0.000 C 
ENDBRANCH   5   8
BRANCH   7  12
ATOM     12  C   UNL     1       2.923   3.062  18.106  0.00  0.00    +0.000 C 
ATOM     13  C   UNL     1       3.579   1.652  18.140  0.00  0.00    +0.000 C 
ATOM     14  C   UNL     1       1.448   2.846  18.500  0.00  0.00    +0.000 C 
ATOM     15  C   UNL     1       2.879   3.523  16.648  0.00  0.00    +0.000 C 
ENDBRANCH   7  12
BRANCH   1  16
ATOM     16  C   UNL     1       1.777   4.727  20.612  0.00  0.00    +0.000 C 
ATOM     17  O   UNL     1       0.664   5.021  20.194  0.00  0.00    +0.000 OA
BRANCH  16  18
ATOM     18  O   UNL     1       2.007   4.056  21.770  0.00  0.00    +0.000 OA
BRANCH  18  20
ATOM     19  C   UNL     1       2.721   1.701  21.768  0.00  0.00    +0.000 C 
ATOM     20  C   UNL     1       1.567   2.687  21.831  0.00  0.00    +0.000 C 
ENDBRANCH  18  20
ENDBRANCH  16  18
ENDBRANCH   1  16
BRANCH   6  21
ATOM     21  N   UNL     1       6.059   4.274  19.352  0.00  0.00    +0.000 NA
ATOM     22  O   UNL     1       6.479   5.339  19.819  0.00  0.00    +0.000 OA
ENDBRANCH   6  21
TORSDOF 6
ENDMDL
MODEL 5
REMARK VINA RESULT:      -5.9      1.901      5.518
REMARK  Name = 
REMARK  13 active torsions:
REMARK  status: ('A' for Active; 'I' for Inactive)
REMARK    1  A    between atoms: C_1  and  C_2
REMARK    2  A    between atoms: C_2  and  O_3
REMARK    3  A    between atoms: O_3  and  C_4
REMARK    4  A    between atoms: C_4  and  C_6
REMARK    5  A    between atoms: C_10  and  C_11
REMARK    6  A    between atoms: C_11  and  C_12
REMARK    7  A    between atoms: C_11  and  C_13
REMARK    8  A    between atoms: C_11  and  C_14
REMARK    9  A    between atoms: N_15  and  N_16
REMARK   10  A    between atoms: C_18  and  C_19
REMARK   11  A    between atoms: C_19  and  C_20
REMARK   12  A    between atoms: C_19  and  C_21
REMARK   13  A    between atoms: C_19  and  C_22
REMARK                            x       y       z     vdW  Elec       q    Type
REMARK                         _______ _______ _______ _____ _____    ______ ____
ROOT
ATOM      1  C   UNL     1       5.919   6.052  17.999  0.00  0.00    +0.000 C 
ATOM      2  C   UNL     1       6.026   5.258  19.270  0.00  0.00    +0.000 C 
ATOM      3  O   UNL     1       6.974   5.392  20.046  0.00  0.00    +0.000 OA
ATOM      4  C   UNL     1       4.904   4.322  19.623  0.00  0.00    +0.000 C 
ATOM      5  C   UNL     1       3.532   4.908  19.271  0.00  0.00    +0.000 C 
ATOM      6  N   UNL     1       3.453   5.523  17.910  0.00  0.00    +0.000 N 
ATOM      7  C   UNL     1       4.727   5.637  17.104  0.00  0.00    +0.000 C 
ENDROOT
BRANCH   5   8
ATOM      8  C   UNL     1       2.329   3.890  19.579  0.00  0.00    +0.000 C 
ATOM      9  C   UNL     1       2.874   2.513  20.026  0.00  0.00    +0.000 C 
ATOM     10  C   UNL     1       1.416   4.404  20.716  0.00  0.00    +0.000 C 
ATOM     11  C   UNL     1       1.410   3.633  18.374  0.00  0.00    +0.000 C 
ENDBRANCH   5   8
BRANCH   7  12
ATOM     12  C   UNL     1       4.843   4.494  15.991  0.00  0.00    +0.000 C 
ATOM     13  C   UNL     1       5.220   5.162  14.638  0.00  0.00    +0.000 C 
ATOM     14  C   UNL     1       5.955   3.462  16.271  0.00  0.00    +0.000 C 
ATOM     15  C   UNL     1       3.580   3.660  15.767  0.00  0.00    +0.000 C 
ENDBRANCH   7  12
BRANCH   1  16
ATOM     16  C   UNL     1       7.200   6.295  17.243  0.00  0.00    +0.000 C 
ATOM     17  O   UNL     1       7.915   5.381  16.853  0.00  0.00    +0.000 OA
BRANCH  16  18
ATOM     18  O   UNL     1       7.499   7.613  17.104  0.00  0.00    +0.000 OA
BRANCH  18  20
ATOM     19  C   UNL     1       8.394   9.732  17.979  0.00  0.00    +0.000 C 
ATOM     20  C   UNL     1       8.230   8.234  18.177  0.00  0.00    +0.000 C 
ENDBRANCH  18  20
ENDBRANCH  16  18
ENDBRANCH   1  16
BRANCH   6  21
ATOM     21  N   UNL     1       2.788   6.668  17.966  0.00  0.00    +0.000 NA
ATOM     22  O   UNL     1       2.849   7.167  19.095  0.00  0.00    +0.000 OA
ENDBRANCH   6  21
TORSDOF 6
ENDMDL
MODEL 6
REMARK VINA RESULT:      -5.7      1.589      2.609
REMARK  Name = 
REMARK  13 active torsions:
REMARK  status: ('A' for Active; 'I' for Inactive)
REMARK    1  A    between atoms: C_1  and  C_2
REMARK    2  A    between atoms: C_2  and  O_3
REMARK    3  A    between atoms: O_3  and  C_4
REMARK    4  A    between atoms: C_4  and  C_6
REMARK    5  A    between atoms: C_10  and  C_11
REMARK    6  A    between atoms: C_11  and  C_12
REMARK    7  A    between atoms: C_11  and  C_13
REMARK    8  A    between atoms: C_11  and  C_14
REMARK    9  A    between atoms: N_15  and  N_16
REMARK   10  A    between atoms: C_18  and  C_19
REMARK   11  A    between atoms: C_19  and  C_20
REMARK   12  A    between atoms: C_19  and  C_21
REMARK   13  A    between atoms: C_19  and  C_22
REMARK                            x       y       z     vdW  Elec       q    Type
REMARK                         _______ _______ _______ _____ _____    ______ ____
ROOT
ATOM      1  C   UNL     1       3.215   6.117  19.420  0.00  0.00    +0.000 C 
ATOM      2  C   UNL     1       3.442   6.989  18.219  0.00  0.00    +0.000 C 
ATOM      3  O   UNL     1       3.139   8.184  18.212  0.00  0.00    +0.000 OA
ATOM      4  C   UNL     1       4.119   6.389  17.019  0.00  0.00    +0.000 C 
ATOM      5  C   UNL     1       5.244   5.425  17.414  0.00  0.00    +0.000 C 
ATOM      6  N   UNL     1       4.880   4.460  18.497  0.00  0.00    +0.000 N 
ATOM      7  C   UNL     1       3.539   4.624  19.176  0.00  0.00    +0.000 C 
ENDROOT
BRANCH   5   8
ATOM      8  C   UNL     1       5.930   4.722  16.143  0.00  0.00    +0.000 C 
ATOM      9  C   UNL     1       5.569   5.472  14.840  0.00  0.00    +0.000 C 
ATOM     10  C   UNL     1       7.472   4.718  16.249  0.00  0.00    +0.000 C 
ATOM     11  C   UNL     1       5.510   3.257  15.942  0.00  0.00    +0.000 C 
ENDBRANCH   5   8
BRANCH   7  12
ATOM     12  C   UNL     1       2.452   3.585  18.628  0.00  0.00    +0.000 C 
ATOM     13  C   UNL     1       3.202   2.409  17.938  0.00  0.00    +0.000 C 
ATOM     14  C   UNL     1       1.593   2.940  19.735  0.00  0.00    +0.000 C 
ATOM     15  C   UNL     1       1.444   4.151  17.626  0.00  0.00    +0.000 C 
ENDBRANCH   7  12
BRANCH   1  16
ATOM     16  C   UNL     1       1.943   6.352  20.196  0.00  0.00    +0.000 C 
ATOM     17  O   UNL     1       1.400   5.469  20.847  0.00  0.00    +0.000 OA
BRANCH  16  18
ATOM     18  O   UNL     1       1.443   7.605  20.039  0.00  0.00    +0.000 OA
BRANCH  18  20
ATOM     19  C   UNL     1      -0.229   8.531  21.590  0.00  0.00    +0.000 C 
ATOM     20  C   UNL     1       1.241   8.382  21.233  0.00  0.00    +0.000 C 
ENDBRANCH  18  20
ENDBRANCH  16  18
ENDBRANCH   1  16
BRANCH   6  21
ATOM     21  N   UNL     1       5.875   4.356  19.367  0.00  0.00    +0.000 NA
ATOM     22  O   UNL     1       6.402   5.453  19.580  0.00  0.00    +0.000 OA
ENDBRANCH   6  21
TORSDOF 6
ENDMDL
MODEL 7
REMARK VINA RESULT:      -5.7      2.115      5.711
REMARK  Name = 
REMARK  13 active torsions:
REMARK  status: ('A' for Active; 'I' for Inactive)
REMARK    1  A    between atoms: C_1  and  C_2
REMARK    2  A    between atoms: C_2  and  O_3
REMARK    3  A    between atoms: O_3  and  C_4
REMARK    4  A    between atoms: C_4  and  C_6
REMARK    5  A    between atoms: C_10  and  C_11
REMARK    6  A    between atoms: C_11  and  C_12
REMARK    7  A    between atoms: C_11  and  C_13
REMARK    8  A    between atoms: C_11  and  C_14
REMARK    9  A    between atoms: N_15  and  N_16
REMARK   10  A    between atoms: C_18  and  C_19
REMARK   11  A    between atoms: C_19  and  C_20
REMARK   12  A    between atoms: C_19  and  C_21
REMARK   13  A    between atoms: C_19  and  C_22
REMARK                            x       y       z     vdW  Elec       q    Type
REMARK                         _______ _______ _______ _____ _____    ______ ____
ROOT
ATOM      1  C   UNL     1       6.220   6.345  18.264  0.00  0.00    +0.000 C 
ATOM      2  C   UNL     1       6.454   5.369  19.382  0.00  0.00    +0.000 C 
ATOM      3  O   UNL     1       7.399   5.488  20.165  0.00  0.00    +0.000 OA
ATOM      4  C   UNL     1       5.463   4.257  19.578  0.00  0.00    +0.000 C 
ATOM      5  C   UNL     1       4.021   4.721  19.338  0.00  0.00    +0.000 C 
ATOM      6  N   UNL     1       3.833   5.539  18.100  0.00  0.00    +0.000 N 
ATOM      7  C   UNL     1       5.064   5.941  17.318  0.00  0.00    +0.000 C 
ENDROOT
BRANCH   5   8
ATOM      8  C   UNL     1       2.958   3.525  19.476  0.00  0.00    +0.000 C 
ATOM      9  C   UNL     1       3.604   2.169  19.109  0.00  0.00    +0.000 C 
ATOM     10  C   UNL     1       2.424   3.394  20.921  0.00  0.00    +0.000 C 
ATOM     11  C   UNL     1       1.723   3.687  18.575  0.00  0.00    +0.000 C 
ENDBRANCH   5   8
BRANCH   7  12
ATOM     12  C   UNL     1       5.287   5.023  16.027  0.00  0.00    +0.000 C 
ATOM     13  C   UNL     1       4.066   4.069  15.886  0.00  0.00    +0.000 C 
ATOM     14  C   UNL     1       5.354   5.813  14.705  0.00  0.00    +0.000 C 
ATOM     15  C   UNL     1       6.554   4.165  16.039  0.00  0.00    +0.000 C 
ENDBRANCH   7  12
BRANCH   1  16
ATOM     16  C   UNL     1       7.443   6.866  17.552  0.00  0.00    +0.000 C 
ATOM     17  O   UNL     1       7.748   6.505  16.423  0.00  0.00    +0.000 OA
BRANCH  16  18
ATOM     18  O   UNL     1       8.187   7.710  18.314  0.00  0.00    +0.000 OA
BRANCH  18  20
ATOM     19  C   UNL     1       9.061   9.948  18.848  0.00  0.00    +0.000 C 
ATOM     20  C   UNL     1       8.182   9.100  17.943  0.00  0.00    +0.000 C 
ENDBRANCH  18  20
ENDBRANCH  16  18
ENDBRANCH   1  16
BRANCH   6  21
ATOM     21  N   UNL     1       3.038   6.569  18.352  0.00  0.00    +0.000 NA
ATOM     22  O   UNL     1       3.237   7.494  17.558  0.00  0.00    +0.000 OA
ENDBRANCH   6  21
TORSDOF 6
ENDMDL
MODEL 8
REMARK VINA RESULT:      -5.6      1.592      2.841
REMARK  Name = 
REMARK  13 active torsions:
REMARK  status: ('A' for Active; 'I' for Inactive)
REMARK    1  A    between atoms: C_1  and  C_2
REMARK    2  A    between atoms: C_2  and  O_3
REMARK    3  A    between atoms: O_3  and  C_4
REMARK    4  A    between atoms: C_4  and  C_6
REMARK    5  A    between atoms: C_10  and  C_11
REMARK    6  A    between atoms: C_11  and  C_12
REMARK    7  A    between atoms: C_11  and  C_13
REMARK    8  A    between atoms: C_11  and  C_14
REMARK    9  A    between atoms: N_15  and  N_16
REMARK   10  A    between atoms: C_18  and  C_19
REMARK   11  A    between atoms: C_19  and  C_20
REMARK   12  A    between atoms: C_19  and  C_21
REMARK   13  A    between atoms: C_19  and  C_22
REMARK                            x       y       z     vdW  Elec       q    Type
REMARK                         _______ _______ _______ _____ _____    ______ ____
ROOT
ATOM      1  C   UNL     1       3.209   6.019  19.475  0.00  0.00    +0.000 C 
ATOM      2  C   UNL     1       3.455   6.912  18.293  0.00  0.00    +0.000 C 
ATOM      3  O   UNL     1       3.173   8.112  18.311  0.00  0.00    +0.000 OA
ATOM      4  C   UNL     1       4.124   6.326  17.082  0.00  0.00    +0.000 C 
ATOM      5  C   UNL     1       5.231   5.334  17.459  0.00  0.00    +0.000 C 
ATOM      6  N   UNL     1       4.847   4.353  18.521  0.00  0.00    +0.000 N 
ATOM      7  C   UNL     1       3.507   4.526  19.200  0.00  0.00    +0.000 C 
ENDROOT
BRANCH   5   8
ATOM      8  C   UNL     1       5.908   4.647  16.175  0.00  0.00    +0.000 C 
ATOM      9  C   UNL     1       7.446   4.603  16.322  0.00  0.00    +0.000 C 
ATOM     10  C   UNL     1       5.431   3.189  15.984  0.00  0.00    +0.000 C 
ATOM     11  C   UNL     1       5.609   5.373  14.854  0.00  0.00    +0.000 C 
ENDBRANCH   5   8
BRANCH   7  12
ATOM     12  C   UNL     1       2.404   3.518  18.627  0.00  0.00    +0.000 C 
ATOM     13  C   UNL     1       1.492   4.299  17.638  0.00  0.00    +0.000 C 
ATOM     14  C   UNL     1       2.993   2.347  17.815  0.00  0.00    +0.000 C 
ATOM     15  C   UNL     1       1.504   2.860  19.674  0.00  0.00    +0.000 C 
ENDBRANCH   7  12
BRANCH   1  16
ATOM     16  C   UNL     1       1.939   6.259  20.252  0.00  0.00    +0.000 C 
ATOM     17  O   UNL     1       1.403   5.384  20.920  0.00  0.00    +0.000 OA
BRANCH  16  18
ATOM     18  O   UNL     1       1.432   7.508  20.079  0.00  0.00    +0.000 OA
BRANCH  18  20
ATOM     19  C   UNL     1      -0.220   8.554  21.573  0.00  0.00    +0.000 C 
ATOM     20  C   UNL     1       1.247   8.308  21.260  0.00  0.00    +0.000 C 
ENDBRANCH  18  20
ENDBRANCH  16  18
ENDBRANCH   1  16
BRANCH   6  21
ATOM     21  N   UNL     1       5.838   4.212  19.390  0.00  0.00    +0.000 NA
ATOM     22  O   UNL     1       6.390   5.294  19.620  0.00  0.00    +0.000 OA
ENDBRANCH   6  21
TORSDOF 6
ENDMDL
MODEL 9
REMARK VINA RESULT:      -5.6      1.842      5.584
REMARK  Name = 
REMARK  13 active torsions:
REMARK  status: ('A' for Active; 'I' for Inactive)
REMARK    1  A    between atoms: C_1  and  C_2
REMARK    2  A    between atoms: C_2  and  O_3
REMARK    3  A    between atoms: O_3  and  C_4
REMARK    4  A    between atoms: C_4  and  C_6
REMARK    5  A    between atoms: C_10  and  C_11
REMARK    6  A    between atoms: C_11  and  C_12
REMARK    7  A    between atoms: C_11  and  C_13
REMARK    8  A    between atoms: C_11  and  C_14
REMARK    9  A    between atoms: N_15  and  N_16
REMARK   10  A    between atoms: C_18  and  C_19
REMARK   11  A    between atoms: C_19  and  C_20
REMARK   12  A    between atoms: C_19  and  C_21
REMARK   13  A    between atoms: C_19  and  C_22
REMARK                            x       y       z     vdW  Elec       q    Type
REMARK                         _______ _______ _______ _____ _____    ______ ____
ROOT
ATOM      1  C   UNL     1       6.095   6.254  18.123  0.00  0.00    +0.000 C 
ATOM      2  C   UNL     1       6.258   5.309  19.278  0.00  0.00    +0.000 C 
ATOM      3  O   UNL     1       7.165   5.437  20.104  0.00  0.00    +0.000 OA
ATOM      4  C   UNL     1       5.241   4.218  19.457  0.00  0.00    +0.000 C 
ATOM      5  C   UNL     1       3.820   4.695  19.130  0.00  0.00    +0.000 C 
ATOM      6  N   UNL     1       3.708   5.479  17.862  0.00  0.00    +0.000 N 
ATOM      7  C   UNL     1       4.982   5.840  17.132  0.00  0.00    +0.000 C 
ENDROOT
BRANCH   5   8
ATOM      8  C   UNL     1       2.732   3.519  19.249  0.00  0.00    +0.000 C 
ATOM      9  C   UNL     1       1.644   3.666  18.161  0.00  0.00    +0.000 C 
ATOM     10  C   UNL     1       3.370   2.124  19.064  0.00  0.00    +0.000 C 
ATOM     11  C   UNL     1       2.004   3.483  20.602  0.00  0.00    +0.000 C 
ENDBRANCH   5   8
BRANCH   7  12
ATOM     12  C   UNL     1       5.255   4.880  15.881  0.00  0.00    +0.000 C 
ATOM     13  C   UNL     1       5.386   5.762  14.605  0.00  0.00    +0.000 C 
ATOM     14  C   UNL     1       6.575   4.089  15.979  0.00  0.00    +0.000 C 
ATOM     15  C   UNL     1       4.182   3.824  15.613  0.00  0.00    +0.000 C 
ENDBRANCH   7  12
BRANCH   1  16
ATOM     16  C   UNL     1       7.361   6.736  17.459  0.00  0.00    +0.000 C 
ATOM     17  O   UNL     1       7.720   6.333  16.361  0.00  0.00    +0.000 OA
BRANCH  16  18
ATOM     18  O   UNL     1       8.075   7.599  18.229  0.00  0.00    +0.000 OA
BRANCH  18  20
ATOM     19  C   UNL     1       8.941   9.848  18.730  0.00  0.00    +0.000 C 
ATOM     20  C   UNL     1       8.041   8.988  17.857  0.00  0.00    +0.000 C 
ENDBRANCH  18  20
ENDBRANCH  16  18
ENDBRANCH   1  16
BRANCH   6  21
ATOM     21  N   UNL     1       2.917   6.527  18.044  0.00  0.00    +0.000 NA
ATOM     22  O   UNL     1       2.848   6.834  19.239  0.00  0.00    +0.000 OA
ENDBRANCH   6  21
TORSDOF 6
ENDMDL
