MODEL 1
REMARK VINA RESULT:      -7.1      0.000      0.000
REMARK  Name = 
REMARK  1 active torsions:
REMARK  status: ('A' for Active; 'I' for Inactive)
REMARK    1  A    between atoms: C_2  and  C_3
REMARK                            x       y       z     vdW  Elec       q    Type
REMARK                         _______ _______ _______ _____ _____    ______ ____
ROOT
ATOM      1  O   UNL     1      -0.583   9.703  19.592  0.00  0.00    +0.000 OA
ATOM      2  C   UNL     1      -1.169  10.769  19.395  0.00  0.00    +0.000 C 
ATOM      3  N   UNL     1      -1.140  11.803  20.336  0.00  0.00    +0.000 N 
ATOM      4  C   UNL     1      -1.463  13.198  20.078  0.00  0.00    +0.000 C 
ATOM      5  C   UNL     1      -1.170  14.081  21.297  0.00  0.00    +0.000 C 
ATOM      6  C   UNL     1      -2.082  13.678  22.493  0.00  0.00    +0.000 C 
ATOM      7  C   UNL     1      -2.073  12.113  22.608  0.00  0.00    +0.000 C 
ATOM      8  C   UNL     1      -0.965  11.453  21.750  0.00  0.00    +0.000 C 
ATOM      9  C   UNL     1      -1.514  14.312  23.799  0.00  0.00    +0.000 C 
ATOM     10  O   UNL     1      -2.443  14.495  24.873  0.00  0.00    +0.000 OA
ATOM     11  C   UNL     1      -3.315  15.620  24.701  0.00  0.00    +0.000 C 
ATOM     12  C   UNL     1      -4.659  15.236  24.047  0.00  0.00    +0.000 C 
ATOM     13  N   UNL     1      -4.493  14.093  23.156  0.00  0.00    +0.000 N 
ATOM     14  C   UNL     1      -5.644  13.525  22.644  0.00  0.00    +0.000 A 
ATOM     15  N   UNL     1      -6.846  14.082  22.846  0.00  0.00    +0.000 NA
ATOM     16  C   UNL     1      -7.910  13.512  22.248  0.00  0.00    +0.000 A 
ATOM     17  C   UNL     1      -7.834  12.382  21.467  0.00  0.00    +0.000 A 
ATOM     18  C   UNL     1      -6.577  11.864  21.332  0.00  0.00    +0.000 A 
ATOM     19  N   UNL     1      -5.497  12.410  21.896  0.00  0.00    +0.000 NA
ATOM     20  C   UNL     1      -3.475  14.269  22.130  0.00  0.00    +0.000 C 
ENDROOT
BRANCH   2  21
ATOM     21  C   UNL     1      -2.071  10.832  18.209  0.00  0.00    +0.000 A 
ATOM     22  C   UNL     1      -1.697  10.081  17.086  0.00  0.00    +0.000 A 
ATOM     23  C   UNL     1      -2.568   9.951  16.004  0.00  0.00    +0.000 A 
ATOM     24  C   UNL     1      -3.791  10.591  16.071  0.00  0.00    +0.000 A 
ATOM     25  N   UNL     1      -4.159  11.387  17.098  0.00  0.00    +0.000 NA
ATOM     26  C   UNL     1      -3.279  11.505  18.127  0.00  0.00    +0.000 A 
ENDBRANCH   2  21
TORSDOF 1
ENDMDL
MODEL 2
REMARK VINA RESULT:      -7.0      1.636      6.249
REMARK  Name = 
REMARK  1 active torsions:
REMARK  status: ('A' for Active; 'I' for Inactive)
REMARK    1  A    between atoms: C_2  and  C_3
REMARK                            x       y       z     vdW  Elec       q    Type
REMARK                         _______ _______ _______ _____ _____    ______ ____
ROOT
ATOM      1  O   UNL     1      -4.021  15.228  22.938  0.00  0.00    +0.000 OA
ATOM      2  C   UNL     1      -3.919  14.014  22.751  0.00  0.00    +0.000 C 
ATOM      3  N   UNL     1      -2.686  13.421  22.462  0.00  0.00    +0.000 N 
ATOM      4  C   UNL     1      -2.374  12.006  22.585  0.00  0.00    +0.000 C 
ATOM      5  C   UNL     1      -0.884  11.733  22.339  0.00  0.00    +0.000 C 
ATOM      6  C   UNL     1      -0.498  12.097  20.875  0.00  0.00    +0.000 C 
ATOM      7  C   UNL     1      -1.131  13.493  20.538  0.00  0.00    +0.000 C 
ATOM      8  C   UNL     1      -1.664  14.232  21.790  0.00  0.00    +0.000 C 
ATOM      9  C   UNL     1       1.054  12.174  20.765  0.00  0.00    +0.000 C 
ATOM     10  O   UNL     1       1.608  11.986  19.459  0.00  0.00    +0.000 OA
ATOM     11  C   UNL     1       1.642  10.617  19.033  0.00  0.00    +0.000 C 
ATOM     12  C   UNL     1       0.404  10.223  18.200  0.00  0.00    +0.000 C 
ATOM     13  N   UNL     1      -0.761  11.003  18.604  0.00  0.00    +0.000 N 
ATOM     14  C   UNL     1      -1.894  10.887  17.822  0.00  0.00    +0.000 A 
ATOM     15  N   UNL     1      -1.963   9.998  16.822  0.00  0.00    +0.000 NA
ATOM     16  C   UNL     1      -3.130   9.892  16.157  0.00  0.00    +0.000 A 
ATOM     17  C   UNL     1      -4.238  10.659  16.430  0.00  0.00    +0.000 A 
ATOM     18  C   UNL     1      -4.077  11.557  17.447  0.00  0.00    +0.000 A 
ATOM     19  N   UNL     1      -2.941  11.680  18.139  0.00  0.00    +0.000 NA
ATOM     20  C   UNL     1      -1.075  10.929  20.024  0.00  0.00    +0.000 C 
ENDROOT
BRANCH   2  21
ATOM     21  C   UNL     1      -5.189  13.241  22.648  0.00  0.00    +0.000 A 
ATOM     22  C   UNL     1      -5.890  13.007  23.840  0.00  0.00    +0.000 A 
ATOM     23  C   UNL     1      -7.165  12.442  23.808  0.00  0.00    +0.000 A 
ATOM     24  C   UNL     1      -7.702  12.112  22.578  0.00  0.00    +0.000 A 
ATOM     25  N   UNL     1      -7.032  12.247  21.413  0.00  0.00    +0.000 NA
ATOM     26  C   UNL     1      -5.785  12.784  21.482  0.00  0.00    +0.000 A 
ENDBRANCH   2  21
TORSDOF 1
ENDMDL
MODEL 3
REMARK VINA RESULT:      -6.8      2.382      5.417
REMARK  Name = 
REMARK  1 active torsions:
REMARK  status: ('A' for Active; 'I' for Inactive)
REMARK    1  A    between atoms: C_2  and  C_3
REMARK                            x       y       z     vdW  Elec       q    Type
REMARK                         _______ _______ _______ _____ _____    ______ ____
ROOT
ATOM      1  O   UNL     1      -7.916  13.844  19.679  0.00  0.00    +0.000 OA
ATOM      2  C   UNL     1      -7.198  13.144  20.395  0.00  0.00    +0.000 C 
ATOM      3  N   UNL     1      -6.170  13.698  21.164  0.00  0.00    +0.000 N 
ATOM      4  C   UNL     1      -5.515  13.061  22.295  0.00  0.00    +0.000 C 
ATOM      5  C   UNL     1      -4.546  14.019  23.000  0.00  0.00    +0.000 C 
ATOM      6  C   UNL     1      -3.384  14.420  22.045  0.00  0.00    +0.000 C 
ATOM      7  C   UNL     1      -4.004  14.781  20.649  0.00  0.00    +0.000 C 
ATOM      8  C   UNL     1      -5.544  14.940  20.696  0.00  0.00    +0.000 C 
ATOM      9  C   UNL     1      -2.647  15.659  22.637  0.00  0.00    +0.000 C 
ATOM     10  O   UNL     1      -1.295  15.857  22.211  0.00  0.00    +0.000 OA
ATOM     11  C   UNL     1      -0.352  14.986  22.849  0.00  0.00    +0.000 C 
ATOM     12  C   UNL     1      -0.071  13.710  22.028  0.00  0.00    +0.000 C 
ATOM     13  N   UNL     1      -1.240  13.334  21.240  0.00  0.00    +0.000 N 
ATOM     14  C   UNL     1      -1.074  12.319  20.318  0.00  0.00    +0.000 A 
ATOM     15  N   UNL     1       0.067  11.620  20.247  0.00  0.00    +0.000 NA
ATOM     16  C   UNL     1       0.122  10.595  19.375  0.00  0.00    +0.000 A 
ATOM     17  C   UNL     1      -0.914  10.244  18.541  0.00  0.00    +0.000 A 
ATOM     18  C   UNL     1      -2.032  11.021  18.659  0.00  0.00    +0.000 A 
ATOM     19  N   UNL     1      -2.129  12.035  19.523  0.00  0.00    +0.000 NA
ATOM     20  C   UNL     1      -2.462  13.167  22.014  0.00  0.00    +0.000 C 
ENDROOT
BRANCH   2  21
ATOM     21  C   UNL     1      -7.340  11.666  20.250  0.00  0.00    +0.000 A 
ATOM     22  C   UNL     1      -6.791  11.084  19.099  0.00  0.00    +0.000 A 
ATOM     23  C   UNL     1      -6.732   9.696  18.972  0.00  0.00    +0.000 A 
ATOM     24  C   UNL     1      -7.239   8.924  20.000  0.00  0.00    +0.000 A 
ATOM     25  N   UNL     1      -7.847   9.442  21.089  0.00  0.00    +0.000 NA
ATOM     26  C   UNL     1      -7.903  10.798  21.173  0.00  0.00    +0.000 A 
ENDBRANCH   2  21
TORSDOF 1
ENDMDL
MODEL 4
REMARK VINA RESULT:      -6.7      1.764      6.230
REMARK  Name = 
REMARK  1 active torsions:
REMARK  status: ('A' for Active; 'I' for Inactive)
REMARK    1  A    between atoms: C_2  and  C_3
REMARK                            x       y       z     vdW  Elec       q    Type
REMARK                         _______ _______ _______ _____ _____    ______ ____
ROOT
ATOM      1  O   UNL     1      -2.477  15.134  24.059  0.00  0.00    +0.000 OA
ATOM      2  C   UNL     1      -2.702  13.961  23.757  0.00  0.00    +0.000 C 
ATOM      3  N   UNL     1      -1.734  13.169  23.132  0.00  0.00    +0.000 N 
ATOM      4  C   UNL     1      -1.737  11.716  23.062  0.00  0.00    +0.000 C 
ATOM      5  C   UNL     1      -0.442  11.177  22.443  0.00  0.00    +0.000 C 
ATOM      6  C   UNL     1      -0.311  11.644  20.963  0.00  0.00    +0.000 C 
ATOM      7  C   UNL     1      -0.661  13.172  20.902  0.00  0.00    +0.000 C 
ATOM      8  C   UNL     1      -0.723  13.833  22.301  0.00  0.00    +0.000 C 
ATOM      9  C   UNL     1       1.155  11.413  20.487  0.00  0.00    +0.000 C 
ATOM     10  O   UNL     1       1.353  11.288  19.075  0.00  0.00    +0.000 OA
ATOM     11  C   UNL     1       0.976  10.011  18.546  0.00  0.00    +0.000 C 
ATOM     12  C   UNL     1      -0.471   9.993  18.008  0.00  0.00    +0.000 C 
ATOM     13  N   UNL     1      -1.307  10.936  18.742  0.00  0.00    +0.000 N 
ATOM     14  C   UNL     1      -2.578  11.161  18.250  0.00  0.00    +0.000 A 
ATOM     15  N   UNL     1      -3.068  10.445  17.228  0.00  0.00    +0.000 NA
ATOM     16  C   UNL     1      -4.343  10.671  16.858  0.00  0.00    +0.000 A 
ATOM     17  C   UNL     1      -5.157  11.608  17.452  0.00  0.00    +0.000 A 
ATOM     18  C   UNL     1      -4.575  12.310  18.469  0.00  0.00    +0.000 A 
ATOM     19  N   UNL     1      -3.319  12.104  18.874  0.00  0.00    +0.000 NA
ATOM     20  C   UNL     1      -1.313  10.742  20.185  0.00  0.00    +0.000 C 
ENDROOT
BRANCH   2  21
ATOM     21  C   UNL     1      -4.108  13.486  23.902  0.00  0.00    +0.000 A 
ATOM     22  C   UNL     1      -5.078  14.119  23.112  0.00  0.00    +0.000 A 
ATOM     23  C   UNL     1      -6.380  13.622  23.062  0.00  0.00    +0.000 A 
ATOM     24  C   UNL     1      -6.682  12.507  23.820  0.00  0.00    +0.000 A 
ATOM     25  N   UNL     1      -5.802  11.914  24.655  0.00  0.00    +0.000 NA
ATOM     26  C   UNL     1      -4.547  12.434  24.692  0.00  0.00    +0.000 A 
ENDBRANCH   2  21
TORSDOF 1
ENDMDL
MODEL 5
REMARK VINA RESULT:      -6.7      2.379      3.882
REMARK  Name = 
REMARK  1 active torsions:
REMARK  status: ('A' for Active; 'I' for Inactive)
REMARK    1  A    between atoms: C_2  and  C_3
REMARK                            x       y       z     vdW  Elec       q    Type
REMARK                         _______ _______ _______ _____ _____    ______ ____
ROOT
ATOM      1  O   UNL     1      -0.643  10.698  23.420  0.00  0.00    +0.000 OA
ATOM      2  C   UNL     1      -0.788  11.616  22.610  0.00  0.00    +0.000 C 
ATOM      3  N   UNL     1      -1.731  12.628  22.815  0.00  0.00    +0.000 N 
ATOM      4  C   UNL     1      -1.747  13.923  22.152  0.00  0.00    +0.000 C 
ATOM      5  C   UNL     1      -2.828  14.842  22.735  0.00  0.00    +0.000 C 
ATOM      6  C   UNL     1      -4.244  14.249  22.476  0.00  0.00    +0.000 C 
ATOM      7  C   UNL     1      -4.205  12.722  22.833  0.00  0.00    +0.000 C 
ATOM      8  C   UNL     1      -2.926  12.316  23.607  0.00  0.00    +0.000 C 
ATOM      9  C   UNL     1      -5.274  14.983  23.387  0.00  0.00    +0.000 C 
ATOM     10  O   UNL     1      -6.637  14.959  22.952  0.00  0.00    +0.000 OA
ATOM     11  C   UNL     1      -6.923  15.874  21.885  0.00  0.00    +0.000 C 
ATOM     12  C   UNL     1      -6.816  15.215  20.493  0.00  0.00    +0.000 C 
ATOM     13  N   UNL     1      -5.833  14.138  20.505  0.00  0.00    +0.000 N 
ATOM     14  C   UNL     1      -5.764  13.341  19.378  0.00  0.00    +0.000 A 
ATOM     15  N   UNL     1      -6.470  13.628  18.276  0.00  0.00    +0.000 NA
ATOM     16  C   UNL     1      -6.288  12.847  17.193  0.00  0.00    +0.000 A 
ATOM     17  C   UNL     1      -5.442  11.763  17.166  0.00  0.00    +0.000 A 
ATOM     18  C   UNL     1      -4.779  11.525  18.337  0.00  0.00    +0.000 A 
ATOM     19  N   UNL     1      -4.921  12.286  19.425  0.00  0.00    +0.000 NA
ATOM     20  C   UNL     1      -4.511  14.531  20.969  0.00  0.00    +0.000 C 
ENDROOT
BRANCH   2  21
ATOM     21  C   UNL     1      -0.061  11.490  21.315  0.00  0.00    +0.000 A 
ATOM     22  C   UNL     1      -0.550  10.547  20.400  0.00  0.00    +0.000 A 
ATOM     23  C   UNL     1      -0.035  10.488  19.105  0.00  0.00    +0.000 A 
ATOM     24  C   UNL     1       0.972  11.371  18.763  0.00  0.00    +0.000 A 
ATOM     25  N   UNL     1       1.526  12.242  19.635  0.00  0.00    +0.000 NA
ATOM     26  C   UNL     1       1.011  12.260  20.892  0.00  0.00    +0.000 A 
ENDBRANCH   2  21
TORSDOF 1
ENDMDL
MODEL 6
REMARK VINA RESULT:      -6.6      2.506      5.599
REMARK  Name = 
REMARK  1 active torsions:
REMARK  status: ('A' for Active; 'I' for Inactive)
REMARK    1  A    between atoms: C_2  and  C_3
REMARK                            x       y       z     vdW  Elec       q    Type
REMARK                         _______ _______ _______ _____ _____    ______ ____
ROOT
ATOM      1  O   UNL     1      -0.284  14.592  23.239  0.00  0.00    +0.000 OA
ATOM      2  C   UNL     1      -1.017  14.948  22.315  0.00  0.00    +0.000 C 
ATOM      3  N   UNL     1      -2.382  14.642  22.305  0.00  0.00    +0.000 N 
ATOM      4  C   UNL     1      -3.395  15.297  21.494  0.00  0.00    +0.000 C 
ATOM      5  C   UNL     1      -4.806  14.816  21.855  0.00  0.00    +0.000 C 
ATOM      6  C   UNL     1      -4.964  13.301  21.536  0.00  0.00    +0.000 C 
ATOM      7  C   UNL     1      -3.693  12.555  22.075  0.00  0.00    +0.000 C 
ATOM      8  C   UNL     1      -2.829  13.435  23.011  0.00  0.00    +0.000 C 
ATOM      9  C   UNL     1      -6.241  12.763  22.249  0.00  0.00    +0.000 C 
ATOM     10  O   UNL     1      -6.831  11.584  21.692  0.00  0.00    +0.000 OA
ATOM     11  C   UNL     1      -7.593  11.824  20.501  0.00  0.00    +0.000 C 
ATOM     12  C   UNL     1      -6.766  11.614  19.214  0.00  0.00    +0.000 C 
ATOM     13  N   UNL     1      -5.359  11.918  19.449  0.00  0.00    +0.000 N 
ATOM     14  C   UNL     1      -4.472  11.599  18.438  0.00  0.00    +0.000 A 
ATOM     15  N   UNL     1      -4.901  11.160  17.247  0.00  0.00    +0.000 NA
ATOM     16  C   UNL     1      -3.979  10.947  16.288  0.00  0.00    +0.000 A 
ATOM     17  C   UNL     1      -2.628  11.129  16.472  0.00  0.00    +0.000 A 
ATOM     18  C   UNL     1      -2.273  11.555  17.720  0.00  0.00    +0.000 A 
ATOM     19  N   UNL     1      -3.159  11.792  18.691  0.00  0.00    +0.000 NA
ATOM     20  C   UNL     1      -5.109  13.247  19.987  0.00  0.00    +0.000 C 
ENDROOT
BRANCH   2  21
ATOM     21  C   UNL     1      -0.353  15.541  21.119  0.00  0.00    +0.000 A 
ATOM     22  C   UNL     1      -0.125  14.687  20.030  0.00  0.00    +0.000 A 
ATOM     23  C   UNL     1       0.334  15.201  18.817  0.00  0.00    +0.000 A 
ATOM     24  C   UNL     1       0.566  16.560  18.730  0.00  0.00    +0.000 A 
ATOM     25  N   UNL     1       0.435  17.406  19.775  0.00  0.00    +0.000 NA
ATOM     26  C   UNL     1       0.003  16.869  20.946  0.00  0.00    +0.000 A 
ENDBRANCH   2  21
TORSDOF 1
ENDMDL
MODEL 7
REMARK VINA RESULT:      -6.6      1.976      6.126
REMARK  Name = 
REMARK  1 active torsions:
REMARK  status: ('A' for Active; 'I' for Inactive)
REMARK    1  A    between atoms: C_2  and  C_3
REMARK                            x       y       z     vdW  Elec       q    Type
REMARK                         _______ _______ _______ _____ _____    ______ ____
ROOT
ATOM      1  O   UNL     1      -5.399  15.983  22.468  0.00  0.00    +0.000 OA
ATOM      2  C   UNL     1      -4.885  14.875  22.632  0.00  0.00    +0.000 C 
ATOM      3  N   UNL     1      -3.497  14.705  22.625  0.00  0.00    +0.000 N 
ATOM      4  C   UNL     1      -2.776  13.561  23.160  0.00  0.00    +0.000 C 
ATOM      5  C   UNL     1      -1.259  13.782  23.127  0.00  0.00    +0.000 C 
ATOM      6  C   UNL     1      -0.759  13.914  21.659  0.00  0.00    +0.000 C 
ATOM      7  C   UNL     1      -1.733  14.880  20.897  0.00  0.00    +0.000 C 
ATOM      8  C   UNL     1      -2.685  15.648  21.847  0.00  0.00    +0.000 C 
ATOM      9  C   UNL     1       0.682  14.506  21.665  0.00  0.00    +0.000 C 
ATOM     10  O   UNL     1       1.488  14.232  20.514  0.00  0.00    +0.000 OA
ATOM     11  C   UNL     1       2.029  12.905  20.487  0.00  0.00    +0.000 C 
ATOM     12  C   UNL     1       1.148  11.920  19.691  0.00  0.00    +0.000 C 
ATOM     13  N   UNL     1      -0.257  12.308  19.763  0.00  0.00    +0.000 N 
ATOM     14  C   UNL     1      -1.138  11.624  18.948  0.00  0.00    +0.000 A 
ATOM     15  N   UNL     1      -0.745  10.564  18.229  0.00  0.00    +0.000 NA
ATOM     16  C   UNL     1      -1.681   9.903  17.521  0.00  0.00    +0.000 A 
ATOM     17  C   UNL     1      -3.006  10.271  17.476  0.00  0.00    +0.000 A 
ATOM     18  C   UNL     1      -3.319  11.375  18.217  0.00  0.00    +0.000 A 
ATOM     19  N   UNL     1      -2.422  12.046  18.944  0.00  0.00    +0.000 NA
ATOM     20  C   UNL     1      -0.775  12.455  21.115  0.00  0.00    +0.000 C 
ENDROOT
BRANCH   2  21
ATOM     21  C   UNL     1      -5.804  13.701  22.637  0.00  0.00    +0.000 A 
ATOM     22  C   UNL     1      -6.609  13.528  23.772  0.00  0.00    +0.000 A 
ATOM     23  C   UNL     1      -7.611  12.558  23.783  0.00  0.00    +0.000 A 
ATOM     24  C   UNL     1      -7.773  11.774  22.657  0.00  0.00    +0.000 A 
ATOM     25  N   UNL     1      -6.971  11.853  21.573  0.00  0.00    +0.000 NA
ATOM     26  C   UNL     1      -5.993  12.797  21.603  0.00  0.00    +0.000 A 
ENDBRANCH   2  21
TORSDOF 1
ENDMDL
MODEL 8
REMARK VINA RESULT:      -6.6      9.311     11.590
REMARK  Name = 
REMARK  1 active torsions:
REMARK  status: ('A' for Active; 'I' for Inactive)
REMARK    1  A    between atoms: C_2  and  C_3
REMARK                            x       y       z     vdW  Elec       q    Type
REMARK                         _______ _______ _______ _____ _____    ______ ____
ROOT
ATOM      1  O   UNL     1      10.377  15.973  17.675  0.00  0.00    +0.000 OA
ATOM      2  C   UNL     1       9.578  15.077  17.949  0.00  0.00    +0.000 C 
ATOM      3  N   UNL     1       8.199  15.312  17.983  0.00  0.00    +0.000 N 
ATOM      4  C   UNL     1       7.161  14.296  17.926  0.00  0.00    +0.000 C 
ATOM      5  C   UNL     1       5.764  14.922  17.825  0.00  0.00    +0.000 C 
ATOM      6  C   UNL     1       5.441  15.745  19.107  0.00  0.00    +0.000 C 
ATOM      7  C   UNL     1       6.696  16.622  19.451  0.00  0.00    +0.000 C 
ATOM      8  C   UNL     1       7.733  16.667  18.302  0.00  0.00    +0.000 C 
ATOM      9  C   UNL     1       4.212  16.660  18.825  0.00  0.00    +0.000 C 
ATOM     10  O   UNL     1       3.463  17.087  19.968  0.00  0.00    +0.000 OA
ATOM     11  C   UNL     1       2.595  16.080  20.503  0.00  0.00    +0.000 C 
ATOM     12  C   UNL     1       3.249  15.279  21.649  0.00  0.00    +0.000 C 
ATOM     13  N   UNL     1       4.695  15.206  21.468  0.00  0.00    +0.000 N 
ATOM     14  C   UNL     1       5.430  14.678  22.512  0.00  0.00    +0.000 A 
ATOM     15  N   UNL     1       4.833  14.132  23.580  0.00  0.00    +0.000 NA
ATOM     16  C   UNL     1       5.619  13.568  24.518  0.00  0.00    +0.000 A 
ATOM     17  C   UNL     1       6.992  13.544  24.452  0.00  0.00    +0.000 A 
ATOM     18  C   UNL     1       7.523  14.142  23.343  0.00  0.00    +0.000 A 
ATOM     19  N   UNL     1       6.776  14.697  22.385  0.00  0.00    +0.000 NA
ATOM     20  C   UNL     1       5.118  14.668  20.184  0.00  0.00    +0.000 C 
ENDROOT
BRANCH   2  21
ATOM     21  C   UNL     1      10.151  13.789  18.435  0.00  0.00    +0.000 A 
ATOM     22  C   UNL     1      10.525  12.852  17.462  0.00  0.00    +0.000 A 
ATOM     23  C   UNL     1      11.222  11.699  17.825  0.00  0.00    +0.000 A 
ATOM     24  C   UNL     1      11.516  11.509  19.162  0.00  0.00    +0.000 A 
ATOM     25  N   UNL     1      11.107  12.345  20.140  0.00  0.00    +0.000 NA
ATOM     26  C   UNL     1      10.414  13.449  19.753  0.00  0.00    +0.000 A 
ENDBRANCH   2  21
TORSDOF 1
ENDMDL
MODEL 9
REMARK VINA RESULT:      -6.4      2.176      3.165
REMARK  Name = 
REMARK  1 active torsions:
REMARK  status: ('A' for Active; 'I' for Inactive)
REMARK    1  A    between atoms: C_2  and  C_3
REMARK                            x       y       z     vdW  Elec       q    Type
REMARK                         _______ _______ _______ _____ _____    ______ ____
ROOT
ATOM      1  O   UNL     1      -0.279   9.728  17.903  0.00  0.00    +0.000 OA
ATOM      2  C   UNL     1      -0.780  10.853  17.953  0.00  0.00    +0.000 C 
ATOM      3  N   UNL     1      -0.114  11.922  18.561  0.00  0.00    +0.000 N 
ATOM      4  C   UNL     1      -0.413  13.332  18.367  0.00  0.00    +0.000 C 
ATOM      5  C   UNL     1       0.618  14.230  19.062  0.00  0.00    +0.000 C 
ATOM      6  C   UNL     1       0.568  14.023  20.605  0.00  0.00    +0.000 C 
ATOM      7  C   UNL     1       0.518  12.480  20.888  0.00  0.00    +0.000 C 
ATOM      8  C   UNL     1       0.840  11.627  19.636  0.00  0.00    +0.000 C 
ATOM      9  C   UNL     1       1.850  14.641  21.240  0.00  0.00    +0.000 C 
ATOM     10  O   UNL     1       1.761  15.009  22.620  0.00  0.00    +0.000 OA
ATOM     11  C   UNL     1       1.052  16.234  22.850  0.00  0.00    +0.000 C 
ATOM     12  C   UNL     1      -0.443  16.006  23.160  0.00  0.00    +0.000 C 
ATOM     13  N   UNL     1      -0.932  14.805  22.492  0.00  0.00    +0.000 N 
ATOM     14  C   UNL     1      -2.202  14.376  22.826  0.00  0.00    +0.000 A 
ATOM     15  N   UNL     1      -2.999  15.105  23.620  0.00  0.00    +0.000 NA
ATOM     16  C   UNL     1      -4.251  14.658  23.834  0.00  0.00    +0.000 A 
ATOM     17  C   UNL     1      -4.745  13.488  23.306  0.00  0.00    +0.000 A 
ATOM     18  C   UNL     1      -3.863  12.793  22.528  0.00  0.00    +0.000 A 
ATOM     19  N   UNL     1      -2.620  13.213  22.280  0.00  0.00    +0.000 NA
ATOM     20  C   UNL     1      -0.715  14.782  21.053  0.00  0.00    +0.000 C 
ENDROOT
BRANCH   2  21
ATOM     21  C   UNL     1      -2.201  10.977  17.522  0.00  0.00    +0.000 A 
ATOM     22  C   UNL     1      -3.136  11.328  18.506  0.00  0.00    +0.000 A 
ATOM     23  C   UNL     1      -4.452  11.630  18.152  0.00  0.00    +0.000 A 
ATOM     24  C   UNL     1      -4.801  11.557  16.817  0.00  0.00    +0.000 A 
ATOM     25  N   UNL     1      -3.954  11.148  15.847  0.00  0.00    +0.000 NA
ATOM     26  C   UNL     1      -2.686  10.845  16.230  0.00  0.00    +0.000 A 
ENDBRANCH   2  21
TORSDOF 1
ENDMDL
