MODEL 1
REMARK VINA RESULT:      -8.3      0.000      0.000
REMARK  Name = 
REMARK  6 active torsions:
REMARK  status: ('A' for Active; 'I' for Inactive)
REMARK    1  A    between atoms: C_1  and  O_2
REMARK    2  A    between atoms: O_2  and  C_3
REMARK    3  A    between atoms: C_5  and  N_6
REMARK    4  A    between atoms: C_14  and  N_15
REMARK    5  A    between atoms: C_22  and  N_23
REMARK    6  A    between atoms: N_23  and  C_24
REMARK                            x       y       z     vdW  Elec       q    Type
REMARK                         _______ _______ _______ _____ _____    ______ ____
ROOT
ATOM      1  N   UNL     1       1.190   8.211  20.166  0.00  0.00    +0.000 N 
ATOM      2  C   UNL     1       0.655   9.508  20.251  0.00  0.00    +0.000 A 
ATOM      3  N   UNL     1      -0.277   9.596  21.214  0.00  0.00    +0.000 NA
ATOM      4  C   UNL     1      -0.851  10.796  21.404  0.00  0.00    +0.000 A 
ATOM      5  C   UNL     1      -0.545  11.924  20.670  0.00  0.00    +0.000 A 
ATOM      6  C   UNL     1      -1.173  13.145  20.936  0.00  0.00    +0.000 A 
ATOM      7  C   UNL     1      -0.825  14.269  20.204  0.00  0.00    +0.000 A 
ATOM      8  C   UNL     1       0.122  14.218  19.172  0.00  0.00    +0.000 A 
ATOM      9  C   UNL     1       0.716  12.961  18.918  0.00  0.00    +0.000 A 
ATOM     10  C   UNL     1       0.413  11.783  19.668  0.00  0.00    +0.000 A 
ATOM     11  N   UNL     1       1.009  10.563  19.474  0.00  0.00    +0.000 NA
ATOM     12  H   UNL     1       0.667   7.662  20.823  0.00  0.00    +0.000 HD
ENDROOT
BRANCH   1  18
ATOM     13  C   UNL     1       2.686   6.268  19.664  0.00  0.00    +0.000 A 
ATOM     14  C   UNL     1       3.686   5.709  18.811  0.00  0.00    +0.000 A 
ATOM     15  C   UNL     1       4.219   6.364  17.696  0.00  0.00    +0.000 A 
ATOM     16  C   UNL     1       3.679   7.625  17.456  0.00  0.00    +0.000 A 
ATOM     17  C   UNL     1       2.688   8.197  18.276  0.00  0.00    +0.000 A 
ATOM     18  C   UNL     1       2.158   7.551  19.394  0.00  0.00    +0.000 A 
BRANCH  15  19
ATOM     19  N   UNL     1       5.268   5.843  16.952  0.00  0.00    +0.000 N 
ATOM     20  C   UNL     1       5.287   5.911  15.474  0.00  0.00    +0.000 C 
ATOM     21  C   UNL     1       6.085   4.713  14.916  0.00  0.00    +0.000 C 
ATOM     22  O   UNL     1       7.418   4.657  15.455  0.00  0.00    +0.000 OA
ATOM     23  C   UNL     1       7.365   4.558  16.886  0.00  0.00    +0.000 C 
ATOM     24  C   UNL     1       6.635   5.759  17.510  0.00  0.00    +0.000 C 
ENDBRANCH  15  19
BRANCH  13  26
ATOM     25  C   UNL     1       1.358   4.450  20.612  0.00  0.00    +0.000 C 
ATOM     26  O   UNL     1       2.416   5.381  20.675  0.00  0.00    +0.000 OA
ENDBRANCH  13  26
ENDBRANCH   1  18
BRANCH   8  27
ATOM     27  N   UNL     1       0.440  15.436  18.590  0.00  0.00    +0.000 N 
ATOM     28  H   UNL     1       0.898  15.319  17.692  0.00  0.00    +0.000 HD
BRANCH  27  29
ATOM     29  C   UNL     1       0.763  16.737  19.182  0.00  0.00    +0.000 C 
ATOM     30  C   UNL     1       2.102  17.275  18.644  0.00  0.00    +0.000 C 
ATOM     31  C   UNL     1       2.113  17.489  17.125  0.00  0.00    +0.000 C 
ATOM     32  C   UNL     1       0.931  18.306  16.604  0.00  0.00    +0.000 C 
ATOM     33  C   UNL     1      -0.411  17.966  17.249  0.00  0.00    +0.000 C 
ATOM     34  C   UNL     1      -0.325  17.755  18.767  0.00  0.00    +0.000 C 
ENDBRANCH  27  29
ENDBRANCH   8  27
TORSDOF 5
ENDMDL
MODEL 2
REMARK VINA RESULT:      -8.3      4.159     11.056
REMARK  Name = 
REMARK  6 active torsions:
REMARK  status: ('A' for Active; 'I' for Inactive)
REMARK    1  A    between atoms: C_1  and  O_2
REMARK    2  A    between atoms: O_2  and  C_3
REMARK    3  A    between atoms: C_5  and  N_6
REMARK    4  A    between atoms: C_14  and  N_15
REMARK    5  A    between atoms: C_22  and  N_23
REMARK    6  A    between atoms: N_23  and  C_24
REMARK                            x       y       z     vdW  Elec       q    Type
REMARK                         _______ _______ _______ _____ _____    ______ ____
ROOT
ATOM      1  N   UNL     1       0.109  11.390  19.159  0.00  0.00    +0.000 N 
ATOM      2  C   UNL     1       0.935  10.283  18.903  0.00  0.00    +0.000 A 
ATOM      3  N   UNL     1       1.735  10.498  17.846  0.00  0.00    +0.000 NA
ATOM      4  C   UNL     1       2.588   9.513  17.512  0.00  0.00    +0.000 A 
ATOM      5  C   UNL     1       2.680   8.310  18.181  0.00  0.00    +0.000 A 
ATOM      6  C   UNL     1       3.604   7.338  17.786  0.00  0.00    +0.000 A 
ATOM      7  C   UNL     1       3.696   6.151  18.494  0.00  0.00    +0.000 A 
ATOM      8  C   UNL     1       2.863   5.872  19.586  0.00  0.00    +0.000 A 
ATOM      9  C   UNL     1       1.926   6.869  19.939  0.00  0.00    +0.000 A 
ATOM     10  C   UNL     1       1.817   8.122  19.259  0.00  0.00    +0.000 A 
ATOM     11  N   UNL     1       0.951   9.125  19.611  0.00  0.00    +0.000 NA
ATOM     12  H   UNL     1       0.295  12.040  18.418  0.00  0.00    +0.000 HD
ENDROOT
BRANCH   1  18
ATOM     13  C   UNL     1      -0.806  11.502  21.487  0.00  0.00    +0.000 A 
ATOM     14  C   UNL     1      -1.889  11.885  22.336  0.00  0.00    +0.000 A 
ATOM     15  C   UNL     1      -3.070  12.479  21.879  0.00  0.00    +0.000 A 
ATOM     16  C   UNL     1      -3.112  12.696  20.504  0.00  0.00    +0.000 A 
ATOM     17  C   UNL     1      -2.056  12.335  19.645  0.00  0.00    +0.000 A 
ATOM     18  C   UNL     1      -0.878  11.737  20.095  0.00  0.00    +0.000 A 
BRANCH  15  19
ATOM     19  N   UNL     1      -4.149  12.736  22.713  0.00  0.00    +0.000 N 
ATOM     20  C   UNL     1      -4.003  12.794  24.185  0.00  0.00    +0.000 C 
ATOM     21  C   UNL     1      -5.331  12.370  24.848  0.00  0.00    +0.000 C 
ATOM     22  O   UNL     1      -6.437  13.173  24.400  0.00  0.00    +0.000 OA
ATOM     23  C   UNL     1      -6.573  13.069  22.974  0.00  0.00    +0.000 C 
ATOM     24  C   UNL     1      -5.301  13.539  22.249  0.00  0.00    +0.000 C 
ENDBRANCH  15  19
BRANCH  13  26
ATOM     25  C   UNL     1      -0.054   9.784  23.051  0.00  0.00    +0.000 C 
ATOM     26  O   UNL     1       0.174  10.922  22.249  0.00  0.00    +0.000 OA
ENDBRANCH  13  26
ENDBRANCH   1  18
BRANCH   8  27
ATOM     27  N   UNL     1       3.131   4.688  20.257  0.00  0.00    +0.000 N 
ATOM     28  H   UNL     1       4.110   4.428  20.191  0.00  0.00    +0.000 HD
BRANCH  27  29
ATOM     29  C   UNL     1       2.291   3.519  20.529  0.00  0.00    +0.000 C 
ATOM     30  C   UNL     1       1.379   3.198  19.329  0.00  0.00    +0.000 C 
ATOM     31  C   UNL     1       2.148   2.875  18.042  0.00  0.00    +0.000 C 
ATOM     32  C   UNL     1       3.236   1.815  18.217  0.00  0.00    +0.000 C 
ATOM     33  C   UNL     1       4.052   1.950  19.501  0.00  0.00    +0.000 C 
ATOM     34  C   UNL     1       3.205   2.289  20.734  0.00  0.00    +0.000 C 
ENDBRANCH  27  29
ENDBRANCH   8  27
TORSDOF 5
ENDMDL
MODEL 3
REMARK VINA RESULT:      -8.3      3.016      9.872
REMARK  Name = 
REMARK  6 active torsions:
REMARK  status: ('A' for Active; 'I' for Inactive)
REMARK    1  A    between atoms: C_1  and  O_2
REMARK    2  A    between atoms: O_2  and  C_3
REMARK    3  A    between atoms: C_5  and  N_6
REMARK    4  A    between atoms: C_14  and  N_15
REMARK    5  A    between atoms: C_22  and  N_23
REMARK    6  A    between atoms: N_23  and  C_24
REMARK                            x       y       z     vdW  Elec       q    Type
REMARK                         _______ _______ _______ _____ _____    ______ ____
ROOT
ATOM      1  N   UNL     1       0.187  10.804  20.890  0.00  0.00    +0.000 N 
ATOM      2  C   UNL     1       0.774   9.563  20.592  0.00  0.00    +0.000 A 
ATOM      3  N   UNL     1       0.440   8.629  21.498  0.00  0.00    +0.000 NA
ATOM      4  C   UNL     1       0.928   7.390  21.310  0.00  0.00    +0.000 A 
ATOM      5  C   UNL     1       1.746   7.033  20.257  0.00  0.00    +0.000 A 
ATOM      6  C   UNL     1       2.202   5.719  20.117  0.00  0.00    +0.000 A 
ATOM      7  C   UNL     1       2.998   5.381  19.034  0.00  0.00    +0.000 A 
ATOM      8  C   UNL     1       3.393   6.328  18.079  0.00  0.00    +0.000 A 
ATOM      9  C   UNL     1       2.931   7.650  18.269  0.00  0.00    +0.000 A 
ATOM     10  C   UNL     1       2.082   8.038  19.352  0.00  0.00    +0.000 A 
ATOM     11  N   UNL     1       1.582   9.302  19.533  0.00  0.00    +0.000 NA
ATOM     12  H   UNL     1      -0.284  10.674  21.766  0.00  0.00    +0.000 HD
ENDROOT
BRANCH   1  18
ATOM     13  C   UNL     1      -0.733  12.531  19.328  0.00  0.00    +0.000 A 
ATOM     14  C   UNL     1      -0.640  13.862  18.818  0.00  0.00    +0.000 A 
ATOM     15  C   UNL     1       0.319  14.793  19.229  0.00  0.00    +0.000 A 
ATOM     16  C   UNL     1       1.190  14.329  20.212  0.00  0.00    +0.000 A 
ATOM     17  C   UNL     1       1.117  13.024  20.737  0.00  0.00    +0.000 A 
ATOM     18  C   UNL     1       0.166  12.089  20.326  0.00  0.00    +0.000 A 
BRANCH  15  19
ATOM     19  N   UNL     1       0.455  16.040  18.635  0.00  0.00    +0.000 N 
ATOM     20  C   UNL     1      -0.661  17.012  18.595  0.00  0.00    +0.000 C 
ATOM     21  C   UNL     1      -0.517  17.905  17.345  0.00  0.00    +0.000 C 
ATOM     22  O   UNL     1       0.758  18.571  17.303  0.00  0.00    +0.000 OA
ATOM     23  C   UNL     1       1.818  17.602  17.310  0.00  0.00    +0.000 C 
ATOM     24  C   UNL     1       1.767  16.717  18.567  0.00  0.00    +0.000 C 
ENDBRANCH  15  19
BRANCH  13  26
ATOM     25  C   UNL     1      -1.544  10.778  17.833  0.00  0.00    +0.000 C 
ATOM     26  O   UNL     1      -1.756  11.879  18.690  0.00  0.00    +0.000 OA
ENDBRANCH  13  26
ENDBRANCH   1  18
BRANCH   8  27
ATOM     27  N   UNL     1       4.108   5.829  17.001  0.00  0.00    +0.000 N 
ATOM     28  H   UNL     1       4.207   4.820  17.046  0.00  0.00    +0.000 HD
BRANCH  27  29
ATOM     29  C   UNL     1       5.165   6.427  16.181  0.00  0.00    +0.000 C 
ATOM     30  C   UNL     1       6.350   6.888  17.050  0.00  0.00    +0.000 C 
ATOM     31  C   UNL     1       7.017   5.749  17.833  0.00  0.00    +0.000 C 
ATOM     32  C   UNL     1       7.388   4.539  16.975  0.00  0.00    +0.000 C 
ATOM     33  C   UNL     1       6.337   4.149  15.938  0.00  0.00    +0.000 C 
ATOM     34  C   UNL     1       5.712   5.350  15.216  0.00  0.00    +0.000 C 
ENDBRANCH  27  29
ENDBRANCH   8  27
TORSDOF 5
ENDMDL
MODEL 4
REMARK VINA RESULT:      -8.1      1.506      1.988
REMARK  Name = 
REMARK  6 active torsions:
REMARK  status: ('A' for Active; 'I' for Inactive)
REMARK    1  A    between atoms: C_1  and  O_2
REMARK    2  A    between atoms: O_2  and  C_3
REMARK    3  A    between atoms: C_5  and  N_6
REMARK    4  A    between atoms: C_14  and  N_15
REMARK    5  A    between atoms: C_22  and  N_23
REMARK    6  A    between atoms: N_23  and  C_24
REMARK                            x       y       z     vdW  Elec       q    Type
REMARK                         _______ _______ _______ _____ _____    ______ ____
ROOT
ATOM      1  N   UNL     1       1.152   7.412  21.135  0.00  0.00    +0.000 N 
ATOM      2  C   UNL     1       0.749   8.743  21.334  0.00  0.00    +0.000 A 
ATOM      3  N   UNL     1      -0.130   8.847  22.343  0.00  0.00    +0.000 NA
ATOM      4  C   UNL     1      -0.578  10.079  22.643  0.00  0.00    +0.000 A 
ATOM      5  C   UNL     1      -0.193  11.224  21.975  0.00  0.00    +0.000 A 
ATOM      6  C   UNL     1      -0.689  12.475  22.354  0.00  0.00    +0.000 A 
ATOM      7  C   UNL     1      -0.264  13.612  21.686  0.00  0.00    +0.000 A 
ATOM      8  C   UNL     1       0.632  13.549  20.610  0.00  0.00    +0.000 A 
ATOM      9  C   UNL     1       1.091  12.264  20.242  0.00  0.00    +0.000 A 
ATOM     10  C   UNL     1       0.705  11.068  20.922  0.00  0.00    +0.000 A 
ATOM     11  N   UNL     1       1.172   9.815  20.616  0.00  0.00    +0.000 NA
ATOM     12  H   UNL     1       0.605   6.868  21.776  0.00  0.00    +0.000 HD
ENDROOT
BRANCH   1  18
ATOM     13  C   UNL     1       2.492   5.404  20.470  0.00  0.00    +0.000 A 
ATOM     14  C   UNL     1       3.391   4.816  19.529  0.00  0.00    +0.000 A 
ATOM     15  C   UNL     1       3.877   5.474  18.394  0.00  0.00    +0.000 A 
ATOM     16  C   UNL     1       3.396   6.770  18.228  0.00  0.00    +0.000 A 
ATOM     17  C   UNL     1       2.503   7.371  19.137  0.00  0.00    +0.000 A 
ATOM     18  C   UNL     1       2.020   6.722  20.274  0.00  0.00    +0.000 A 
BRANCH  15  19
ATOM     19  N   UNL     1       4.836   4.918  17.559  0.00  0.00    +0.000 N 
ATOM     20  C   UNL     1       6.201   4.603  18.039  0.00  0.00    +0.000 C 
ATOM     21  C   UNL     1       7.194   4.708  16.862  0.00  0.00    +0.000 C 
ATOM     22  O   UNL     1       6.816   3.860  15.763  0.00  0.00    +0.000 OA
ATOM     23  C   UNL     1       5.503   4.212  15.300  0.00  0.00    +0.000 C 
ATOM     24  C   UNL     1       4.453   4.067  16.413  0.00  0.00    +0.000 C 
ENDBRANCH  15  19
BRANCH  13  26
ATOM     25  C   UNL     1       2.352   3.108  21.292  0.00  0.00    +0.000 C 
ATOM     26  O   UNL     1       2.246   4.503  21.474  0.00  0.00    +0.000 OA
ENDBRANCH  13  26
ENDBRANCH   1  18
BRANCH   8  27
ATOM     27  N   UNL     1       1.042  14.771  20.099  0.00  0.00    +0.000 N 
ATOM     28  H   UNL     1       0.762  14.891  19.131  0.00  0.00    +0.000 HD
BRANCH  27  29
ATOM     29  C   UNL     1       2.192  15.619  20.425  0.00  0.00    +0.000 C 
ATOM     30  C   UNL     1       3.513  14.953  19.995  0.00  0.00    +0.000 C 
ATOM     31  C   UNL     1       3.603  14.681  18.488  0.00  0.00    +0.000 C 
ATOM     32  C   UNL     1       3.279  15.895  17.617  0.00  0.00    +0.000 C 
ATOM     33  C   UNL     1       2.096  16.729  18.105  0.00  0.00    +0.000 C 
ATOM     34  C   UNL     1       2.078  16.938  19.625  0.00  0.00    +0.000 C 
ENDBRANCH  27  29
ENDBRANCH   8  27
TORSDOF 5
ENDMDL
MODEL 5
REMARK VINA RESULT:      -8.1      4.174     11.004
REMARK  Name = 
REMARK  6 active torsions:
REMARK  status: ('A' for Active; 'I' for Inactive)
REMARK    1  A    between atoms: C_1  and  O_2
REMARK    2  A    between atoms: O_2  and  C_3
REMARK    3  A    between atoms: C_5  and  N_6
REMARK    4  A    between atoms: C_14  and  N_15
REMARK    5  A    between atoms: C_22  and  N_23
REMARK    6  A    between atoms: N_23  and  C_24
REMARK                            x       y       z     vdW  Elec       q    Type
REMARK                         _______ _______ _______ _____ _____    ______ ____
ROOT
ATOM      1  N   UNL     1       0.127  11.233  18.910  0.00  0.00    +0.000 N 
ATOM      2  C   UNL     1       0.924  10.081  18.796  0.00  0.00    +0.000 A 
ATOM      3  N   UNL     1       1.731  10.143  17.724  0.00  0.00    +0.000 NA
ATOM      4  C   UNL     1       2.557   9.102  17.518  0.00  0.00    +0.000 A 
ATOM      5  C   UNL     1       2.615   7.989  18.331  0.00  0.00    +0.000 A 
ATOM      6  C   UNL     1       3.514   6.951  18.062  0.00  0.00    +0.000 A 
ATOM      7  C   UNL     1       3.572   5.858  18.912  0.00  0.00    +0.000 A 
ATOM      8  C   UNL     1       2.731   5.739  20.027  0.00  0.00    +0.000 A 
ATOM      9  C   UNL     1       1.821   6.796  20.249  0.00  0.00    +0.000 A 
ATOM     10  C   UNL     1       1.747   7.958  19.420  0.00  0.00    +0.000 A 
ATOM     11  N   UNL     1       0.907   9.019  19.641  0.00  0.00    +0.000 NA
ATOM     12  H   UNL     1       0.332  11.781  18.095  0.00  0.00    +0.000 HD
ENDROOT
BRANCH   1  18
ATOM     13  C   UNL     1      -0.798  11.636  21.201  0.00  0.00    +0.000 A 
ATOM     14  C   UNL     1      -1.870  12.152  21.992  0.00  0.00    +0.000 A 
ATOM     15  C   UNL     1      -3.023  12.737  21.459  0.00  0.00    +0.000 A 
ATOM     16  C   UNL     1      -3.048  12.804  20.069  0.00  0.00    +0.000 A 
ATOM     17  C   UNL     1      -2.002  12.310  19.265  0.00  0.00    +0.000 A 
ATOM     18  C   UNL     1      -0.852  11.719  19.791  0.00  0.00    +0.000 A 
BRANCH  15  19
ATOM     19  N   UNL     1      -4.097  13.126  22.248  0.00  0.00    +0.000 N 
ATOM     20  C   UNL     1      -5.488  12.737  21.921  0.00  0.00    +0.000 C 
ATOM     21  C   UNL     1      -6.458  13.817  22.447  0.00  0.00    +0.000 C 
ATOM     22  O   UNL     1      -6.296  14.044  23.858  0.00  0.00    +0.000 OA
ATOM     23  C   UNL     1      -4.947  14.452  24.138  0.00  0.00    +0.000 C 
ATOM     24  C   UNL     1      -3.931  13.387  23.693  0.00  0.00    +0.000 C 
ENDBRANCH  15  19
BRANCH  13  26
ATOM     25  C   UNL     1      -0.096  10.000  22.873  0.00  0.00    +0.000 C 
ATOM     26  O   UNL     1       0.154  11.105  22.033  0.00  0.00    +0.000 OA
ENDBRANCH  13  26
ENDBRANCH   1  18
BRANCH   8  27
ATOM     27  N   UNL     1       2.966   4.640  20.839  0.00  0.00    +0.000 N 
ATOM     28  H   UNL     1       3.957   4.437  20.926  0.00  0.00    +0.000 HD
BRANCH  27  29
ATOM     29  C   UNL     1       2.157   3.450  21.114  0.00  0.00    +0.000 C 
ATOM     30  C   UNL     1       0.919   3.395  20.199  0.00  0.00    +0.000 C 
ATOM     31  C   UNL     1       1.262   3.336  18.704  0.00  0.00    +0.000 C 
ATOM     32  C   UNL     1       2.275   2.250  18.342  0.00  0.00    +0.000 C 
ATOM     33  C   UNL     1       3.433   2.106  19.328  0.00  0.00    +0.000 C 
ATOM     34  C   UNL     1       3.001   2.193  20.798  0.00  0.00    +0.000 C 
ENDBRANCH  27  29
ENDBRANCH   8  27
TORSDOF 5
ENDMDL
MODEL 6
REMARK VINA RESULT:      -8.1      4.350     11.231
REMARK  Name = 
REMARK  6 active torsions:
REMARK  status: ('A' for Active; 'I' for Inactive)
REMARK    1  A    between atoms: C_1  and  O_2
REMARK    2  A    between atoms: O_2  and  C_3
REMARK    3  A    between atoms: C_5  and  N_6
REMARK    4  A    between atoms: C_14  and  N_15
REMARK    5  A    between atoms: C_22  and  N_23
REMARK    6  A    between atoms: N_23  and  C_24
REMARK                            x       y       z     vdW  Elec       q    Type
REMARK                         _______ _______ _______ _____ _____    ______ ____
ROOT
ATOM      1  N   UNL     1       0.227  11.934  19.309  0.00  0.00    +0.000 N 
ATOM      2  C   UNL     1       0.859  10.694  19.111  0.00  0.00    +0.000 A 
ATOM      3  N   UNL     1       1.498  10.648  17.931  0.00  0.00    +0.000 NA
ATOM      4  C   UNL     1       2.158   9.515  17.635  0.00  0.00    +0.000 A 
ATOM      5  C   UNL     1       2.208   8.412  18.461  0.00  0.00    +0.000 A 
ATOM      6  C   UNL     1       2.930   7.272  18.093  0.00  0.00    +0.000 A 
ATOM      7  C   UNL     1       2.988   6.188  18.955  0.00  0.00    +0.000 A 
ATOM      8  C   UNL     1       2.315   6.181  20.184  0.00  0.00    +0.000 A 
ATOM      9  C   UNL     1       1.577   7.342  20.509  0.00  0.00    +0.000 A 
ATOM     10  C   UNL     1       1.515   8.495  19.667  0.00  0.00    +0.000 A 
ATOM     11  N   UNL     1       0.846   9.651  19.980  0.00  0.00    +0.000 NA
ATOM     12  H   UNL     1       0.369  12.446  18.458  0.00  0.00    +0.000 HD
ENDROOT
BRANCH   1  18
ATOM     13  C   UNL     1      -1.959  12.559  20.357  0.00  0.00    +0.000 A 
ATOM     14  C   UNL     1      -2.634  13.231  21.422  0.00  0.00    +0.000 A 
ATOM     15  C   UNL     1      -1.982  13.915  22.453  0.00  0.00    +0.000 A 
ATOM     16  C   UNL     1      -0.592  13.880  22.380  0.00  0.00    +0.000 A 
ATOM     17  C   UNL     1       0.099  13.220  21.346  0.00  0.00    +0.000 A 
ATOM     18  C   UNL     1      -0.546  12.541  20.311  0.00  0.00    +0.000 A 
BRANCH  15  19
ATOM     19  N   UNL     1      -2.664  14.652  23.411  0.00  0.00    +0.000 N 
ATOM     20  C   UNL     1      -4.142  14.638  23.500  0.00  0.00    +0.000 C 
ATOM     21  C   UNL     1      -4.633  15.984  24.075  0.00  0.00    +0.000 C 
ATOM     22  O   UNL     1      -4.034  16.275  25.350  0.00  0.00    +0.000 OA
ATOM     23  C   UNL     1      -2.604  16.314  25.223  0.00  0.00    +0.000 C 
ATOM     24  C   UNL     1      -2.045  14.976  24.713  0.00  0.00    +0.000 C 
ENDBRANCH  15  19
BRANCH  13  26
ATOM     25  C   UNL     1      -4.258  12.375  19.551  0.00  0.00    +0.000 C 
ATOM     26  O   UNL     1      -2.891  12.025  19.506  0.00  0.00    +0.000 OA
ENDBRANCH  13  26
ENDBRANCH   1  18
BRANCH   8  27
ATOM     27  N   UNL     1       2.539   5.071  20.984  0.00  0.00    +0.000 N 
ATOM     28  H   UNL     1       3.525   4.831  21.031  0.00  0.00    +0.000 HD
BRANCH  27  29
ATOM     29  C   UNL     1       1.698   3.911  21.287  0.00  0.00    +0.000 C 
ATOM     30  C   UNL     1       0.755   3.585  20.113  0.00  0.00    +0.000 C 
ATOM     31  C   UNL     1       1.491   3.244  18.811  0.00  0.00    +0.000 C 
ATOM     32  C   UNL     1       2.575   2.178  18.971  0.00  0.00    +0.000 C 
ATOM     33  C   UNL     1       3.424   2.318  20.234  0.00  0.00    +0.000 C 
ATOM     34  C   UNL     1       2.608   2.676  21.484  0.00  0.00    +0.000 C 
ENDBRANCH  27  29
ENDBRANCH   8  27
TORSDOF 5
ENDMDL
MODEL 7
REMARK VINA RESULT:      -8.1      1.483      1.724
REMARK  Name = 
REMARK  6 active torsions:
REMARK  status: ('A' for Active; 'I' for Inactive)
REMARK    1  A    between atoms: C_1  and  O_2
REMARK    2  A    between atoms: O_2  and  C_3
REMARK    3  A    between atoms: C_5  and  N_6
REMARK    4  A    between atoms: C_14  and  N_15
REMARK    5  A    between atoms: C_22  and  N_23
REMARK    6  A    between atoms: N_23  and  C_24
REMARK                            x       y       z     vdW  Elec       q    Type
REMARK                         _______ _______ _______ _____ _____    ______ ____
ROOT
ATOM      1  N   UNL     1       1.126   7.452  20.733  0.00  0.00    +0.000 N 
ATOM      2  C   UNL     1       0.666   8.714  21.146  0.00  0.00    +0.000 A 
ATOM      3  N   UNL     1      -0.322   8.608  22.049  0.00  0.00    +0.000 NA
ATOM      4  C   UNL     1      -0.834   9.752  22.536  0.00  0.00    +0.000 A 
ATOM      5  C   UNL     1      -0.410  11.009  22.158  0.00  0.00    +0.000 A 
ATOM      6  C   UNL     1      -0.979  12.156  22.721  0.00  0.00    +0.000 A 
ATOM      7  C   UNL     1      -0.515  13.407  22.346  0.00  0.00    +0.000 A 
ATOM      8  C   UNL     1       0.496  13.567  21.388  0.00  0.00    +0.000 A 
ATOM      9  C   UNL     1       1.028  12.384  20.825  0.00  0.00    +0.000 A 
ATOM     10  C   UNL     1       0.603  11.074  21.205  0.00  0.00    +0.000 A 
ATOM     11  N   UNL     1       1.136   9.910  20.710  0.00  0.00    +0.000 NA
ATOM     12  H   UNL     1       0.527   6.787  21.186  0.00  0.00    +0.000 HD
ENDROOT
BRANCH   1  18
ATOM     13  C   UNL     1       2.769   5.715  19.989  0.00  0.00    +0.000 A 
ATOM     14  C   UNL     1       3.762   5.327  19.039  0.00  0.00    +0.000 A 
ATOM     15  C   UNL     1       4.157   6.117  17.954  0.00  0.00    +0.000 A 
ATOM     16  C   UNL     1       3.484   7.331  17.849  0.00  0.00    +0.000 A 
ATOM     17  C   UNL     1       2.496   7.735  18.768  0.00  0.00    +0.000 A 
ATOM     18  C   UNL     1       2.103   6.955  19.856  0.00  0.00    +0.000 A 
BRANCH  15  19
ATOM     19  N   UNL     1       5.203   5.763  17.113  0.00  0.00    +0.000 N 
ATOM     20  C   UNL     1       5.214   6.139  15.681  0.00  0.00    +0.000 C 
ATOM     21  C   UNL     1       6.010   5.085  14.881  0.00  0.00    +0.000 C 
ATOM     22  O   UNL     1       7.345   4.919  15.390  0.00  0.00    +0.000 OA
ATOM     23  C   UNL     1       7.299   4.523  16.770  0.00  0.00    +0.000 C 
ATOM     24  C   UNL     1       6.572   5.566  17.634  0.00  0.00    +0.000 C 
ENDBRANCH  15  19
BRANCH  13  26
ATOM     25  C   UNL     1       1.572   3.821  20.963  0.00  0.00    +0.000 C 
ATOM     26  O   UNL     1       2.650   4.731  20.936  0.00  0.00    +0.000 OA
ENDBRANCH  13  26
ENDBRANCH   1  18
BRANCH   8  27
ATOM     27  N   UNL     1       0.925  14.869  21.182  0.00  0.00    +0.000 N 
ATOM     28  H   UNL     1       1.368  15.258  22.009  0.00  0.00    +0.000 HD
BRANCH  27  29
ATOM     29  C   UNL     1       0.417  15.929  20.307  0.00  0.00    +0.000 C 
ATOM     30  C   UNL     1       1.163  17.254  20.549  0.00  0.00    +0.000 C 
ATOM     31  C   UNL     1       2.671  17.170  20.277  0.00  0.00    +0.000 C 
ATOM     32  C   UNL     1       3.023  16.568  18.916  0.00  0.00    +0.000 C 
ATOM     33  C   UNL     1       2.175  15.364  18.514  0.00  0.00    +0.000 C 
ATOM     34  C   UNL     1       0.684  15.529  18.837  0.00  0.00    +0.000 C 
ENDBRANCH  27  29
ENDBRANCH   8  27
TORSDOF 5
ENDMDL
MODEL 8
REMARK VINA RESULT:      -8.1      1.365      1.933
REMARK  Name = 
REMARK  6 active torsions:
REMARK  status: ('A' for Active; 'I' for Inactive)
REMARK    1  A    between atoms: C_1  and  O_2
REMARK    2  A    between atoms: O_2  and  C_3
REMARK    3  A    between atoms: C_5  and  N_6
REMARK    4  A    between atoms: C_14  and  N_15
REMARK    5  A    between atoms: C_22  and  N_23
REMARK    6  A    between atoms: N_23  and  C_24
REMARK                            x       y       z     vdW  Elec       q    Type
REMARK                         _______ _______ _______ _____ _____    ______ ____
ROOT
ATOM      1  N   UNL     1       1.214   7.743  21.252  0.00  0.00    +0.000 N 
ATOM      2  C   UNL     1       0.562   8.979  21.403  0.00  0.00    +0.000 A 
ATOM      3  N   UNL     1      -0.008   9.091  22.613  0.00  0.00    +0.000 NA
ATOM      4  C   UNL     1      -0.650  10.241  22.885  0.00  0.00    +0.000 A 
ATOM      5  C   UNL     1      -0.758  11.293  21.999  0.00  0.00    +0.000 A 
ATOM      6  C   UNL     1      -1.428  12.467  22.359  0.00  0.00    +0.000 A 
ATOM      7  C   UNL     1      -1.496  13.520  21.461  0.00  0.00    +0.000 A 
ATOM      8  C   UNL     1      -0.939  13.437  20.177  0.00  0.00    +0.000 A 
ATOM      9  C   UNL     1      -0.293  12.226  19.843  0.00  0.00    +0.000 A 
ATOM     10  C   UNL     1      -0.169  11.126  20.748  0.00  0.00    +0.000 A 
ATOM     11  N   UNL     1       0.494   9.959  20.466  0.00  0.00    +0.000 NA
ATOM     12  H   UNL     1       1.014   7.230  22.090  0.00  0.00    +0.000 HD
ENDROOT
BRANCH   1  18
ATOM     13  C   UNL     1       2.422   5.759  20.317  0.00  0.00    +0.000 A 
ATOM     14  C   UNL     1       3.191   5.216  19.243  0.00  0.00    +0.000 A 
ATOM     15  C   UNL     1       3.555   5.934  18.099  0.00  0.00    +0.000 A 
ATOM     16  C   UNL     1       3.086   7.245  18.067  0.00  0.00    +0.000 A 
ATOM     17  C   UNL     1       2.320   7.803  19.108  0.00  0.00    +0.000 A 
ATOM     18  C   UNL     1       1.959   7.094  20.255  0.00  0.00    +0.000 A 
BRANCH  15  19
ATOM     19  N   UNL     1       4.397   5.415  17.126  0.00  0.00    +0.000 N 
ATOM     20  C   UNL     1       4.219   4.046  16.588  0.00  0.00    +0.000 C 
ATOM     21  C   UNL     1       5.588   3.491  16.141  0.00  0.00    +0.000 C 
ATOM     22  O   UNL     1       6.230   4.351  15.183  0.00  0.00    +0.000 OA
ATOM     23  C   UNL     1       6.418   5.659  15.745  0.00  0.00    +0.000 C 
ATOM     24  C   UNL     1       5.080   6.295  16.155  0.00  0.00    +0.000 C 
ENDBRANCH  15  19
BRANCH  13  26
ATOM     25  C   UNL     1       1.621   3.574  21.060  0.00  0.00    +0.000 C 
ATOM     26  O   UNL     1       2.276   4.803  21.289  0.00  0.00    +0.000 OA
ENDBRANCH  13  26
ENDBRANCH   1  18
BRANCH   8  27
ATOM     27  N   UNL     1      -1.000  14.599  19.422  0.00  0.00    +0.000 N 
ATOM     28  H   UNL     1      -1.891  14.693  18.943  0.00  0.00    +0.000 HD
BRANCH  27  29
ATOM     29  C   UNL     1       0.047  15.371  18.748  0.00  0.00    +0.000 C 
ATOM     30  C   UNL     1      -0.496  16.722  18.245  0.00  0.00    +0.000 C 
ATOM     31  C   UNL     1      -1.032  17.624  19.364  0.00  0.00    +0.000 C 
ATOM     32  C   UNL     1      -0.061  17.810  20.531  0.00  0.00    +0.000 C 
ATOM     33  C   UNL     1       0.676  16.540  20.953  0.00  0.00    +0.000 C 
ATOM     34  C   UNL     1       1.162  15.692  19.770  0.00  0.00    +0.000 C 
ENDBRANCH  27  29
ENDBRANCH   8  27
TORSDOF 5
ENDMDL
MODEL 9
REMARK VINA RESULT:      -8.0      4.392     11.144
REMARK  Name = 
REMARK  6 active torsions:
REMARK  status: ('A' for Active; 'I' for Inactive)
REMARK    1  A    between atoms: C_1  and  O_2
REMARK    2  A    between atoms: O_2  and  C_3
REMARK    3  A    between atoms: C_5  and  N_6
REMARK    4  A    between atoms: C_14  and  N_15
REMARK    5  A    between atoms: C_22  and  N_23
REMARK    6  A    between atoms: N_23  and  C_24
REMARK                            x       y       z     vdW  Elec       q    Type
REMARK                         _______ _______ _______ _____ _____    ______ ____
ROOT
ATOM      1  N   UNL     1       0.140  11.185  18.615  0.00  0.00    +0.000 N 
ATOM      2  C   UNL     1       0.933  10.025  18.599  0.00  0.00    +0.000 A 
ATOM      3  N   UNL     1       1.759  10.007  17.541  0.00  0.00    +0.000 NA
ATOM      4  C   UNL     1       2.584   8.951  17.426  0.00  0.00    +0.000 A 
ATOM      5  C   UNL     1       2.623   7.900  18.318  0.00  0.00    +0.000 A 
ATOM      6  C   UNL     1       3.521   6.843  18.142  0.00  0.00    +0.000 A 
ATOM      7  C   UNL     1       3.560   5.814  19.069  0.00  0.00    +0.000 A 
ATOM      8  C   UNL     1       2.698   5.778  20.174  0.00  0.00    +0.000 A 
ATOM      9  C   UNL     1       1.789   6.852  20.303  0.00  0.00    +0.000 A 
ATOM     10  C   UNL     1       1.735   7.950  19.390  0.00  0.00    +0.000 A 
ATOM     11  N   UNL     1       0.896   9.028  19.519  0.00  0.00    +0.000 NA
ATOM     12  H   UNL     1       0.361  11.672  17.767  0.00  0.00    +0.000 HD
ENDROOT
BRANCH   1  18
ATOM     13  C   UNL     1      -2.199  11.954  19.069  0.00  0.00    +0.000 A 
ATOM     14  C   UNL     1      -3.113  12.543  19.996  0.00  0.00    +0.000 A 
ATOM     15  C   UNL     1      -2.763  12.956  21.285  0.00  0.00    +0.000 A 
ATOM     16  C   UNL     1      -1.431  12.730  21.622  0.00  0.00    +0.000 A 
ATOM     17  C   UNL     1      -0.510  12.144  20.731  0.00  0.00    +0.000 A 
ATOM     18  C   UNL     1      -0.853  11.736  19.440  0.00  0.00    +0.000 A 
BRANCH  15  19
ATOM     19  N   UNL     1      -3.644  13.627  22.122  0.00  0.00    +0.000 N 
ATOM     20  C   UNL     1      -3.408  15.026  22.543  0.00  0.00    +0.000 C 
ATOM     21  C   UNL     1      -4.046  15.257  23.930  0.00  0.00    +0.000 C 
ATOM     22  O   UNL     1      -5.448  14.937  23.937  0.00  0.00    +0.000 OA
ATOM     23  C   UNL     1      -5.641  13.566  23.557  0.00  0.00    +0.000 C 
ATOM     24  C   UNL     1      -5.082  13.284  22.153  0.00  0.00    +0.000 C 
ENDBRANCH  15  19
BRANCH  13  26
ATOM     25  C   UNL     1      -4.258  11.536  17.822  0.00  0.00    +0.000 C 
ATOM     26  O   UNL     1      -2.858  11.700  17.894  0.00  0.00    +0.000 OA
ENDBRANCH  13  26
ENDBRANCH   1  18
BRANCH   8  27
ATOM     27  N   UNL     1       2.913   4.740  21.068  0.00  0.00    +0.000 N 
ATOM     28  H   UNL     1       3.901   4.535  21.180  0.00  0.00    +0.000 HD
BRANCH  27  29
ATOM     29  C   UNL     1       2.089   3.581  21.422  0.00  0.00    +0.000 C 
ATOM     30  C   UNL     1       0.876   3.454  20.481  0.00  0.00    +0.000 C 
ATOM     31  C   UNL     1       1.258   3.266  19.007  0.00  0.00    +0.000 C 
ATOM     32  C   UNL     1       2.273   2.148  18.766  0.00  0.00    +0.000 C 
ATOM     33  C   UNL     1       3.404   2.085  19.792  0.00  0.00    +0.000 C 
ATOM     34  C   UNL     1       2.933   2.298  21.237  0.00  0.00    +0.000 C 
ENDBRANCH  27  29
ENDBRANCH   8  27
TORSDOF 5
ENDMDL
