MODEL 1
REMARK VINA RESULT:      -8.0      0.000      0.000
REMARK  Name = 
REMARK  4 active torsions:
REMARK  status: ('A' for Active; 'I' for Inactive)
REMARK    1  A    between atoms: C_2  and  C_10
REMARK    2  A    between atoms: N_3  and  C_4
REMARK    3  A    between atoms: N_13  and  C_14
REMARK    4  A    between atoms: C_14  and  C_15
REMARK                            x       y       z     vdW  Elec       q    Type
REMARK                         _______ _______ _______ _____ _____    ______ ____
ROOT
ATOM      1  C   UNL     1       7.479   6.122  17.782  0.00  0.00    +0.000 C 
ATOM      2  C   UNL     1       6.851   5.571  19.071  0.00  0.00    +0.000 C 
ATOM      3  C   UNL     1       5.321   5.484  19.014  0.00  0.00    +0.000 C 
ATOM      4  N   UNL     1       4.677   6.743  18.586  0.00  0.00    +0.000 NA
ATOM      5  C   UNL     1       5.235   7.193  17.299  0.00  0.00    +0.000 C 
ATOM      6  C   UNL     1       6.754   7.407  17.397  0.00  0.00    +0.000 C 
ENDROOT
BRANCH   1   8
ATOM      7  O   UNL     1       7.947   3.993  16.777  0.00  0.00    +0.000 OA
ATOM      8  C   UNL     1       7.469   5.114  16.630  0.00  0.00    +0.000 C 
ATOM      9  N   UNL     1       6.936   5.624  15.448  0.00  0.00    +0.000 N 
ATOM     10  H   UNL     1       6.770   6.619  15.389  0.00  0.00    +0.000 HD
BRANCH   9  11
ATOM     11  C   UNL     1       6.810   4.898  14.242  0.00  0.00    +0.000 A 
ATOM     12  C   UNL     1       7.715   5.068  13.184  0.00  0.00    +0.000 A 
ATOM     13  C   UNL     1       7.535   4.415  11.971  0.00  0.00    +0.000 A 
ATOM     14  C   UNL     1       6.448   3.566  11.796  0.00  0.00    +0.000 A 
ATOM     15  C   UNL     1       5.560   3.353  12.854  0.00  0.00    +0.000 A 
ATOM     16  C   UNL     1       5.753   4.002  14.077  0.00  0.00    +0.000 A 
ENDBRANCH   9  11
ENDBRANCH   1   8
BRANCH   4  17
ATOM     17  C   UNL     1       3.208   6.491  18.502  0.00  0.00    +0.000 C 
BRANCH  17  18
ATOM     18  C   UNL     1       2.312   7.596  19.012  0.00  0.00    +0.000 A 
ATOM     19  N   UNL     1       1.889   7.679  20.257  0.00  0.00    +0.000 NA
ATOM     20  C   UNL     1       1.055   8.772  20.405  0.00  0.00    +0.000 A 
ATOM     21  C   UNL     1       0.377   9.136  21.587  0.00  0.00    +0.000 A 
ATOM     22  C   UNL     1      -0.472  10.246  21.591  0.00  0.00    +0.000 A 
ATOM     23  C   UNL     1      -0.648  10.999  20.435  0.00  0.00    +0.000 A 
ATOM     24  C   UNL     1       0.028  10.672  19.254  0.00  0.00    +0.000 A 
ATOM     25  C   UNL     1       0.877   9.551  19.261  0.00  0.00    +0.000 A 
ATOM     26  S   UNL     1       1.828   8.888  17.985  0.00  0.00    +0.000 S 
ENDBRANCH  17  18
ENDBRANCH   4  17
TORSDOF 4
ENDMDL
MODEL 2
REMARK VINA RESULT:      -7.8      4.575      7.507
REMARK  Name = 
REMARK  4 active torsions:
REMARK  status: ('A' for Active; 'I' for Inactive)
REMARK    1  A    between atoms: C_2  and  C_10
REMARK    2  A    between atoms: N_3  and  C_4
REMARK    3  A    between atoms: N_13  and  C_14
REMARK    4  A    between atoms: C_14  and  C_15
REMARK                            x       y       z     vdW  Elec       q    Type
REMARK                         _______ _______ _______ _____ _____    ______ ____
ROOT
ATOM      1  C   UNL     1       7.283   4.765  17.960  0.00  0.00    +0.000 C 
ATOM      2  C   UNL     1       8.239   5.518  18.897  0.00  0.00    +0.000 C 
ATOM      3  C   UNL     1       7.959   7.025  18.970  0.00  0.00    +0.000 C 
ATOM      4  N   UNL     1       7.871   7.671  17.644  0.00  0.00    +0.000 NA
ATOM      5  C   UNL     1       6.876   6.982  16.804  0.00  0.00    +0.000 C 
ATOM      6  C   UNL     1       7.233   5.498  16.623  0.00  0.00    +0.000 C 
ENDROOT
BRANCH   1   8
ATOM      7  O   UNL     1       5.573   5.132  19.604  0.00  0.00    +0.000 OA
ATOM      8  C   UNL     1       5.881   4.588  18.548  0.00  0.00    +0.000 C 
ATOM      9  N   UNL     1       5.070   3.731  17.805  0.00  0.00    +0.000 N 
ATOM     10  H   UNL     1       5.499   3.181  17.074  0.00  0.00    +0.000 HD
BRANCH   9  11
ATOM     11  C   UNL     1       3.735   3.404  18.130  0.00  0.00    +0.000 A 
ATOM     12  C   UNL     1       3.410   2.210  18.789  0.00  0.00    +0.000 A 
ATOM     13  C   UNL     1       2.088   1.855  19.029  0.00  0.00    +0.000 A 
ATOM     14  C   UNL     1       1.061   2.698  18.621  0.00  0.00    +0.000 A 
ATOM     15  C   UNL     1       1.367   3.912  18.000  0.00  0.00    +0.000 A 
ATOM     16  C   UNL     1       2.699   4.270  17.774  0.00  0.00    +0.000 A 
ENDBRANCH   9  11
ENDBRANCH   1   8
BRANCH   4  17
ATOM     17  C   UNL     1       7.522   9.105  17.865  0.00  0.00    +0.000 C 
BRANCH  17  18
ATOM     18  C   UNL     1       8.661  10.015  18.262  0.00  0.00    +0.000 A 
ATOM     19  N   UNL     1       9.358  10.732  17.404  0.00  0.00    +0.000 NA
ATOM     20  C   UNL     1      10.355  11.428  18.063  0.00  0.00    +0.000 A 
ATOM     21  C   UNL     1      11.325  12.251  17.453  0.00  0.00    +0.000 A 
ATOM     22  C   UNL     1      12.306  12.867  18.235  0.00  0.00    +0.000 A 
ATOM     23  C   UNL     1      12.330  12.676  19.613  0.00  0.00    +0.000 A 
ATOM     24  C   UNL     1      11.367  11.881  20.245  0.00  0.00    +0.000 A 
ATOM     25  C   UNL     1      10.386  11.264  19.448  0.00  0.00    +0.000 A 
ATOM     26  S   UNL     1       9.088  10.228  19.914  0.00  0.00    +0.000 S 
ENDBRANCH  17  18
ENDBRANCH   4  17
TORSDOF 4
ENDMDL
MODEL 3
REMARK VINA RESULT:      -7.7      1.036      1.692
REMARK  Name = 
REMARK  4 active torsions:
REMARK  status: ('A' for Active; 'I' for Inactive)
REMARK    1  A    between atoms: C_2  and  C_10
REMARK    2  A    between atoms: N_3  and  C_4
REMARK    3  A    between atoms: N_13  and  C_14
REMARK    4  A    between atoms: C_14  and  C_15
REMARK                            x       y       z     vdW  Elec       q    Type
REMARK                         _______ _______ _______ _____ _____    ______ ____
ROOT
ATOM      1  C   UNL     1       5.833   4.076  18.179  0.00  0.00    +0.000 C 
ATOM      2  C   UNL     1       4.349   3.750  17.958  0.00  0.00    +0.000 C 
ATOM      3  C   UNL     1       3.517   4.962  17.519  0.00  0.00    +0.000 C 
ATOM      4  N   UNL     1       3.694   6.142  18.391  0.00  0.00    +0.000 NA
ATOM      5  C   UNL     1       5.122   6.486  18.505  0.00  0.00    +0.000 C 
ATOM      6  C   UNL     1       5.934   5.309  19.071  0.00  0.00    +0.000 C 
ENDROOT
BRANCH   1   8
ATOM      7  O   UNL     1       7.790   4.595  16.890  0.00  0.00    +0.000 OA
ATOM      8  C   UNL     1       6.606   4.272  16.873  0.00  0.00    +0.000 C 
ATOM      9  N   UNL     1       5.823   4.107  15.732  0.00  0.00    +0.000 N 
ATOM     10  H   UNL     1       4.820   4.051  15.845  0.00  0.00    +0.000 HD
BRANCH   9  11
ATOM     11  C   UNL     1       6.296   4.231  14.406  0.00  0.00    +0.000 A 
ATOM     12  C   UNL     1       5.791   3.433  13.369  0.00  0.00    +0.000 A 
ATOM     13  C   UNL     1       6.321   3.499  12.086  0.00  0.00    +0.000 A 
ATOM     14  C   UNL     1       7.363   4.378  11.812  0.00  0.00    +0.000 A 
ATOM     15  C   UNL     1       7.850   5.210  12.824  0.00  0.00    +0.000 A 
ATOM     16  C   UNL     1       7.304   5.149  14.109  0.00  0.00    +0.000 A 
ENDBRANCH   9  11
ENDBRANCH   1   8
BRANCH   4  17
ATOM     17  C   UNL     1       2.894   7.258  17.806  0.00  0.00    +0.000 C 
BRANCH  17  18
ATOM     18  C   UNL     1       2.112   8.102  18.785  0.00  0.00    +0.000 A 
ATOM     19  N   UNL     1       1.980   7.807  20.063  0.00  0.00    +0.000 NA
ATOM     20  C   UNL     1       1.177   8.744  20.687  0.00  0.00    +0.000 A 
ATOM     21  C   UNL     1       0.776   8.713  22.039  0.00  0.00    +0.000 A 
ATOM     22  C   UNL     1      -0.074   9.705  22.537  0.00  0.00    +0.000 A 
ATOM     23  C   UNL     1      -0.524  10.726  21.706  0.00  0.00    +0.000 A 
ATOM     24  C   UNL     1      -0.125  10.792  20.367  0.00  0.00    +0.000 A 
ATOM     25  C   UNL     1       0.728   9.787  19.876  0.00  0.00    +0.000 A 
ATOM     26  S   UNL     1       1.381   9.579  18.293  0.00  0.00    +0.000 S 
ENDBRANCH  17  18
ENDBRANCH   4  17
TORSDOF 4
ENDMDL
MODEL 4
REMARK VINA RESULT:      -7.6      0.819      1.259
REMARK  Name = 
REMARK  4 active torsions:
REMARK  status: ('A' for Active; 'I' for Inactive)
REMARK    1  A    between atoms: C_2  and  C_10
REMARK    2  A    between atoms: N_3  and  C_4
REMARK    3  A    between atoms: N_13  and  C_14
REMARK    4  A    between atoms: C_14  and  C_15
REMARK                            x       y       z     vdW  Elec       q    Type
REMARK                         _______ _______ _______ _____ _____    ______ ____
ROOT
ATOM      1  C   UNL     1       7.469   6.104  17.818  0.00  0.00    +0.000 C 
ATOM      2  C   UNL     1       6.823   5.536  19.090  0.00  0.00    +0.000 C 
ATOM      3  C   UNL     1       5.294   5.442  19.007  0.00  0.00    +0.000 C 
ATOM      4  N   UNL     1       4.651   6.702  18.582  0.00  0.00    +0.000 NA
ATOM      5  C   UNL     1       5.228   7.169  17.309  0.00  0.00    +0.000 C 
ATOM      6  C   UNL     1       6.744   7.389  17.434  0.00  0.00    +0.000 C 
ENDROOT
BRANCH   1   8
ATOM      7  O   UNL     1       7.977   3.993  16.795  0.00  0.00    +0.000 OA
ATOM      8  C   UNL     1       7.484   5.109  16.656  0.00  0.00    +0.000 C 
ATOM      9  N   UNL     1       6.953   5.623  15.474  0.00  0.00    +0.000 N 
ATOM     10  H   UNL     1       6.773   6.617  15.424  0.00  0.00    +0.000 HD
BRANCH   9  11
ATOM     11  C   UNL     1       6.848   4.908  14.260  0.00  0.00    +0.000 A 
ATOM     12  C   UNL     1       7.733   5.134  13.195  0.00  0.00    +0.000 A 
ATOM     13  C   UNL     1       7.571   4.489  11.975  0.00  0.00    +0.000 A 
ATOM     14  C   UNL     1       6.523   3.593  11.800  0.00  0.00    +0.000 A 
ATOM     15  C   UNL     1       5.657   3.325  12.863  0.00  0.00    +0.000 A 
ATOM     16  C   UNL     1       5.833   3.965  14.093  0.00  0.00    +0.000 A 
ENDBRANCH   9  11
ENDBRANCH   1   8
BRANCH   4  17
ATOM     17  C   UNL     1       3.185   6.443  18.471  0.00  0.00    +0.000 C 
BRANCH  17  18
ATOM     18  C   UNL     1       2.283   7.369  19.254  0.00  0.00    +0.000 A 
ATOM     19  N   UNL     1       1.868   8.537  18.806  0.00  0.00    +0.000 NA
ATOM     20  C   UNL     1       1.094   9.167  19.764  0.00  0.00    +0.000 A 
ATOM     21  C   UNL     1       0.530  10.454  19.649  0.00  0.00    +0.000 A 
ATOM     22  C   UNL     1      -0.201  10.992  20.712  0.00  0.00    +0.000 A 
ATOM     23  C   UNL     1      -0.380  10.262  21.882  0.00  0.00    +0.000 A 
ATOM     24  C   UNL     1       0.152   8.974  22.014  0.00  0.00    +0.000 A 
ATOM     25  C   UNL     1       0.888   8.444  20.939  0.00  0.00    +0.000 A 
ATOM     26  S   UNL     1       1.671   6.914  20.795  0.00  0.00    +0.000 S 
ENDBRANCH  17  18
ENDBRANCH   4  17
TORSDOF 4
ENDMDL
MODEL 5
REMARK VINA RESULT:      -7.5      0.816      1.587
REMARK  Name = 
REMARK  4 active torsions:
REMARK  status: ('A' for Active; 'I' for Inactive)
REMARK    1  A    between atoms: C_2  and  C_10
REMARK    2  A    between atoms: N_3  and  C_4
REMARK    3  A    between atoms: N_13  and  C_14
REMARK    4  A    between atoms: C_14  and  C_15
REMARK                            x       y       z     vdW  Elec       q    Type
REMARK                         _______ _______ _______ _____ _____    ______ ____
ROOT
ATOM      1  C   UNL     1       7.351   6.019  17.813  0.00  0.00    +0.000 C 
ATOM      2  C   UNL     1       6.591   5.454  19.022  0.00  0.00    +0.000 C 
ATOM      3  C   UNL     1       5.066   5.474  18.846  0.00  0.00    +0.000 C 
ATOM      4  N   UNL     1       4.541   6.793  18.436  0.00  0.00    +0.000 NA
ATOM      5  C   UNL     1       5.226   7.262  17.219  0.00  0.00    +0.000 C 
ATOM      6  C   UNL     1       6.743   7.367  17.441  0.00  0.00    +0.000 C 
ENDROOT
BRANCH   1   8
ATOM      7  O   UNL     1       7.905   3.968  16.696  0.00  0.00    +0.000 OA
ATOM      8  C   UNL     1       7.366   5.068  16.614  0.00  0.00    +0.000 C 
ATOM      9  N   UNL     1       6.779   5.606  15.469  0.00  0.00    +0.000 N 
ATOM     10  H   UNL     1       6.561   6.593  15.462  0.00  0.00    +0.000 HD
BRANCH   9  11
ATOM     11  C   UNL     1       6.663   4.932  14.233  0.00  0.00    +0.000 A 
ATOM     12  C   UNL     1       5.636   4.007  13.994  0.00  0.00    +0.000 A 
ATOM     13  C   UNL     1       5.578   3.285  12.808  0.00  0.00    +0.000 A 
ATOM     14  C   UNL     1       6.544   3.485  11.828  0.00  0.00    +0.000 A 
ATOM     15  C   UNL     1       7.551   4.433  12.032  0.00  0.00    +0.000 A 
ATOM     16  C   UNL     1       7.596   5.166  13.221  0.00  0.00    +0.000 A 
ENDBRANCH   9  11
ENDBRANCH   1   8
BRANCH   4  17
ATOM     17  C   UNL     1       3.069   6.646  18.230  0.00  0.00    +0.000 C 
BRANCH  17  18
ATOM     18  C   UNL     1       2.199   7.710  18.858  0.00  0.00    +0.000 A 
ATOM     19  N   UNL     1       1.714   8.742  18.196  0.00  0.00    +0.000 NA
ATOM     20  C   UNL     1       0.993   9.558  19.050  0.00  0.00    +0.000 A 
ATOM     21  C   UNL     1       0.382  10.779  18.698  0.00  0.00    +0.000 A 
ATOM     22  C   UNL     1      -0.286  11.529  19.670  0.00  0.00    +0.000 A 
ATOM     23  C   UNL     1      -0.355  11.075  20.983  0.00  0.00    +0.000 A 
ATOM     24  C   UNL     1       0.226   9.858  21.354  0.00  0.00    +0.000 A 
ATOM     25  C   UNL     1       0.898   9.112  20.368  0.00  0.00    +0.000 A 
ATOM     26  S   UNL     1       1.717   7.601  20.505  0.00  0.00    +0.000 S 
ENDBRANCH  17  18
ENDBRANCH   4  17
TORSDOF 4
ENDMDL
MODEL 6
REMARK VINA RESULT:      -7.4      4.963      9.157
REMARK  Name = 
REMARK  4 active torsions:
REMARK  status: ('A' for Active; 'I' for Inactive)
REMARK    1  A    between atoms: C_2  and  C_10
REMARK    2  A    between atoms: N_3  and  C_4
REMARK    3  A    between atoms: N_13  and  C_14
REMARK    4  A    between atoms: C_14  and  C_15
REMARK                            x       y       z     vdW  Elec       q    Type
REMARK                         _______ _______ _______ _____ _____    ______ ____
ROOT
ATOM      1  C   UNL     1      -0.726  11.297  20.789  0.00  0.00    +0.000 C 
ATOM      2  C   UNL     1      -0.511  10.516  22.093  0.00  0.00    +0.000 C 
ATOM      3  C   UNL     1       0.703   9.578  22.048  0.00  0.00    +0.000 C 
ATOM      4  N   UNL     1       0.713   8.688  20.869  0.00  0.00    +0.000 NA
ATOM      5  C   UNL     1       0.600   9.477  19.630  0.00  0.00    +0.000 C 
ATOM      6  C   UNL     1      -0.687  10.317  19.621  0.00  0.00    +0.000 C 
ENDROOT
BRANCH   1   8
ATOM      7  O   UNL     1       0.908  12.882  21.548  0.00  0.00    +0.000 OA
ATOM      8  C   UNL     1       0.282  12.432  20.594  0.00  0.00    +0.000 C 
ATOM      9  N   UNL     1       0.348  12.900  19.282  0.00  0.00    +0.000 N 
ATOM     10  H   UNL     1      -0.362  12.597  18.630  0.00  0.00    +0.000 HD
BRANCH   9  11
ATOM     11  C   UNL     1       1.200  13.936  18.839  0.00  0.00    +0.000 A 
ATOM     12  C   UNL     1       2.483  13.670  18.339  0.00  0.00    +0.000 A 
ATOM     13  C   UNL     1       3.347  14.700  17.986  0.00  0.00    +0.000 A 
ATOM     14  C   UNL     1       2.937  16.022  18.116  0.00  0.00    +0.000 A 
ATOM     15  C   UNL     1       1.646  16.304  18.572  0.00  0.00    +0.000 A 
ATOM     16  C   UNL     1       0.777  15.264  18.913  0.00  0.00    +0.000 A 
ENDBRANCH   9  11
ENDBRANCH   1   8
BRANCH   4  17
ATOM     17  C   UNL     1       1.976   7.894  20.916  0.00  0.00    +0.000 C 
BRANCH  17  18
ATOM     18  C   UNL     1       1.964   6.578  20.174  0.00  0.00    +0.000 A 
ATOM     19  N   UNL     1       1.382   5.487  20.630  0.00  0.00    +0.000 NA
ATOM     20  C   UNL     1       1.577   4.439  19.748  0.00  0.00    +0.000 A 
ATOM     21  C   UNL     1       1.143   3.111  19.940  0.00  0.00    +0.000 A 
ATOM     22  C   UNL     1       1.442   2.135  18.985  0.00  0.00    +0.000 A 
ATOM     23  C   UNL     1       2.164   2.467  17.844  0.00  0.00    +0.000 A 
ATOM     24  C   UNL     1       2.590   3.781  17.619  0.00  0.00    +0.000 A 
ATOM     25  C   UNL     1       2.285   4.755  18.588  0.00  0.00    +0.000 A 
ATOM     26  S   UNL     1       2.672   6.435  18.613  0.00  0.00    +0.000 S 
ENDBRANCH  17  18
ENDBRANCH   4  17
TORSDOF 4
ENDMDL
MODEL 7
REMARK VINA RESULT:      -7.4      1.200      1.983
REMARK  Name = 
REMARK  4 active torsions:
REMARK  status: ('A' for Active; 'I' for Inactive)
REMARK    1  A    between atoms: C_2  and  C_10
REMARK    2  A    between atoms: N_3  and  C_4
REMARK    3  A    between atoms: N_13  and  C_14
REMARK    4  A    between atoms: C_14  and  C_15
REMARK                            x       y       z     vdW  Elec       q    Type
REMARK                         _______ _______ _______ _____ _____    ______ ____
ROOT
ATOM      1  C   UNL     1       5.934   4.209  18.177  0.00  0.00    +0.000 C 
ATOM      2  C   UNL     1       4.440   3.898  18.008  0.00  0.00    +0.000 C 
ATOM      3  C   UNL     1       3.623   5.095  17.503  0.00  0.00    +0.000 C 
ATOM      4  N   UNL     1       3.841   6.327  18.289  0.00  0.00    +0.000 NA
ATOM      5  C   UNL     1       5.277   6.649  18.351  0.00  0.00    +0.000 C 
ATOM      6  C   UNL     1       6.078   5.497  18.980  0.00  0.00    +0.000 C 
ENDROOT
BRANCH   1   8
ATOM      7  O   UNL     1       7.898   4.475  16.822  0.00  0.00    +0.000 OA
ATOM      8  C   UNL     1       6.683   4.299  16.845  0.00  0.00    +0.000 C 
ATOM      9  N   UNL     1       5.849   4.223  15.731  0.00  0.00    +0.000 N 
ATOM     10  H   UNL     1       4.851   4.291  15.875  0.00  0.00    +0.000 HD
BRANCH   9  11
ATOM     11  C   UNL     1       6.291   4.278  14.390  0.00  0.00    +0.000 A 
ATOM     12  C   UNL     1       5.770   3.423  13.408  0.00  0.00    +0.000 A 
ATOM     13  C   UNL     1       6.270   3.423  12.112  0.00  0.00    +0.000 A 
ATOM     14  C   UNL     1       7.299   4.294  11.768  0.00  0.00    +0.000 A 
ATOM     15  C   UNL     1       7.801   5.182  12.722  0.00  0.00    +0.000 A 
ATOM     16  C   UNL     1       7.285   5.187  14.021  0.00  0.00    +0.000 A 
ENDBRANCH   9  11
ENDBRANCH   1   8
BRANCH   4  17
ATOM     17  C   UNL     1       3.050   7.417  17.644  0.00  0.00    +0.000 C 
BRANCH  17  18
ATOM     18  C   UNL     1       2.146   8.214  18.557  0.00  0.00    +0.000 A 
ATOM     19  N   UNL     1       1.498   9.298  18.179  0.00  0.00    +0.000 NA
ATOM     20  C   UNL     1       0.790   9.824  19.245  0.00  0.00    +0.000 A 
ATOM     21  C   UNL     1       0.028  11.011  19.220  0.00  0.00    +0.000 A 
ATOM     22  C   UNL     1      -0.609  11.454  20.382  0.00  0.00    +0.000 A 
ATOM     23  C   UNL     1      -0.500  10.728  21.564  0.00  0.00    +0.000 A 
ATOM     24  C   UNL     1       0.233   9.537  21.611  0.00  0.00    +0.000 A 
ATOM     25  C   UNL     1       0.872   9.102  20.436  0.00  0.00    +0.000 A 
ATOM     26  S   UNL     1       1.846   7.704  20.171  0.00  0.00    +0.000 S 
ENDBRANCH  17  18
ENDBRANCH   4  17
TORSDOF 4
ENDMDL
MODEL 8
REMARK VINA RESULT:      -7.3      3.879      6.997
REMARK  Name = 
REMARK  4 active torsions:
REMARK  status: ('A' for Active; 'I' for Inactive)
REMARK    1  A    between atoms: C_2  and  C_10
REMARK    2  A    between atoms: N_3  and  C_4
REMARK    3  A    between atoms: N_13  and  C_14
REMARK    4  A    between atoms: C_14  and  C_15
REMARK                            x       y       z     vdW  Elec       q    Type
REMARK                         _______ _______ _______ _____ _____    ______ ____
ROOT
ATOM      1  C   UNL     1       5.194   5.139  15.857  0.00  0.00    +0.000 C 
ATOM      2  C   UNL     1       6.698   4.833  15.807  0.00  0.00    +0.000 C 
ATOM      3  C   UNL     1       7.479   5.422  16.989  0.00  0.00    +0.000 C 
ATOM      4  N   UNL     1       7.221   6.860  17.204  0.00  0.00    +0.000 NA
ATOM      5  C   UNL     1       5.775   7.106  17.343  0.00  0.00    +0.000 C 
ATOM      6  C   UNL     1       5.008   6.633  16.098  0.00  0.00    +0.000 C 
ENDROOT
BRANCH   1   8
ATOM      7  O   UNL     1       4.769   3.148  17.129  0.00  0.00    +0.000 OA
ATOM      8  C   UNL     1       4.447   4.312  16.905  0.00  0.00    +0.000 C 
ATOM      9  N   UNL     1       3.380   4.990  17.493  0.00  0.00    +0.000 N 
ATOM     10  H   UNL     1       3.083   5.863  17.080  0.00  0.00    +0.000 HD
BRANCH   9  11
ATOM     11  C   UNL     1       2.536   4.452  18.490  0.00  0.00    +0.000 A 
ATOM     12  C   UNL     1       2.646   4.839  19.834  0.00  0.00    +0.000 A 
ATOM     13  C   UNL     1       1.871   4.243  20.821  0.00  0.00    +0.000 A 
ATOM     14  C   UNL     1       0.958   3.251  20.479  0.00  0.00    +0.000 A 
ATOM     15  C   UNL     1       0.806   2.882  19.140  0.00  0.00    +0.000 A 
ATOM     16  C   UNL     1       1.578   3.495  18.149  0.00  0.00    +0.000 A 
ENDBRANCH   9  11
ENDBRANCH   1   8
BRANCH   4  17
ATOM     17  C   UNL     1       7.980   7.276  18.421  0.00  0.00    +0.000 C 
BRANCH  17  18
ATOM     18  C   UNL     1       8.418   8.722  18.471  0.00  0.00    +0.000 A 
ATOM     19  N   UNL     1       9.259   9.200  19.366  0.00  0.00    +0.000 NA
ATOM     20  C   UNL     1       9.431  10.560  19.179  0.00  0.00    +0.000 A 
ATOM     21  C   UNL     1      10.216  11.408  19.987  0.00  0.00    +0.000 A 
ATOM     22  C   UNL     1      10.273  12.777  19.711  0.00  0.00    +0.000 A 
ATOM     23  C   UNL     1       9.561  13.307  18.640  0.00  0.00    +0.000 A 
ATOM     24  C   UNL     1       8.790  12.485  17.811  0.00  0.00    +0.000 A 
ATOM     25  C   UNL     1       8.738  11.109  18.099  0.00  0.00    +0.000 A 
ATOM     26  S   UNL     1       7.883   9.850  17.289  0.00  0.00    +0.000 S 
ENDBRANCH  17  18
ENDBRANCH   4  17
TORSDOF 4
ENDMDL
MODEL 9
REMARK VINA RESULT:      -7.3      2.108      3.362
REMARK  Name = 
REMARK  4 active torsions:
REMARK  status: ('A' for Active; 'I' for Inactive)
REMARK    1  A    between atoms: C_2  and  C_10
REMARK    2  A    between atoms: N_3  and  C_4
REMARK    3  A    between atoms: N_13  and  C_14
REMARK    4  A    between atoms: C_14  and  C_15
REMARK                            x       y       z     vdW  Elec       q    Type
REMARK                         _______ _______ _______ _____ _____    ______ ____
ROOT
ATOM      1  C   UNL     1       2.467   3.035  18.903  0.00  0.00    +0.000 C 
ATOM      2  C   UNL     1       1.302   3.856  18.331  0.00  0.00    +0.000 C 
ATOM      3  C   UNL     1       1.594   5.361  18.261  0.00  0.00    +0.000 C 
ATOM      4  N   UNL     1       2.087   5.923  19.535  0.00  0.00    +0.000 NA
ATOM      5  C   UNL     1       3.263   5.171  20.007  0.00  0.00    +0.000 C 
ATOM      6  C   UNL     1       2.929   3.684  20.203  0.00  0.00    +0.000 C 
ENDROOT
BRANCH   1   8
ATOM      7  O   UNL     1       4.101   1.766  17.686  0.00  0.00    +0.000 OA
ATOM      8  C   UNL     1       3.629   2.875  17.920  0.00  0.00    +0.000 C 
ATOM      9  N   UNL     1       4.092   4.084  17.404  0.00  0.00    +0.000 N 
ATOM     10  H   UNL     1       3.767   4.941  17.829  0.00  0.00    +0.000 HD
BRANCH   9  11
ATOM     11  C   UNL     1       5.151   4.210  16.477  0.00  0.00    +0.000 A 
ATOM     12  C   UNL     1       6.449   4.549  16.885  0.00  0.00    +0.000 A 
ATOM     13  C   UNL     1       7.465   4.755  15.959  0.00  0.00    +0.000 A 
ATOM     14  C   UNL     1       7.203   4.615  14.601  0.00  0.00    +0.000 A 
ATOM     15  C   UNL     1       5.925   4.237  14.179  0.00  0.00    +0.000 A 
ATOM     16  C   UNL     1       4.911   4.017  15.115  0.00  0.00    +0.000 A 
ENDBRANCH   9  11
ENDBRANCH   1   8
BRANCH   4  17
ATOM     17  C   UNL     1       2.400   7.364  19.299  0.00  0.00    +0.000 C 
BRANCH  17  18
ATOM     18  C   UNL     1       1.544   8.362  20.044  0.00  0.00    +0.000 A 
ATOM     19  N   UNL     1       1.234   8.251  21.320  0.00  0.00    +0.000 NA
ATOM     20  C   UNL     1       0.408   9.293  21.702  0.00  0.00    +0.000 A 
ATOM     21  C   UNL     1      -0.164   9.463  22.979  0.00  0.00    +0.000 A 
ATOM     22  C   UNL     1      -1.018  10.543  23.222  0.00  0.00    +0.000 A 
ATOM     23  C   UNL     1      -1.304  11.454  22.211  0.00  0.00    +0.000 A 
ATOM     24  C   UNL     1      -0.734  11.320  20.940  0.00  0.00    +0.000 A 
ATOM     25  C   UNL     1       0.122  10.228  20.706  0.00  0.00    +0.000 A 
ATOM     26  S   UNL     1       0.960   9.781  19.267  0.00  0.00    +0.000 S 
ENDBRANCH  17  18
ENDBRANCH   4  17
TORSDOF 4
ENDMDL
