MODEL 1
REMARK VINA RESULT:      -8.1      0.000      0.000
REMARK  Name = 
REMARK  9 active torsions:
REMARK  status: ('A' for Active; 'I' for Inactive)
REMARK    1  A    between atoms: C_1  and  C_2
REMARK    2  A    between atoms: C_2  and  C_3
REMARK    3  A    between atoms: C_2  and  C_4
REMARK    4  A    between atoms: C_7  and  N_8
REMARK    5  A    between atoms: C_9  and  O_11
REMARK    6  A    between atoms: O_11  and  C_12
REMARK    7  A    between atoms: C_12  and  C_13
REMARK    8  A    between atoms: C_12  and  C_19
REMARK    9  A    between atoms: C_13  and  N_14
REMARK                            x       y       z     vdW  Elec       q    Type
REMARK                         _______ _______ _______ _____ _____    ______ ____
ROOT
ATOM      1  O   UNL     1       2.684   6.466  19.412  0.00  0.00    +0.000 OA
ENDROOT
BRANCH   1   3
ATOM      2  N   UNL     1       1.713   7.950  20.706  0.00  0.00    +0.000 N 
ATOM      3  C   UNL     1       2.168   7.714  19.436  0.00  0.00    +0.000 C 
ATOM      4  O   UNL     1       2.206   8.472  18.480  0.00  0.00    +0.000 OA
ATOM      5  H   UNL     1       2.036   7.279  21.389  0.00  0.00    +0.000 HD
BRANCH   2   9
ATOM      6  C   UNL     1      -0.593  11.180  22.173  0.00  0.00    +0.000 A 
ATOM      7  C   UNL     1      -0.036  11.229  20.886  0.00  0.00    +0.000 A 
ATOM      8  C   UNL     1       0.749  10.180  20.397  0.00  0.00    +0.000 A 
ATOM      9  C   UNL     1       0.977   9.048  21.173  0.00  0.00    +0.000 A 
ATOM     10  C   UNL     1       0.407   8.974  22.451  0.00  0.00    +0.000 A 
ATOM     11  C   UNL     1      -0.361  10.037  22.947  0.00  0.00    +0.000 A 
BRANCH   6  13
ATOM     12  C   UNL     1      -1.745  13.359  21.568  0.00  0.00    +0.000 C 
ATOM     13  C   UNL     1      -1.403  12.363  22.680  0.00  0.00    +0.000 C 
ATOM     14  C   UNL     1      -2.668  11.903  23.407  0.00  0.00    +0.000 C 
ENDBRANCH   6  13
ENDBRANCH   2   9
ENDBRANCH   1   3
BRANCH   1  15
ATOM     15  C   UNL     1       2.761   5.788  18.141  0.00  0.00    +0.000 C 
BRANCH  15  16
ATOM     16  C   UNL     1       4.219   5.355  17.980  0.00  0.00    +0.000 A 
ATOM     17  C   UNL     1       4.706   4.910  16.741  0.00  0.00    +0.000 A 
ATOM     18  C   UNL     1       6.046   4.531  16.603  0.00  0.00    +0.000 A 
ATOM     19  C   UNL     1       6.905   4.611  17.693  0.00  0.00    +0.000 A 
ATOM     20  F   UNL     1       8.190   4.262  17.553  0.00  0.00    +0.000 F 
ATOM     21  C   UNL     1       6.452   5.048  18.926  0.00  0.00    +0.000 A 
ATOM     22  C   UNL     1       5.115   5.407  19.070  0.00  0.00    +0.000 A 
ENDBRANCH  15  16
BRANCH  15  23
ATOM     23  C   UNL     1       1.742   4.637  18.022  0.00  0.00    +0.000 C 
BRANCH  23  24
ATOM     24  N   UNL     1       1.683   3.773  19.187  0.00  0.00    +0.000 N 
ATOM     25  C   UNL     1       2.350   2.593  19.369  0.00  0.00    +0.000 A 
ATOM     26  C   UNL     1       2.053   2.219  20.659  0.00  0.00    +0.000 A 
ATOM     27  N   UNL     1       1.154   3.087  21.222  0.00  0.00    +0.000 NA
ATOM     28  C   UNL     1       0.926   3.996  20.301  0.00  0.00    +0.000 A 
ENDBRANCH  23  24
ENDBRANCH  15  23
ENDBRANCH   1  15
TORSDOF 7
ENDMDL
MODEL 2
REMARK VINA RESULT:      -8.1      0.611      1.486
REMARK  Name = 
REMARK  9 active torsions:
REMARK  status: ('A' for Active; 'I' for Inactive)
REMARK    1  A    between atoms: C_1  and  C_2
REMARK    2  A    between atoms: C_2  and  C_3
REMARK    3  A    between atoms: C_2  and  C_4
REMARK    4  A    between atoms: C_7  and  N_8
REMARK    5  A    between atoms: C_9  and  O_11
REMARK    6  A    between atoms: O_11  and  C_12
REMARK    7  A    between atoms: C_12  and  C_13
REMARK    8  A    between atoms: C_12  and  C_19
REMARK    9  A    between atoms: C_13  and  N_14
REMARK                            x       y       z     vdW  Elec       q    Type
REMARK                         _______ _______ _______ _____ _____    ______ ____
ROOT
ATOM      1  O   UNL     1       2.779   6.556  19.639  0.00  0.00    +0.000 OA
ENDROOT
BRANCH   1   3
ATOM      2  N   UNL     1       1.650   7.959  20.892  0.00  0.00    +0.000 N 
ATOM      3  C   UNL     1       2.075   7.708  19.615  0.00  0.00    +0.000 C 
ATOM      4  O   UNL     1       1.947   8.393  18.614  0.00  0.00    +0.000 OA
ATOM      5  H   UNL     1       2.108   7.396  21.596  0.00  0.00    +0.000 HD
BRANCH   2   9
ATOM      6  C   UNL     1      -0.933  11.070  22.141  0.00  0.00    +0.000 A 
ATOM      7  C   UNL     1      -0.447  10.133  23.066  0.00  0.00    +0.000 A 
ATOM      8  C   UNL     1       0.388   9.085  22.664  0.00  0.00    +0.000 A 
ATOM      9  C   UNL     1       0.773   8.961  21.333  0.00  0.00    +0.000 A 
ATOM     10  C   UNL     1       0.315   9.903  20.402  0.00  0.00    +0.000 A 
ATOM     11  C   UNL     1      -0.540  10.939  20.804  0.00  0.00    +0.000 A 
BRANCH   6  13
ATOM     12  C   UNL     1      -1.127  13.379  23.175  0.00  0.00    +0.000 C 
ATOM     13  C   UNL     1      -1.874  12.165  22.615  0.00  0.00    +0.000 C 
ATOM     14  C   UNL     1      -2.844  12.587  21.509  0.00  0.00    +0.000 C 
ENDBRANCH   6  13
ENDBRANCH   2   9
ENDBRANCH   1   3
BRANCH   1  15
ATOM     15  C   UNL     1       2.740   5.712  18.469  0.00  0.00    +0.000 C 
BRANCH  15  16
ATOM     16  C   UNL     1       4.194   5.359  18.153  0.00  0.00    +0.000 A 
ATOM     17  C   UNL     1       5.194   5.478  19.131  0.00  0.00    +0.000 A 
ATOM     18  C   UNL     1       6.517   5.138  18.834  0.00  0.00    +0.000 A 
ATOM     19  C   UNL     1       6.845   4.664  17.568  0.00  0.00    +0.000 A 
ATOM     20  F   UNL     1       8.110   4.325  17.293  0.00  0.00    +0.000 F 
ATOM     21  C   UNL     1       5.878   4.534  16.585  0.00  0.00    +0.000 A 
ATOM     22  C   UNL     1       4.564   4.890  16.874  0.00  0.00    +0.000 A 
ENDBRANCH  15  16
BRANCH  15  23
ATOM     23  C   UNL     1       1.817   4.490  18.653  0.00  0.00    +0.000 C 
BRANCH  23  24
ATOM     24  N   UNL     1       2.072   3.729  19.862  0.00  0.00    +0.000 N 
ATOM     25  C   UNL     1       2.892   2.642  19.989  0.00  0.00    +0.000 A 
ATOM     26  C   UNL     1       2.882   2.352  21.334  0.00  0.00    +0.000 A 
ATOM     27  N   UNL     1       2.008   3.172  22.002  0.00  0.00    +0.000 NA
ATOM     28  C   UNL     1       1.513   3.971  21.083  0.00  0.00    +0.000 A 
ENDBRANCH  23  24
ENDBRANCH  15  23
ENDBRANCH   1  15
TORSDOF 7
ENDMDL
MODEL 3
REMARK VINA RESULT:      -8.1      0.461      1.091
REMARK  Name = 
REMARK  9 active torsions:
REMARK  status: ('A' for Active; 'I' for Inactive)
REMARK    1  A    between atoms: C_1  and  C_2
REMARK    2  A    between atoms: C_2  and  C_3
REMARK    3  A    between atoms: C_2  and  C_4
REMARK    4  A    between atoms: C_7  and  N_8
REMARK    5  A    between atoms: C_9  and  O_11
REMARK    6  A    between atoms: O_11  and  C_12
REMARK    7  A    between atoms: C_12  and  C_13
REMARK    8  A    between atoms: C_12  and  C_19
REMARK    9  A    between atoms: C_13  and  N_14
REMARK                            x       y       z     vdW  Elec       q    Type
REMARK                         _______ _______ _______ _____ _____    ______ ____
ROOT
ATOM      1  O   UNL     1       2.867   6.583  19.349  0.00  0.00    +0.000 OA
ENDROOT
BRANCH   1   3
ATOM      2  N   UNL     1       1.750   7.958  20.644  0.00  0.00    +0.000 N 
ATOM      3  C   UNL     1       2.135   7.718  19.352  0.00  0.00    +0.000 C 
ATOM      4  O   UNL     1       1.955   8.400  18.357  0.00  0.00    +0.000 OA
ATOM      5  H   UNL     1       2.245   7.405  21.330  0.00  0.00    +0.000 HD
BRANCH   2   9
ATOM      6  C   UNL     1      -0.862  11.004  21.988  0.00  0.00    +0.000 A 
ATOM      7  C   UNL     1      -0.322  10.078  22.893  0.00  0.00    +0.000 A 
ATOM      8  C   UNL     1       0.523   9.051  22.460  0.00  0.00    +0.000 A 
ATOM      9  C   UNL     1       0.865   8.938  21.117  0.00  0.00    +0.000 A 
ATOM     10  C   UNL     1       0.353   9.870  20.204  0.00  0.00    +0.000 A 
ATOM     11  C   UNL     1      -0.512  10.885  20.638  0.00  0.00    +0.000 A 
BRANCH   6  13
ATOM     12  C   UNL     1      -1.075  13.255  23.139  0.00  0.00    +0.000 C 
ATOM     13  C   UNL     1      -1.812  12.076  22.497  0.00  0.00    +0.000 C 
ATOM     14  C   UNL     1      -2.753  12.560  21.392  0.00  0.00    +0.000 C 
ENDBRANCH   6  13
ENDBRANCH   2   9
ENDBRANCH   1   3
BRANCH   1  15
ATOM     15  C   UNL     1       2.899   5.798  18.138  0.00  0.00    +0.000 C 
BRANCH  15  16
ATOM     16  C   UNL     1       4.351   5.351  17.961  0.00  0.00    +0.000 A 
ATOM     17  C   UNL     1       4.787   4.781  16.755  0.00  0.00    +0.000 A 
ATOM     18  C   UNL     1       6.121   4.390  16.601  0.00  0.00    +0.000 A 
ATOM     19  C   UNL     1       7.026   4.581  17.639  0.00  0.00    +0.000 A 
ATOM     20  F   UNL     1       8.304   4.219  17.481  0.00  0.00    +0.000 F 
ATOM     21  C   UNL     1       6.623   5.143  18.839  0.00  0.00    +0.000 A 
ATOM     22  C   UNL     1       5.291   5.516  19.002  0.00  0.00    +0.000 A 
ENDBRANCH  15  16
BRANCH  15  23
ATOM     23  C   UNL     1       1.878   4.643  18.156  0.00  0.00    +0.000 C 
BRANCH  23  24
ATOM     24  N   UNL     1       1.880   3.867  19.382  0.00  0.00    +0.000 N 
ATOM     25  C   UNL     1       2.752   2.870  19.721  0.00  0.00    +0.000 A 
ATOM     26  C   UNL     1       2.411   2.528  21.009  0.00  0.00    +0.000 A 
ATOM     27  N   UNL     1       1.301   3.223  21.417  0.00  0.00    +0.000 NA
ATOM     28  C   UNL     1       0.986   3.999  20.405  0.00  0.00    +0.000 A 
ENDBRANCH  23  24
ENDBRANCH  15  23
ENDBRANCH   1  15
TORSDOF 7
ENDMDL
MODEL 4
REMARK VINA RESULT:      -8.0      1.057      1.428
REMARK  Name = 
REMARK  9 active torsions:
REMARK  status: ('A' for Active; 'I' for Inactive)
REMARK    1  A    between atoms: C_1  and  C_2
REMARK    2  A    between atoms: C_2  and  C_3
REMARK    3  A    between atoms: C_2  and  C_4
REMARK    4  A    between atoms: C_7  and  N_8
REMARK    5  A    between atoms: C_9  and  O_11
REMARK    6  A    between atoms: O_11  and  C_12
REMARK    7  A    between atoms: C_12  and  C_13
REMARK    8  A    between atoms: C_12  and  C_19
REMARK    9  A    between atoms: C_13  and  N_14
REMARK                            x       y       z     vdW  Elec       q    Type
REMARK                         _______ _______ _______ _____ _____    ______ ____
ROOT
ATOM      1  O   UNL     1       2.398   6.258  19.897  0.00  0.00    +0.000 OA
ENDROOT
BRANCH   1   3
ATOM      2  N   UNL     1       1.496   7.835  21.128  0.00  0.00    +0.000 N 
ATOM      3  C   UNL     1       1.939   7.528  19.869  0.00  0.00    +0.000 C 
ATOM      4  O   UNL     1       2.011   8.243  18.883  0.00  0.00    +0.000 OA
ATOM      5  H   UNL     1       1.789   7.179  21.838  0.00  0.00    +0.000 HD
BRANCH   2   9
ATOM      6  C   UNL     1      -0.673  11.224  22.438  0.00  0.00    +0.000 A 
ATOM      7  C   UNL     1       0.064  11.268  21.245  0.00  0.00    +0.000 A 
ATOM      8  C   UNL     1       0.806  10.164  20.812  0.00  0.00    +0.000 A 
ATOM      9  C   UNL     1       0.811   8.984  21.549  0.00  0.00    +0.000 A 
ATOM     10  C   UNL     1       0.060   8.917  22.730  0.00  0.00    +0.000 A 
ATOM     11  C   UNL     1      -0.664  10.033  23.174  0.00  0.00    +0.000 A 
BRANCH   6  13
ATOM     12  C   UNL     1      -1.448  13.561  21.828  0.00  0.00    +0.000 C 
ATOM     13  C   UNL     1      -1.428  12.462  22.893  0.00  0.00    +0.000 C 
ATOM     14  C   UNL     1      -2.849  12.116  23.345  0.00  0.00    +0.000 C 
ENDBRANCH   6  13
ENDBRANCH   2   9
ENDBRANCH   1   3
BRANCH   1  15
ATOM     15  C   UNL     1       2.704   5.619  18.640  0.00  0.00    +0.000 C 
BRANCH  15  16
ATOM     16  C   UNL     1       4.185   5.895  18.374  0.00  0.00    +0.000 A 
ATOM     17  C   UNL     1       5.181   5.324  19.183  0.00  0.00    +0.000 A 
ATOM     18  C   UNL     1       6.532   5.573  18.921  0.00  0.00    +0.000 A 
ATOM     19  C   UNL     1       6.894   6.375  17.845  0.00  0.00    +0.000 A 
ATOM     20  F   UNL     1       8.189   6.598  17.589  0.00  0.00    +0.000 F 
ATOM     21  C   UNL     1       5.933   6.949  17.030  0.00  0.00    +0.000 A 
ATOM     22  C   UNL     1       4.587   6.719  17.301  0.00  0.00    +0.000 A 
ENDBRANCH  15  16
BRANCH  15  23
ATOM     23  C   UNL     1       2.327   4.124  18.629  0.00  0.00    +0.000 C 
BRANCH  23  24
ATOM     24  N   UNL     1       2.178   3.540  19.949  0.00  0.00    +0.000 N 
ATOM     25  C   UNL     1       1.037   3.490  20.701  0.00  0.00    +0.000 A 
ATOM     26  C   UNL     1       1.379   2.748  21.808  0.00  0.00    +0.000 A 
ATOM     27  N   UNL     1       2.713   2.433  21.788  0.00  0.00    +0.000 NA
ATOM     28  C   UNL     1       3.175   2.950  20.671  0.00  0.00    +0.000 A 
ENDBRANCH  23  24
ENDBRANCH  15  23
ENDBRANCH   1  15
TORSDOF 7
ENDMDL
MODEL 5
REMARK VINA RESULT:      -7.9      0.535      1.193
REMARK  Name = 
REMARK  9 active torsions:
REMARK  status: ('A' for Active; 'I' for Inactive)
REMARK    1  A    between atoms: C_1  and  C_2
REMARK    2  A    between atoms: C_2  and  C_3
REMARK    3  A    between atoms: C_2  and  C_4
REMARK    4  A    between atoms: C_7  and  N_8
REMARK    5  A    between atoms: C_9  and  O_11
REMARK    6  A    between atoms: O_11  and  C_12
REMARK    7  A    between atoms: C_12  and  C_13
REMARK    8  A    between atoms: C_12  and  C_19
REMARK    9  A    between atoms: C_13  and  N_14
REMARK                            x       y       z     vdW  Elec       q    Type
REMARK                         _______ _______ _______ _____ _____    ______ ____
ROOT
ATOM      1  O   UNL     1       2.732   6.397  19.399  0.00  0.00    +0.000 OA
ENDROOT
BRANCH   1   3
ATOM      2  N   UNL     1       1.841   7.923  20.701  0.00  0.00    +0.000 N 
ATOM      3  C   UNL     1       2.144   7.613  19.402  0.00  0.00    +0.000 C 
ATOM      4  O   UNL     1       2.012   8.294  18.399  0.00  0.00    +0.000 OA
ATOM      5  H   UNL     1       2.291   7.326  21.382  0.00  0.00    +0.000 HD
BRANCH   2   9
ATOM      6  C   UNL     1      -0.467  11.128  22.220  0.00  0.00    +0.000 A 
ATOM      7  C   UNL     1      -0.011  11.145  20.893  0.00  0.00    +0.000 A 
ATOM      8  C   UNL     1       0.774  10.105  20.384  0.00  0.00    +0.000 A 
ATOM      9  C   UNL     1       1.102   9.014  21.182  0.00  0.00    +0.000 A 
ATOM     10  C   UNL     1       0.634   8.971  22.502  0.00  0.00    +0.000 A 
ATOM     11  C   UNL     1      -0.134  10.027  23.016  0.00  0.00    +0.000 A 
BRANCH   6  13
ATOM     12  C   UNL     1      -1.217  13.518  21.814  0.00  0.00    +0.000 C 
ATOM     13  C   UNL     1      -1.279  12.302  22.742  0.00  0.00    +0.000 C 
ATOM     14  C   UNL     1      -2.730  11.900  23.016  0.00  0.00    +0.000 C 
ENDBRANCH   6  13
ENDBRANCH   2   9
ENDBRANCH   1   3
BRANCH   1  15
ATOM     15  C   UNL     1       2.711   5.636  18.173  0.00  0.00    +0.000 C 
BRANCH  15  16
ATOM     16  C   UNL     1       4.171   5.307  17.856  0.00  0.00    +0.000 A 
ATOM     17  C   UNL     1       5.211   5.783  18.670  0.00  0.00    +0.000 A 
ATOM     18  C   UNL     1       6.540   5.462  18.377  0.00  0.00    +0.000 A 
ATOM     19  C   UNL     1       6.835   4.655  17.284  0.00  0.00    +0.000 A 
ATOM     20  F   UNL     1       8.108   4.339  17.017  0.00  0.00    +0.000 F 
ATOM     21  C   UNL     1       5.829   4.170  16.466  0.00  0.00    +0.000 A 
ATOM     22  C   UNL     1       4.507   4.504  16.744  0.00  0.00    +0.000 A 
ENDBRANCH  15  16
BRANCH  15  23
ATOM     23  C   UNL     1       1.788   4.405  18.257  0.00  0.00    +0.000 C 
BRANCH  23  24
ATOM     24  N   UNL     1       1.851   3.700  19.524  0.00  0.00    +0.000 N 
ATOM     25  C   UNL     1       0.929   3.739  20.533  0.00  0.00    +0.000 A 
ATOM     26  C   UNL     1       1.384   2.829  21.459  0.00  0.00    +0.000 A 
ATOM     27  N   UNL     1       2.598   2.316  21.080  0.00  0.00    +0.000 NA
ATOM     28  C   UNL     1       2.868   2.882  19.925  0.00  0.00    +0.000 A 
ENDBRANCH  23  24
ENDBRANCH  15  23
ENDBRANCH   1  15
TORSDOF 7
ENDMDL
MODEL 6
REMARK VINA RESULT:      -7.9      1.077      1.545
REMARK  Name = 
REMARK  9 active torsions:
REMARK  status: ('A' for Active; 'I' for Inactive)
REMARK    1  A    between atoms: C_1  and  C_2
REMARK    2  A    between atoms: C_2  and  C_3
REMARK    3  A    between atoms: C_2  and  C_4
REMARK    4  A    between atoms: C_7  and  N_8
REMARK    5  A    between atoms: C_9  and  O_11
REMARK    6  A    between atoms: O_11  and  C_12
REMARK    7  A    between atoms: C_12  and  C_13
REMARK    8  A    between atoms: C_12  and  C_19
REMARK    9  A    between atoms: C_13  and  N_14
REMARK                            x       y       z     vdW  Elec       q    Type
REMARK                         _______ _______ _______ _____ _____    ______ ____
ROOT
ATOM      1  O   UNL     1       2.844   6.356  19.175  0.00  0.00    +0.000 OA
ENDROOT
BRANCH   1   3
ATOM      2  N   UNL     1       1.757   7.713  20.515  0.00  0.00    +0.000 N 
ATOM      3  C   UNL     1       2.297   7.588  19.263  0.00  0.00    +0.000 C 
ATOM      4  O   UNL     1       2.376   8.419  18.373  0.00  0.00    +0.000 OA
ATOM      5  H   UNL     1       2.054   6.997  21.163  0.00  0.00    +0.000 HD
BRANCH   2   9
ATOM      6  C   UNL     1      -0.569  10.945  21.946  0.00  0.00    +0.000 A 
ATOM      7  C   UNL     1      -0.064   9.983  22.834  0.00  0.00    +0.000 A 
ATOM      8  C   UNL     1       0.685   8.895  22.373  0.00  0.00    +0.000 A 
ATOM      9  C   UNL     1       0.966   8.757  21.017  0.00  0.00    +0.000 A 
ATOM     10  C   UNL     1       0.489   9.722  20.122  0.00  0.00    +0.000 A 
ATOM     11  C   UNL     1      -0.281  10.799  20.584  0.00  0.00    +0.000 A 
BRANCH   6  13
ATOM     12  C   UNL     1      -0.621  13.382  22.649  0.00  0.00    +0.000 C 
ATOM     13  C   UNL     1      -1.417  12.085  22.487  0.00  0.00    +0.000 C 
ATOM     14  C   UNL     1      -2.661  12.314  21.626  0.00  0.00    +0.000 C 
ENDBRANCH   6  13
ENDBRANCH   2   9
ENDBRANCH   1   3
BRANCH   1  15
ATOM     15  C   UNL     1       2.588   5.582  17.985  0.00  0.00    +0.000 C 
BRANCH  15  16
ATOM     16  C   UNL     1       3.954   5.318  17.350  0.00  0.00    +0.000 A 
ATOM     17  C   UNL     1       4.229   4.096  16.715  0.00  0.00    +0.000 A 
ATOM     18  C   UNL     1       5.477   3.872  16.125  0.00  0.00    +0.000 A 
ATOM     19  C   UNL     1       6.446   4.869  16.151  0.00  0.00    +0.000 A 
ATOM     20  F   UNL     1       7.633   4.656  15.572  0.00  0.00    +0.000 F 
ATOM     21  C   UNL     1       6.201   6.084  16.768  0.00  0.00    +0.000 A 
ATOM     22  C   UNL     1       4.966   6.301  17.373  0.00  0.00    +0.000 A 
ENDBRANCH  15  16
BRANCH  15  23
ATOM     23  C   UNL     1       1.766   4.310  18.274  0.00  0.00    +0.000 C 
BRANCH  23  24
ATOM     24  N   UNL     1       1.968   3.760  19.601  0.00  0.00    +0.000 N 
ATOM     25  C   UNL     1       1.122   3.867  20.671  0.00  0.00    +0.000 A 
ATOM     26  C   UNL     1       1.701   3.095  21.652  0.00  0.00    +0.000 A 
ATOM     27  N   UNL     1       2.913   2.609  21.237  0.00  0.00    +0.000 NA
ATOM     28  C   UNL     1       3.061   3.051  20.008  0.00  0.00    +0.000 A 
ENDBRANCH  23  24
ENDBRANCH  15  23
ENDBRANCH   1  15
TORSDOF 7
ENDMDL
MODEL 7
REMARK VINA RESULT:      -7.9      0.756      1.253
REMARK  Name = 
REMARK  9 active torsions:
REMARK  status: ('A' for Active; 'I' for Inactive)
REMARK    1  A    between atoms: C_1  and  C_2
REMARK    2  A    between atoms: C_2  and  C_3
REMARK    3  A    between atoms: C_2  and  C_4
REMARK    4  A    between atoms: C_7  and  N_8
REMARK    5  A    between atoms: C_9  and  O_11
REMARK    6  A    between atoms: O_11  and  C_12
REMARK    7  A    between atoms: C_12  and  C_13
REMARK    8  A    between atoms: C_12  and  C_19
REMARK    9  A    between atoms: C_13  and  N_14
REMARK                            x       y       z     vdW  Elec       q    Type
REMARK                         _______ _______ _______ _____ _____    ______ ____
ROOT
ATOM      1  O   UNL     1       2.476   6.670  19.465  0.00  0.00    +0.000 OA
ENDROOT
BRANCH   1   3
ATOM      2  N   UNL     1       1.588   8.104  20.869  0.00  0.00    +0.000 N 
ATOM      3  C   UNL     1       1.938   7.905  19.560  0.00  0.00    +0.000 C 
ATOM      4  O   UNL     1       1.878   8.682  18.622  0.00  0.00    +0.000 OA
ATOM      5  H   UNL     1       1.982   7.427  21.507  0.00  0.00    +0.000 HD
BRANCH   2   9
ATOM      6  C   UNL     1      -0.676  11.253  22.563  0.00  0.00    +0.000 A 
ATOM      7  C   UNL     1       0.077  11.463  21.398  0.00  0.00    +0.000 A 
ATOM      8  C   UNL     1       0.850  10.440  20.840  0.00  0.00    +0.000 A 
ATOM      9  C   UNL     1       0.870   9.175  21.421  0.00  0.00    +0.000 A 
ATOM     10  C   UNL     1       0.105   8.943  22.571  0.00  0.00    +0.000 A 
ATOM     11  C   UNL     1      -0.651   9.978  23.141  0.00  0.00    +0.000 A 
BRANCH   6  13
ATOM     12  C   UNL     1      -0.904  13.773  22.752  0.00  0.00    +0.000 C 
ATOM     13  C   UNL     1      -1.465  12.407  23.158  0.00  0.00    +0.000 C 
ATOM     14  C   UNL     1      -2.952  12.305  22.812  0.00  0.00    +0.000 C 
ENDBRANCH   6  13
ENDBRANCH   2   9
ENDBRANCH   1   3
BRANCH   1  15
ATOM     15  C   UNL     1       2.639   6.100  18.150  0.00  0.00    +0.000 C 
BRANCH  15  16
ATOM     16  C   UNL     1       4.102   5.663  18.055  0.00  0.00    +0.000 A 
ATOM     17  C   UNL     1       4.865   5.446  19.213  0.00  0.00    +0.000 A 
ATOM     18  C   UNL     1       6.197   5.032  19.114  0.00  0.00    +0.000 A 
ATOM     19  C   UNL     1       6.766   4.819  17.863  0.00  0.00    +0.000 A 
ATOM     20  F   UNL     1       8.037   4.410  17.773  0.00  0.00    +0.000 F 
ATOM     21  C   UNL     1       6.036   5.025  16.705  0.00  0.00    +0.000 A 
ATOM     22  C   UNL     1       4.716   5.454  16.802  0.00  0.00    +0.000 A 
ENDBRANCH  15  16
BRANCH  15  23
ATOM     23  C   UNL     1       1.623   4.976  17.864  0.00  0.00    +0.000 C 
BRANCH  23  24
ATOM     24  N   UNL     1       1.995   3.685  18.411  0.00  0.00    +0.000 N 
ATOM     25  C   UNL     1       2.582   2.647  17.740  0.00  0.00    +0.000 A 
ATOM     26  C   UNL     1       2.832   1.701  18.707  0.00  0.00    +0.000 A 
ATOM     27  N   UNL     1       2.326   2.100  19.918  0.00  0.00    +0.000 NA
ATOM     28  C   UNL     1       1.801   3.285  19.702  0.00  0.00    +0.000 A 
ENDBRANCH  23  24
ENDBRANCH  15  23
ENDBRANCH   1  15
TORSDOF 7
ENDMDL
MODEL 8
REMARK VINA RESULT:      -7.8      3.082      8.520
REMARK  Name = 
REMARK  9 active torsions:
REMARK  status: ('A' for Active; 'I' for Inactive)
REMARK    1  A    between atoms: C_1  and  C_2
REMARK    2  A    between atoms: C_2  and  C_3
REMARK    3  A    between atoms: C_2  and  C_4
REMARK    4  A    between atoms: C_7  and  N_8
REMARK    5  A    between atoms: C_9  and  O_11
REMARK    6  A    between atoms: O_11  and  C_12
REMARK    7  A    between atoms: C_12  and  C_13
REMARK    8  A    between atoms: C_12  and  C_19
REMARK    9  A    between atoms: C_13  and  N_14
REMARK                            x       y       z     vdW  Elec       q    Type
REMARK                         _______ _______ _______ _____ _____    ______ ____
ROOT
ATOM      1  O   UNL     1       4.289   5.967  19.777  0.00  0.00    +0.000 OA
ENDROOT
BRANCH   1   3
ATOM      2  N   UNL     1       4.998   5.841  17.704  0.00  0.00    +0.000 N 
ATOM      3  C   UNL     1       5.022   5.219  18.924  0.00  0.00    +0.000 C 
ATOM      4  O   UNL     1       5.634   4.221  19.266  0.00  0.00    +0.000 OA
ATOM      5  H   UNL     1       4.653   6.791  17.733  0.00  0.00    +0.000 HD
BRANCH   2   9
ATOM      6  C   UNL     1       6.435   4.305  14.032  0.00  0.00    +0.000 A 
ATOM      7  C   UNL     1       7.278   5.047  14.873  0.00  0.00    +0.000 A 
ATOM      8  C   UNL     1       6.811   5.583  16.078  0.00  0.00    +0.000 A 
ATOM      9  C   UNL     1       5.497   5.370  16.481  0.00  0.00    +0.000 A 
ATOM     10  C   UNL     1       4.649   4.610  15.664  0.00  0.00    +0.000 A 
ATOM     11  C   UNL     1       5.115   4.094  14.446  0.00  0.00    +0.000 A 
BRANCH   6  13
ATOM     12  C   UNL     1       5.947   2.938  11.951  0.00  0.00    +0.000 C 
ATOM     13  C   UNL     1       6.974   3.781  12.711  0.00  0.00    +0.000 C 
ATOM     14  C   UNL     1       7.501   4.918  11.832  0.00  0.00    +0.000 C 
ENDBRANCH   6  13
ENDBRANCH   2   9
ENDBRANCH   1   3
BRANCH   1  15
ATOM     15  C   UNL     1       2.941   6.309  19.396  0.00  0.00    +0.000 C 
BRANCH  15  16
ATOM     16  C   UNL     1       2.198   4.982  19.233  0.00  0.00    +0.000 A 
ATOM     17  C   UNL     1       1.783   4.246  20.354  0.00  0.00    +0.000 A 
ATOM     18  C   UNL     1       1.091   3.041  20.192  0.00  0.00    +0.000 A 
ATOM     19  C   UNL     1       0.797   2.576  18.915  0.00  0.00    +0.000 A 
ATOM     20  F   UNL     1       0.122   1.430  18.765  0.00  0.00    +0.000 F 
ATOM     21  C   UNL     1       1.193   3.282  17.792  0.00  0.00    +0.000 A 
ATOM     22  C   UNL     1       1.898   4.472  17.951  0.00  0.00    +0.000 A 
ENDBRANCH  15  16
BRANCH  15  23
ATOM     23  C   UNL     1       2.277   7.289  20.383  0.00  0.00    +0.000 C 
BRANCH  23  24
ATOM     24  N   UNL     1       1.639   8.428  19.751  0.00  0.00    +0.000 N 
ATOM     25  C   UNL     1       1.786   8.836  18.454  0.00  0.00    +0.000 A 
ATOM     26  C   UNL     1       0.902   9.881  18.313  0.00  0.00    +0.000 A 
ATOM     27  N   UNL     1       0.300  10.173  19.511  0.00  0.00    +0.000 NA
ATOM     28  C   UNL     1       0.787   9.300  20.365  0.00  0.00    +0.000 A 
ENDBRANCH  23  24
ENDBRANCH  15  23
ENDBRANCH   1  15
TORSDOF 7
ENDMDL
MODEL 9
REMARK VINA RESULT:      -7.8      1.771      2.569
REMARK  Name = 
REMARK  9 active torsions:
REMARK  status: ('A' for Active; 'I' for Inactive)
REMARK    1  A    between atoms: C_1  and  C_2
REMARK    2  A    between atoms: C_2  and  C_3
REMARK    3  A    between atoms: C_2  and  C_4
REMARK    4  A    between atoms: C_7  and  N_8
REMARK    5  A    between atoms: C_9  and  O_11
REMARK    6  A    between atoms: O_11  and  C_12
REMARK    7  A    between atoms: C_12  and  C_13
REMARK    8  A    between atoms: C_12  and  C_19
REMARK    9  A    between atoms: C_13  and  N_14
REMARK                            x       y       z     vdW  Elec       q    Type
REMARK                         _______ _______ _______ _____ _____    ______ ____
ROOT
ATOM      1  O   UNL     1       3.825   5.105  18.104  0.00  0.00    +0.000 OA
ENDROOT
BRANCH   1   3
ATOM      2  N   UNL     1       2.979   6.983  18.863  0.00  0.00    +0.000 N 
ATOM      3  C   UNL     1       2.675   5.800  18.245  0.00  0.00    +0.000 C 
ATOM      4  O   UNL     1       1.604   5.416  17.804  0.00  0.00    +0.000 OA
ATOM      5  H   UNL     1       3.967   7.193  18.885  0.00  0.00    +0.000 HD
BRANCH   2   9
ATOM      6  C   UNL     1       0.254   9.844  20.377  0.00  0.00    +0.000 A 
ATOM      7  C   UNL     1       0.679   9.903  19.041  0.00  0.00    +0.000 A 
ATOM      8  C   UNL     1       1.599   8.979  18.533  0.00  0.00    +0.000 A 
ATOM      9  C   UNL     1       2.097   7.963  19.342  0.00  0.00    +0.000 A 
ATOM     10  C   UNL     1       1.663   7.877  20.671  0.00  0.00    +0.000 A 
ATOM     11  C   UNL     1       0.758   8.818  21.184  0.00  0.00    +0.000 A 
BRANCH   6  13
ATOM     12  C   UNL     1      -0.804  10.903  22.426  0.00  0.00    +0.000 C 
ATOM     13  C   UNL     1      -0.712  10.896  20.897  0.00  0.00    +0.000 C 
ATOM     14  C   UNL     1      -0.361  12.289  20.367  0.00  0.00    +0.000 C 
ENDBRANCH   6  13
ENDBRANCH   2   9
ENDBRANCH   1   3
BRANCH   1  15
ATOM     15  C   UNL     1       3.849   4.016  17.158  0.00  0.00    +0.000 C 
BRANCH  15  16
ATOM     16  C   UNL     1       5.003   4.313  16.200  0.00  0.00    +0.000 A 
ATOM     17  C   UNL     1       4.947   3.910  14.856  0.00  0.00    +0.000 A 
ATOM     18  C   UNL     1       6.002   4.201  13.987  0.00  0.00    +0.000 A 
ATOM     19  C   UNL     1       7.107   4.908  14.448  0.00  0.00    +0.000 A 
ATOM     20  F   UNL     1       8.108   5.197  13.608  0.00  0.00    +0.000 F 
ATOM     21  C   UNL     1       7.188   5.319  15.767  0.00  0.00    +0.000 A 
ATOM     22  C   UNL     1       6.147   5.014  16.639  0.00  0.00    +0.000 A 
ENDBRANCH  15  16
BRANCH  15  23
ATOM     23  C   UNL     1       3.935   2.639  17.845  0.00  0.00    +0.000 C 
BRANCH  23  24
ATOM     24  N   UNL     1       3.237   2.564  19.115  0.00  0.00    +0.000 N 
ATOM     25  C   UNL     1       3.787   2.681  20.362  0.00  0.00    +0.000 A 
ATOM     26  C   UNL     1       2.714   2.650  21.223  0.00  0.00    +0.000 A 
ATOM     27  N   UNL     1       1.548   2.422  20.538  0.00  0.00    +0.000 NA
ATOM     28  C   UNL     1       1.899   2.344  19.273  0.00  0.00    +0.000 A 
ENDBRANCH  23  24
ENDBRANCH  15  23
ENDBRANCH   1  15
TORSDOF 7
ENDMDL
