MODEL 1
REMARK VINA RESULT:      -7.3      0.000      0.000
REMARK  Name = 
REMARK  6 active torsions:
REMARK  status: ('A' for Active; 'I' for Inactive)
REMARK    1  A    between atoms: C_1  and  C_2
REMARK    2  A    between atoms: C_2  and  N_3
REMARK    3  A    between atoms: N_3  and  C_4
REMARK    4  A    between atoms: C_4  and  C_5
REMARK    5  A    between atoms: C_9  and  C_11
REMARK    6  A    between atoms: N_13  and  C_14
REMARK                            x       y       z     vdW  Elec       q    Type
REMARK                         _______ _______ _______ _____ _____    ______ ____
ROOT
ATOM      1  C   UNL     1       5.503   4.517  19.215  0.00  0.00    +0.000 C 
ATOM      2  O   UNL     1       5.667   3.305  19.145  0.00  0.00    +0.000 OA
ATOM      3  N   UNL     1       4.306   5.185  19.308  0.00  0.00    +0.000 N 
ATOM      4  H   UNL     1       4.318   6.148  18.976  0.00  0.00    +0.000 HD
ENDROOT
BRANCH   3   5
ATOM      5  C   UNL     1       3.059   4.549  19.466  0.00  0.00    +0.000 A 
ATOM      6  C   UNL     1       2.388   4.568  20.697  0.00  0.00    +0.000 A 
ATOM      7  C   UNL     1       1.143   3.951  20.831  0.00  0.00    +0.000 A 
ATOM      8  C   UNL     1       0.573   3.289  19.746  0.00  0.00    +0.000 A 
ATOM      9  C   UNL     1       1.235   3.261  18.519  0.00  0.00    +0.000 A 
ATOM     10  C   UNL     1       2.462   3.911  18.373  0.00  0.00    +0.000 A 
ATOM     11 CL   UNL     1       3.260   3.832  16.841  0.00  0.00    +0.000 Cl
ENDBRANCH   3   5
BRANCH   1  13
ATOM     12  N   UNL     1       6.935   6.197  18.006  0.00  0.00    +0.000 N 
ATOM     13  C   UNL     1       6.724   5.450  19.171  0.00  0.00    +0.000 C 
ATOM     14  O   UNL     1       7.451   5.476  20.162  0.00  0.00    +0.000 OA
BRANCH  12  16
ATOM     15  C   UNL     1       7.456   8.585  17.578  0.00  0.00    +0.000 C 
ATOM     16  C   UNL     1       7.967   7.230  18.038  0.00  0.00    +0.000 C 
ENDBRANCH  12  16
BRANCH  12  17
ATOM     17  C   UNL     1       6.067   6.112  16.800  0.00  0.00    +0.000 C 
BRANCH  17  18
ATOM     18  C   UNL     1       6.477   5.133  15.681  0.00  0.00    +0.000 C 
ATOM     19  F   UNL     1       5.547   5.049  14.703  0.00  0.00    +0.000 F 
ATOM     20  F   UNL     1       7.649   5.481  15.106  0.00  0.00    +0.000 F 
ATOM     21  F   UNL     1       6.640   3.884  16.181  0.00  0.00    +0.000 F 
ENDBRANCH  17  18
ENDBRANCH  12  17
ENDBRANCH   1  13
TORSDOF 5
ENDMDL
MODEL 2
REMARK VINA RESULT:      -7.2      0.510      1.022
REMARK  Name = 
REMARK  6 active torsions:
REMARK  status: ('A' for Active; 'I' for Inactive)
REMARK    1  A    between atoms: C_1  and  C_2
REMARK    2  A    between atoms: C_2  and  N_3
REMARK    3  A    between atoms: N_3  and  C_4
REMARK    4  A    between atoms: C_4  and  C_5
REMARK    5  A    between atoms: C_9  and  C_11
REMARK    6  A    between atoms: N_13  and  C_14
REMARK                            x       y       z     vdW  Elec       q    Type
REMARK                         _______ _______ _______ _____ _____    ______ ____
ROOT
ATOM      1  C   UNL     1       5.513   4.480  19.241  0.00  0.00    +0.000 C 
ATOM      2  O   UNL     1       5.665   3.306  18.932  0.00  0.00    +0.000 OA
ATOM      3  N   UNL     1       4.331   5.105  19.560  0.00  0.00    +0.000 N 
ATOM      4  H   UNL     1       4.318   6.113  19.415  0.00  0.00    +0.000 HD
ENDROOT
BRANCH   3   5
ATOM      5  C   UNL     1       3.100   4.435  19.703  0.00  0.00    +0.000 A 
ATOM      6  C   UNL     1       2.561   4.174  20.971  0.00  0.00    +0.000 A 
ATOM      7  C   UNL     1       1.330   3.528  21.094  0.00  0.00    +0.000 A 
ATOM      8  C   UNL     1       0.641   3.116  19.955  0.00  0.00    +0.000 A 
ATOM      9  C   UNL     1       1.172   3.369  18.690  0.00  0.00    +0.000 A 
ATOM     10  C   UNL     1       2.385   4.048  18.564  0.00  0.00    +0.000 A 
ATOM     11 CL   UNL     1       3.018   4.319  16.978  0.00  0.00    +0.000 Cl
ENDBRANCH   3   5
BRANCH   1  13
ATOM     12  N   UNL     1       7.025   6.141  18.106  0.00  0.00    +0.000 N 
ATOM     13  C   UNL     1       6.730   5.420  19.268  0.00  0.00    +0.000 C 
ATOM     14  O   UNL     1       7.379   5.473  20.311  0.00  0.00    +0.000 OA
BRANCH  12  16
ATOM     15  C   UNL     1       7.613   8.486  17.546  0.00  0.00    +0.000 C 
ATOM     16  C   UNL     1       8.047   7.181  18.192  0.00  0.00    +0.000 C 
ENDBRANCH  12  16
BRANCH  12  17
ATOM     17  C   UNL     1       6.252   6.023  16.840  0.00  0.00    +0.000 C 
BRANCH  17  18
ATOM     18  C   UNL     1       6.629   4.889  15.865  0.00  0.00    +0.000 C 
ATOM     19  F   UNL     1       7.803   4.300  16.188  0.00  0.00    +0.000 F 
ATOM     20  F   UNL     1       5.683   3.925  15.818  0.00  0.00    +0.000 F 
ATOM     21  F   UNL     1       6.762   5.371  14.605  0.00  0.00    +0.000 F 
ENDBRANCH  17  18
ENDBRANCH  12  17
ENDBRANCH   1  13
TORSDOF 5
ENDMDL
MODEL 3
REMARK VINA RESULT:      -7.0      2.298      2.853
REMARK  Name = 
REMARK  6 active torsions:
REMARK  status: ('A' for Active; 'I' for Inactive)
REMARK    1  A    between atoms: C_1  and  C_2
REMARK    2  A    between atoms: C_2  and  N_3
REMARK    3  A    between atoms: N_3  and  C_4
REMARK    4  A    between atoms: C_4  and  C_5
REMARK    5  A    between atoms: C_9  and  C_11
REMARK    6  A    between atoms: N_13  and  C_14
REMARK                            x       y       z     vdW  Elec       q    Type
REMARK                         _______ _______ _______ _____ _____    ______ ____
ROOT
ATOM      1  C   UNL     1       6.139   4.547  18.754  0.00  0.00    +0.000 C 
ATOM      2  O   UNL     1       6.426   5.248  19.716  0.00  0.00    +0.000 OA
ATOM      3  N   UNL     1       5.018   3.766  18.605  0.00  0.00    +0.000 N 
ATOM      4  H   UNL     1       5.114   2.984  17.960  0.00  0.00    +0.000 HD
ENDROOT
BRANCH   3   5
ATOM      5  C   UNL     1       3.942   3.752  19.514  0.00  0.00    +0.000 A 
ATOM      6  C   UNL     1       2.967   4.760  19.496  0.00  0.00    +0.000 A 
ATOM      7  C   UNL     1       1.895   4.720  20.389  0.00  0.00    +0.000 A 
ATOM      8  C   UNL     1       1.803   3.689  21.322  0.00  0.00    +0.000 A 
ATOM      9  C   UNL     1       2.769   2.685  21.350  0.00  0.00    +0.000 A 
ATOM     10  C   UNL     1       3.821   2.703  20.432  0.00  0.00    +0.000 A 
ATOM     11 CL   UNL     1       5.012   1.451  20.516  0.00  0.00    +0.000 Cl
ENDBRANCH   3   5
BRANCH   1  13
ATOM     12  N   UNL     1       6.616   4.814  16.298  0.00  0.00    +0.000 N 
ATOM     13  C   UNL     1       7.106   4.466  17.561  0.00  0.00    +0.000 C 
ATOM     14  O   UNL     1       8.253   4.087  17.789  0.00  0.00    +0.000 OA
BRANCH  12  16
ATOM     15  C   UNL     1       6.935   4.782  13.837  0.00  0.00    +0.000 C 
ATOM     16  C   UNL     1       7.577   4.935  15.205  0.00  0.00    +0.000 C 
ENDBRANCH  12  16
BRANCH  12  17
ATOM     17  C   UNL     1       5.208   5.223  16.039  0.00  0.00    +0.000 C 
BRANCH  17  18
ATOM     18  C   UNL     1       4.843   6.711  16.218  0.00  0.00    +0.000 C 
ATOM     19  F   UNL     1       3.710   6.881  16.936  0.00  0.00    +0.000 F 
ATOM     20  F   UNL     1       5.827   7.405  16.831  0.00  0.00    +0.000 F 
ATOM     21  F   UNL     1       4.640   7.297  15.013  0.00  0.00    +0.000 F 
ENDBRANCH  17  18
ENDBRANCH  12  17
ENDBRANCH   1  13
TORSDOF 5
ENDMDL
MODEL 4
REMARK VINA RESULT:      -6.9      2.077      2.538
REMARK  Name = 
REMARK  6 active torsions:
REMARK  status: ('A' for Active; 'I' for Inactive)
REMARK    1  A    between atoms: C_1  and  C_2
REMARK    2  A    between atoms: C_2  and  N_3
REMARK    3  A    between atoms: N_3  and  C_4
REMARK    4  A    between atoms: C_4  and  C_5
REMARK    5  A    between atoms: C_9  and  C_11
REMARK    6  A    between atoms: N_13  and  C_14
REMARK                            x       y       z     vdW  Elec       q    Type
REMARK                         _______ _______ _______ _____ _____    ______ ____
ROOT
ATOM      1  C   UNL     1       5.570   4.440  18.814  0.00  0.00    +0.000 C 
ATOM      2  O   UNL     1       5.524   5.382  19.595  0.00  0.00    +0.000 OA
ATOM      3  N   UNL     1       4.726   3.356  18.773  0.00  0.00    +0.000 N 
ATOM      4  H   UNL     1       5.115   2.516  18.348  0.00  0.00    +0.000 HD
ENDROOT
BRANCH   3   5
ATOM      5  C   UNL     1       3.572   3.228  19.571  0.00  0.00    +0.000 A 
ATOM      6  C   UNL     1       3.644   2.699  20.867  0.00  0.00    +0.000 A 
ATOM      7  C   UNL     1       2.494   2.598  21.653  0.00  0.00    +0.000 A 
ATOM      8  C   UNL     1       1.262   3.000  21.140  0.00  0.00    +0.000 A 
ATOM      9  C   UNL     1       1.181   3.524  19.850  0.00  0.00    +0.000 A 
ATOM     10  C   UNL     1       2.336   3.661  19.078  0.00  0.00    +0.000 A 
ATOM     11 CL   UNL     1       2.186   4.294  17.475  0.00  0.00    +0.000 Cl
ENDBRANCH   3   5
BRANCH   1  13
ATOM     12  N   UNL     1       6.385   4.839  16.466  0.00  0.00    +0.000 N 
ATOM     13  C   UNL     1       6.685   4.388  17.756  0.00  0.00    +0.000 C 
ATOM     14  O   UNL     1       7.775   3.940  18.107  0.00  0.00    +0.000 OA
BRANCH  12  16
ATOM     15  C   UNL     1       7.051   4.820  14.076  0.00  0.00    +0.000 C 
ATOM     16  C   UNL     1       7.489   4.983  15.522  0.00  0.00    +0.000 C 
ENDBRANCH  12  16
BRANCH  12  17
ATOM     17  C   UNL     1       5.043   5.332  16.053  0.00  0.00    +0.000 C 
BRANCH  17  18
ATOM     18  C   UNL     1       4.751   6.840  16.195  0.00  0.00    +0.000 C 
ATOM     19  F   UNL     1       3.637   7.084  16.923  0.00  0.00    +0.000 F 
ATOM     20  F   UNL     1       5.775   7.504  16.775  0.00  0.00    +0.000 F 
ATOM     21  F   UNL     1       4.558   7.402  14.977  0.00  0.00    +0.000 F 
ENDBRANCH  17  18
ENDBRANCH  12  17
ENDBRANCH   1  13
TORSDOF 5
ENDMDL
MODEL 5
REMARK VINA RESULT:      -6.7      2.150      2.679
REMARK  Name = 
REMARK  6 active torsions:
REMARK  status: ('A' for Active; 'I' for Inactive)
REMARK    1  A    between atoms: C_1  and  C_2
REMARK    2  A    between atoms: C_2  and  N_3
REMARK    3  A    between atoms: N_3  and  C_4
REMARK    4  A    between atoms: C_4  and  C_5
REMARK    5  A    between atoms: C_9  and  C_11
REMARK    6  A    between atoms: N_13  and  C_14
REMARK                            x       y       z     vdW  Elec       q    Type
REMARK                         _______ _______ _______ _____ _____    ______ ____
ROOT
ATOM      1  C   UNL     1       6.130   4.499  18.644  0.00  0.00    +0.000 C 
ATOM      2  O   UNL     1       6.437   5.068  19.683  0.00  0.00    +0.000 OA
ATOM      3  N   UNL     1       4.958   3.831  18.382  0.00  0.00    +0.000 N 
ATOM      4  H   UNL     1       5.016   3.117  17.658  0.00  0.00    +0.000 HD
ENDROOT
BRANCH   3   5
ATOM      5  C   UNL     1       3.853   3.807  19.255  0.00  0.00    +0.000 A 
ATOM      6  C   UNL     1       3.396   4.978  19.876  0.00  0.00    +0.000 A 
ATOM      7  C   UNL     1       2.286   4.941  20.722  0.00  0.00    +0.000 A 
ATOM      8  C   UNL     1       1.641   3.732  20.974  0.00  0.00    +0.000 A 
ATOM      9  C   UNL     1       2.091   2.561  20.363  0.00  0.00    +0.000 A 
ATOM     10  C   UNL     1       3.177   2.603  19.487  0.00  0.00    +0.000 A 
ATOM     11 CL   UNL     1       3.717   1.125  18.770  0.00  0.00    +0.000 Cl
ENDBRANCH   3   5
BRANCH   1  13
ATOM     12  N   UNL     1       6.667   4.853  16.211  0.00  0.00    +0.000 N 
ATOM     13  C   UNL     1       7.128   4.467  17.475  0.00  0.00    +0.000 C 
ATOM     14  O   UNL     1       8.273   4.093  17.720  0.00  0.00    +0.000 OA
BRANCH  12  16
ATOM     15  C   UNL     1       7.081   4.763  13.766  0.00  0.00    +0.000 C 
ATOM     16  C   UNL     1       7.655   5.020  15.149  0.00  0.00    +0.000 C 
ENDBRANCH  12  16
BRANCH  12  17
ATOM     17  C   UNL     1       5.263   5.256  15.929  0.00  0.00    +0.000 C 
BRANCH  17  18
ATOM     18  C   UNL     1       4.877   6.734  16.145  0.00  0.00    +0.000 C 
ATOM     19  F   UNL     1       5.851   7.435  16.769  0.00  0.00    +0.000 F 
ATOM     20  F   UNL     1       4.599   7.361  14.981  0.00  0.00    +0.000 F 
ATOM     21  F   UNL     1       3.766   6.826  16.916  0.00  0.00    +0.000 F 
ENDBRANCH  17  18
ENDBRANCH  12  17
ENDBRANCH   1  13
TORSDOF 5
ENDMDL
MODEL 6
REMARK VINA RESULT:      -6.7      1.318      1.548
REMARK  Name = 
REMARK  6 active torsions:
REMARK  status: ('A' for Active; 'I' for Inactive)
REMARK    1  A    between atoms: C_1  and  C_2
REMARK    2  A    between atoms: C_2  and  N_3
REMARK    3  A    between atoms: N_3  and  C_4
REMARK    4  A    between atoms: C_4  and  C_5
REMARK    5  A    between atoms: C_9  and  C_11
REMARK    6  A    between atoms: N_13  and  C_14
REMARK                            x       y       z     vdW  Elec       q    Type
REMARK                         _______ _______ _______ _____ _____    ______ ____
ROOT
ATOM      1  C   UNL     1       5.618   4.607  19.252  0.00  0.00    +0.000 C 
ATOM      2  O   UNL     1       5.705   3.473  18.800  0.00  0.00    +0.000 OA
ATOM      3  N   UNL     1       4.495   5.207  19.768  0.00  0.00    +0.000 N 
ATOM      4  H   UNL     1       4.492   6.226  19.737  0.00  0.00    +0.000 HD
ENDROOT
BRANCH   3   5
ATOM      5  C   UNL     1       3.270   4.542  19.973  0.00  0.00    +0.000 A 
ATOM      6  C   UNL     1       3.208   3.143  20.032  0.00  0.00    +0.000 A 
ATOM      7  C   UNL     1       1.989   2.500  20.257  0.00  0.00    +0.000 A 
ATOM      8  C   UNL     1       0.822   3.247  20.398  0.00  0.00    +0.000 A 
ATOM      9  C   UNL     1       0.874   4.640  20.337  0.00  0.00    +0.000 A 
ATOM     10  C   UNL     1       2.098   5.286  20.150  0.00  0.00    +0.000 A 
ATOM     11 CL   UNL     1       2.113   7.012  20.057  0.00  0.00    +0.000 Cl
ENDBRANCH   3   5
BRANCH   1  13
ATOM     12  N   UNL     1       7.098   6.285  18.100  0.00  0.00    +0.000 N 
ATOM     13  C   UNL     1       6.854   5.521  19.247  0.00  0.00    +0.000 C 
ATOM     14  O   UNL     1       7.563   5.518  20.252  0.00  0.00    +0.000 OA
BRANCH  12  16
ATOM     15  C   UNL     1       7.710   8.634  17.584  0.00  0.00    +0.000 C 
ATOM     16  C   UNL     1       8.145   7.301  18.169  0.00  0.00    +0.000 C 
ENDBRANCH  12  16
BRANCH  12  17
ATOM     17  C   UNL     1       6.251   6.236  16.877  0.00  0.00    +0.000 C 
BRANCH  17  18
ATOM     18  C   UNL     1       6.528   5.118  15.850  0.00  0.00    +0.000 C 
ATOM     19  F   UNL     1       7.007   5.600  14.681  0.00  0.00    +0.000 F 
ATOM     20  F   UNL     1       7.413   4.209  16.315  0.00  0.00    +0.000 F 
ATOM     21  F   UNL     1       5.387   4.445  15.564  0.00  0.00    +0.000 F 
ENDBRANCH  17  18
ENDBRANCH  12  17
ENDBRANCH   1  13
TORSDOF 5
ENDMDL
MODEL 7
REMARK VINA RESULT:      -6.6      2.431      3.173
REMARK  Name = 
REMARK  6 active torsions:
REMARK  status: ('A' for Active; 'I' for Inactive)
REMARK    1  A    between atoms: C_1  and  C_2
REMARK    2  A    between atoms: C_2  and  N_3
REMARK    3  A    between atoms: N_3  and  C_4
REMARK    4  A    between atoms: C_4  and  C_5
REMARK    5  A    between atoms: C_9  and  C_11
REMARK    6  A    between atoms: N_13  and  C_14
REMARK                            x       y       z     vdW  Elec       q    Type
REMARK                         _______ _______ _______ _____ _____    ______ ____
ROOT
ATOM      1  C   UNL     1       4.401   5.406  17.930  0.00  0.00    +0.000 C 
ATOM      2  O   UNL     1       4.195   6.347  18.686  0.00  0.00    +0.000 OA
ATOM      3  N   UNL     1       3.974   4.109  18.088  0.00  0.00    +0.000 N 
ATOM      4  H   UNL     1       4.530   3.405  17.605  0.00  0.00    +0.000 HD
ENDROOT
BRANCH   3   5
ATOM      5  C   UNL     1       3.104   3.686  19.112  0.00  0.00    +0.000 A 
ATOM      6  C   UNL     1       3.602   3.152  20.309  0.00  0.00    +0.000 A 
ATOM      7  C   UNL     1       2.727   2.757  21.322  0.00  0.00    +0.000 A 
ATOM      8  C   UNL     1       1.350   2.869  21.138  0.00  0.00    +0.000 A 
ATOM      9  C   UNL     1       0.846   3.396  19.949  0.00  0.00    +0.000 A 
ATOM     10  C   UNL     1       1.721   3.827  18.950  0.00  0.00    +0.000 A 
ATOM     11 CL   UNL     1       1.053   4.452  17.483  0.00  0.00    +0.000 Cl
ENDBRANCH   3   5
BRANCH   1  13
ATOM     12  N   UNL     1       6.582   5.213  16.690  0.00  0.00    +0.000 N 
ATOM     13  C   UNL     1       5.245   5.624  16.663  0.00  0.00    +0.000 C 
ATOM     14  O   UNL     1       4.694   6.158  15.703  0.00  0.00    +0.000 OA
BRANCH  12  16
ATOM     15  C   UNL     1       6.767   4.253  14.409  0.00  0.00    +0.000 C 
ATOM     16  C   UNL     1       7.324   5.228  15.432  0.00  0.00    +0.000 C 
ENDBRANCH  12  16
BRANCH  12  17
ATOM     17  C   UNL     1       7.240   4.612  17.882  0.00  0.00    +0.000 C 
BRANCH  17  18
ATOM     18  C   UNL     1       7.759   5.564  18.979  0.00  0.00    +0.000 C 
ATOM     19  F   UNL     1       8.069   6.788  18.495  0.00  0.00    +0.000 F 
ATOM     20  F   UNL     1       6.859   5.730  19.974  0.00  0.00    +0.000 F 
ATOM     21  F   UNL     1       8.884   5.065  19.546  0.00  0.00    +0.000 F 
ENDBRANCH  17  18
ENDBRANCH  12  17
ENDBRANCH   1  13
TORSDOF 5
ENDMDL
MODEL 8
REMARK VINA RESULT:      -6.6      1.008      1.057
REMARK  Name = 
REMARK  6 active torsions:
REMARK  status: ('A' for Active; 'I' for Inactive)
REMARK    1  A    between atoms: C_1  and  C_2
REMARK    2  A    between atoms: C_2  and  N_3
REMARK    3  A    between atoms: N_3  and  C_4
REMARK    4  A    between atoms: C_4  and  C_5
REMARK    5  A    between atoms: C_9  and  C_11
REMARK    6  A    between atoms: N_13  and  C_14
REMARK                            x       y       z     vdW  Elec       q    Type
REMARK                         _______ _______ _______ _____ _____    ______ ____
ROOT
ATOM      1  C   UNL     1       5.209   4.173  19.192  0.00  0.00    +0.000 C 
ATOM      2  O   UNL     1       5.457   3.020  19.521  0.00  0.00    +0.000 OA
ATOM      3  N   UNL     1       3.967   4.741  19.042  0.00  0.00    +0.000 N 
ATOM      4  H   UNL     1       3.928   5.544  18.416  0.00  0.00    +0.000 HD
ENDROOT
BRANCH   3   5
ATOM      5  C   UNL     1       2.760   4.095  19.375  0.00  0.00    +0.000 A 
ATOM      6  C   UNL     1       2.230   4.177  20.670  0.00  0.00    +0.000 A 
ATOM      7  C   UNL     1       1.022   3.548  20.978  0.00  0.00    +0.000 A 
ATOM      8  C   UNL     1       0.349   2.814  20.003  0.00  0.00    +0.000 A 
ATOM      9  C   UNL     1       0.872   2.725  18.713  0.00  0.00    +0.000 A 
ATOM     10  C   UNL     1       2.060   3.384  18.393  0.00  0.00    +0.000 A 
ATOM     11 CL   UNL     1       2.685   3.228  16.789  0.00  0.00    +0.000 Cl
ENDBRANCH   3   5
BRANCH   1  13
ATOM     12  N   UNL     1       6.814   5.199  17.547  0.00  0.00    +0.000 N 
ATOM     13  C   UNL     1       6.366   5.134  18.871  0.00  0.00    +0.000 C 
ATOM     14  O   UNL     1       6.836   5.783  19.803  0.00  0.00    +0.000 OA
BRANCH  12  16
ATOM     15  C   UNL     1       7.195   7.646  17.399  0.00  0.00    +0.000 C 
ATOM     16  C   UNL     1       7.764   6.252  17.201  0.00  0.00    +0.000 C 
ENDBRANCH  12  16
BRANCH  12  17
ATOM     17  C   UNL     1       6.260   4.367  16.444  0.00  0.00    +0.000 C 
BRANCH  17  18
ATOM     18  C   UNL     1       5.678   5.092  15.213  0.00  0.00    +0.000 C 
ATOM     19  F   UNL     1       4.941   6.174  15.553  0.00  0.00    +0.000 F 
ATOM     20  F   UNL     1       6.643   5.501  14.361  0.00  0.00    +0.000 F 
ATOM     21  F   UNL     1       4.864   4.262  14.516  0.00  0.00    +0.000 F 
ENDBRANCH  17  18
ENDBRANCH  12  17
ENDBRANCH   1  13
TORSDOF 5
ENDMDL
MODEL 9
REMARK VINA RESULT:      -6.6      2.952      5.864
REMARK  Name = 
REMARK  6 active torsions:
REMARK  status: ('A' for Active; 'I' for Inactive)
REMARK    1  A    between atoms: C_1  and  C_2
REMARK    2  A    between atoms: C_2  and  N_3
REMARK    3  A    between atoms: N_3  and  C_4
REMARK    4  A    between atoms: C_4  and  C_5
REMARK    5  A    between atoms: C_9  and  C_11
REMARK    6  A    between atoms: N_13  and  C_14
REMARK                            x       y       z     vdW  Elec       q    Type
REMARK                         _______ _______ _______ _____ _____    ______ ____
ROOT
ATOM      1  C   UNL     1       4.825   4.677  18.581  0.00  0.00    +0.000 C 
ATOM      2  O   UNL     1       5.788   4.004  18.924  0.00  0.00    +0.000 OA
ATOM      3  N   UNL     1       4.596   5.222  17.341  0.00  0.00    +0.000 N 
ATOM      4  H   UNL     1       3.985   6.037  17.329  0.00  0.00    +0.000 HD
ENDROOT
BRANCH   3   5
ATOM      5  C   UNL     1       5.400   4.974  16.211  0.00  0.00    +0.000 A 
ATOM      6  C   UNL     1       4.989   4.080  15.213  0.00  0.00    +0.000 A 
ATOM      7  C   UNL     1       5.788   3.861  14.089  0.00  0.00    +0.000 A 
ATOM      8  C   UNL     1       7.013   4.514  13.967  0.00  0.00    +0.000 A 
ATOM      9  C   UNL     1       7.431   5.403  14.957  0.00  0.00    +0.000 A 
ATOM     10  C   UNL     1       6.616   5.651  16.063  0.00  0.00    +0.000 A 
ATOM     11 CL   UNL     1       7.184   6.742  17.279  0.00  0.00    +0.000 Cl
ENDBRANCH   3   5
BRANCH   1  13
ATOM     12  N   UNL     1       2.812   4.006  19.935  0.00  0.00    +0.000 N 
ATOM     13  C   UNL     1       3.730   5.010  19.609  0.00  0.00    +0.000 C 
ATOM     14  O   UNL     1       3.722   6.148  20.076  0.00  0.00    +0.000 OA
BRANCH  12  16
ATOM     15  C   UNL     1       1.451   2.969  21.732  0.00  0.00    +0.000 C 
ATOM     16  C   UNL     1       1.906   4.250  21.053  0.00  0.00    +0.000 C 
ENDBRANCH  12  16
BRANCH  12  17
ATOM     17  C   UNL     1       2.815   2.650  19.320  0.00  0.00    +0.000 C 
BRANCH  17  18
ATOM     18  C   UNL     1       1.880   2.399  18.119  0.00  0.00    +0.000 C 
ATOM     19  F   UNL     1       2.471   1.661  17.152  0.00  0.00    +0.000 F 
ATOM     20  F   UNL     1       0.743   1.767  18.483  0.00  0.00    +0.000 F 
ATOM     21  F   UNL     1       1.513   3.574  17.551  0.00  0.00    +0.000 F 
ENDBRANCH  17  18
ENDBRANCH  12  17
ENDBRANCH   1  13
TORSDOF 5
ENDMDL
