MODEL 1
REMARK VINA RESULT:      -8.2      0.000      0.000
REMARK  Name = 
REMARK  6 active torsions:
REMARK  status: ('A' for Active; 'I' for Inactive)
REMARK    1  A    between atoms: C_2  and  C_5
REMARK    2  A    between atoms: N_3  and  O_4
REMARK    3  A    between atoms: C_8  and  C_9
REMARK    4  A    between atoms: C_13  and  C_14
REMARK    5  A    between atoms: C_17  and  C_18
REMARK    6  A    between atoms: N_20  and  O_21
REMARK                            x       y       z     vdW  Elec       q    Type
REMARK                         _______ _______ _______ _____ _____    ______ ____
ROOT
ATOM      1  C   UNL     1       2.085   6.712  20.005  0.00  0.00    +0.000 A 
ATOM      2  C   UNL     1       1.742   5.607  20.785  0.00  0.00    +0.000 A 
ATOM      3  N   UNL     1       2.190   4.356  20.541  0.00  0.00    +0.000 NA
ATOM      4  C   UNL     1       3.017   4.248  19.476  0.00  0.00    +0.000 A 
ATOM      5  C   UNL     1       3.413   5.327  18.686  0.00  0.00    +0.000 A 
ATOM      6  N   UNL     1       2.936   6.575  18.949  0.00  0.00    +0.000 NA
ENDROOT
BRANCH   1  10
ATOM      7  C   UNL     1       0.479  10.650  20.688  0.00  0.00    +0.000 A 
ATOM      8  C   UNL     1       0.891  10.267  19.410  0.00  0.00    +0.000 A 
ATOM      9  C   UNL     1       1.421   8.990  19.199  0.00  0.00    +0.000 A 
ATOM     10  C   UNL     1       1.551   8.066  20.253  0.00  0.00    +0.000 A 
ATOM     11  C   UNL     1       1.138   8.481  21.535  0.00  0.00    +0.000 A 
ATOM     12  C   UNL     1       0.615   9.760  21.754  0.00  0.00    +0.000 A 
BRANCH   7  14
ATOM     13  N   UNL     1      -1.058  12.456  20.006  0.00  0.00    +0.000 N 
ATOM     14  C   UNL     1      -0.131  11.992  20.911  0.00  0.00    +0.000 C 
ATOM     15  N   UNL     1       0.218  12.670  21.967  0.00  0.00    +0.000 NA
ATOM     16  H   UNL     1      -1.545  13.255  20.403  0.00  0.00    +0.000 HD
ATOM     17  H   UNL     1      -1.698  11.752  19.657  0.00  0.00    +0.000 HD
BRANCH  15  18
ATOM     18  O   UNL     1      -0.471  13.894  22.024  0.00  0.00    +0.000 OA
ATOM     19  H   UNL     1       0.262  14.533  22.096  0.00  0.00    +0.000 HD
ENDBRANCH  15  18
ENDBRANCH   7  14
ENDBRANCH   1  10
BRANCH   5  20
ATOM     20  C   UNL     1       4.317   5.177  17.526  0.00  0.00    +0.000 A 
ATOM     21  C   UNL     1       4.714   6.288  16.755  0.00  0.00    +0.000 A 
ATOM     22  C   UNL     1       5.495   6.134  15.600  0.00  0.00    +0.000 A 
ATOM     23  C   UNL     1       5.895   4.860  15.191  0.00  0.00    +0.000 A 
ATOM     24  C   UNL     1       5.550   3.751  15.964  0.00  0.00    +0.000 A 
ATOM     25  C   UNL     1       4.783   3.912  17.120  0.00  0.00    +0.000 A 
BRANCH  23  26
ATOM     26  C   UNL     1       6.662   4.660  13.925  0.00  0.00    +0.000 C 
ATOM     27  N   UNL     1       7.777   5.425  13.683  0.00  0.00    +0.000 N 
ATOM     28  N   UNL     1       6.243   3.752  13.088  0.00  0.00    +0.000 NA
ATOM     29  H   UNL     1       8.378   5.565  14.485  0.00  0.00    +0.000 HD
ATOM     30  H   UNL     1       8.283   5.032  12.891  0.00  0.00    +0.000 HD
BRANCH  28  31
ATOM     31  O   UNL     1       7.076   3.682  11.958  0.00  0.00    +0.000 OA
ATOM     32  H   UNL     1       7.962   3.654  12.367  0.00  0.00    +0.000 HD
ENDBRANCH  28  31
ENDBRANCH  23  26
ENDBRANCH   5  20
TORSDOF 6
ENDMDL
MODEL 2
REMARK VINA RESULT:      -8.2      0.391      9.311
REMARK  Name = 
REMARK  6 active torsions:
REMARK  status: ('A' for Active; 'I' for Inactive)
REMARK    1  A    between atoms: C_2  and  C_5
REMARK    2  A    between atoms: N_3  and  O_4
REMARK    3  A    between atoms: C_8  and  C_9
REMARK    4  A    between atoms: C_13  and  C_14
REMARK    5  A    between atoms: C_17  and  C_18
REMARK    6  A    between atoms: N_20  and  O_21
REMARK                            x       y       z     vdW  Elec       q    Type
REMARK                         _______ _______ _______ _____ _____    ______ ____
ROOT
ATOM      1  C   UNL     1       3.442   5.246  18.669  0.00  0.00    +0.000 A 
ATOM      2  C   UNL     1       3.194   4.187  19.541  0.00  0.00    +0.000 A 
ATOM      3  N   UNL     1       2.447   4.303  20.661  0.00  0.00    +0.000 NA
ATOM      4  C   UNL     1       1.939   5.538  20.877  0.00  0.00    +0.000 A 
ATOM      5  C   UNL     1       2.133   6.620  20.018  0.00  0.00    +0.000 A 
ATOM      6  N   UNL     1       2.900   6.476  18.903  0.00  0.00    +0.000 NA
ENDROOT
BRANCH   1  10
ATOM      7  C   UNL     1       5.899   4.837  15.155  0.00  0.00    +0.000 A 
ATOM      8  C   UNL     1       5.570   3.717  15.920  0.00  0.00    +0.000 A 
ATOM      9  C   UNL     1       4.780   3.860  17.066  0.00  0.00    +0.000 A 
ATOM     10  C   UNL     1       4.299   5.118  17.474  0.00  0.00    +0.000 A 
ATOM     11  C   UNL     1       4.656   6.235  16.690  0.00  0.00    +0.000 A 
ATOM     12  C   UNL     1       5.453   6.099  15.549  0.00  0.00    +0.000 A 
BRANCH   7  14
ATOM     13  N   UNL     1       7.817   5.473  13.739  0.00  0.00    +0.000 N 
ATOM     14  C   UNL     1       6.701   4.686  13.908  0.00  0.00    +0.000 C 
ATOM     15  N   UNL     1       6.330   3.799  13.028  0.00  0.00    +0.000 NA
ATOM     16  H   UNL     1       8.377   5.104  12.974  0.00  0.00    +0.000 HD
ATOM     17  H   UNL     1       8.365   5.617  14.579  0.00  0.00    +0.000 HD
BRANCH  15  18
ATOM     18  O   UNL     1       7.211   3.782  11.934  0.00  0.00    +0.000 OA
ATOM     19  H   UNL     1       6.600   3.901  11.184  0.00  0.00    +0.000 HD
ENDBRANCH  15  18
ENDBRANCH   7  14
ENDBRANCH   1  10
BRANCH   5  20
ATOM     20  C   UNL     1       1.566   7.960  20.283  0.00  0.00    +0.000 A 
ATOM     21  C   UNL     1       1.439   8.919  19.258  0.00  0.00    +0.000 A 
ATOM     22  C   UNL     1       0.989  10.220  19.528  0.00  0.00    +0.000 A 
ATOM     23  C   UNL     1       0.657  10.589  20.833  0.00  0.00    +0.000 A 
ATOM     24  C   UNL     1       0.734   9.642  21.855  0.00  0.00    +0.000 A 
ATOM     25  C   UNL     1       1.171   8.345  21.578  0.00  0.00    +0.000 A 
BRANCH  23  26
ATOM     26  C   UNL     1       0.249  11.988  21.160  0.00  0.00    +0.000 C 
ATOM     27  N   UNL     1       0.399  12.974  20.215  0.00  0.00    +0.000 N 
ATOM     28  N   UNL     1      -0.247  12.224  22.343  0.00  0.00    +0.000 NA
ATOM     29  H   UNL     1       0.143  12.703  19.274  0.00  0.00    +0.000 HD
ATOM     30  H   UNL     1      -0.102  13.806  20.522  0.00  0.00    +0.000 HD
BRANCH  28  31
ATOM     31  O   UNL     1      -0.590  13.579  22.487  0.00  0.00    +0.000 OA
ATOM     32  H   UNL     1      -0.799  13.830  21.567  0.00  0.00    +0.000 HD
ENDBRANCH  28  31
ENDBRANCH  23  26
ENDBRANCH   5  20
TORSDOF 6
ENDMDL
MODEL 3
REMARK VINA RESULT:      -8.2      0.156      9.356
REMARK  Name = 
REMARK  6 active torsions:
REMARK  status: ('A' for Active; 'I' for Inactive)
REMARK    1  A    between atoms: C_2  and  C_5
REMARK    2  A    between atoms: N_3  and  O_4
REMARK    3  A    between atoms: C_8  and  C_9
REMARK    4  A    between atoms: C_13  and  C_14
REMARK    5  A    between atoms: C_17  and  C_18
REMARK    6  A    between atoms: N_20  and  O_21
REMARK                            x       y       z     vdW  Elec       q    Type
REMARK                         _______ _______ _______ _____ _____    ______ ____
ROOT
ATOM      1  C   UNL     1       3.386   5.290  18.646  0.00  0.00    +0.000 A 
ATOM      2  C   UNL     1       3.084   4.221  19.490  0.00  0.00    +0.000 A 
ATOM      3  N   UNL     1       2.325   4.341  20.602  0.00  0.00    +0.000 NA
ATOM      4  C   UNL     1       1.862   5.590  20.840  0.00  0.00    +0.000 A 
ATOM      5  C   UNL     1       2.112   6.683  20.009  0.00  0.00    +0.000 A 
ATOM      6  N   UNL     1       2.889   6.534  18.902  0.00  0.00    +0.000 NA
ENDROOT
BRANCH   1  10
ATOM      7  C   UNL     1       5.879   4.866  15.160  0.00  0.00    +0.000 A 
ATOM      8  C   UNL     1       5.500   3.742  15.897  0.00  0.00    +0.000 A 
ATOM      9  C   UNL     1       4.699   3.890  17.035  0.00  0.00    +0.000 A 
ATOM     10  C   UNL     1       4.256   5.156  17.461  0.00  0.00    +0.000 A 
ATOM     11  C   UNL     1       4.662   6.274  16.705  0.00  0.00    +0.000 A 
ATOM     12  C   UNL     1       5.471   6.134  15.572  0.00  0.00    +0.000 A 
BRANCH   7  14
ATOM     13  N   UNL     1       7.811   5.497  13.762  0.00  0.00    +0.000 N 
ATOM     14  C   UNL     1       6.693   4.712  13.920  0.00  0.00    +0.000 C 
ATOM     15  N   UNL     1       6.330   3.823  13.039  0.00  0.00    +0.000 NA
ATOM     16  H   UNL     1       8.379   5.126  13.003  0.00  0.00    +0.000 HD
ATOM     17  H   UNL     1       8.351   5.643  14.607  0.00  0.00    +0.000 HD
BRANCH  15  18
ATOM     18  O   UNL     1       7.222   3.803  11.954  0.00  0.00    +0.000 OA
ATOM     19  H   UNL     1       8.019   4.209  12.343  0.00  0.00    +0.000 HD
ENDBRANCH  15  18
ENDBRANCH   7  14
ENDBRANCH   1  10
BRANCH   5  20
ATOM     20  C   UNL     1       1.594   8.037  20.297  0.00  0.00    +0.000 A 
ATOM     21  C   UNL     1       1.220   8.419  21.601  0.00  0.00    +0.000 A 
ATOM     22  C   UNL     1       0.641   9.671  21.858  0.00  0.00    +0.000 A 
ATOM     23  C   UNL     1       0.423  10.569  20.810  0.00  0.00    +0.000 A 
ATOM     24  C   UNL     1       0.826  10.228  19.519  0.00  0.00    +0.000 A 
ATOM     25  C   UNL     1       1.414   8.985  19.272  0.00  0.00    +0.000 A 
BRANCH  23  26
ATOM     26  C   UNL     1      -0.260  11.877  21.043  0.00  0.00    +0.000 C 
ATOM     27  N   UNL     1      -1.413  12.168  20.355  0.00  0.00    +0.000 N 
ATOM     28  N   UNL     1       0.266  12.701  21.906  0.00  0.00    +0.000 NA
ATOM     29  H   UNL     1      -2.064  11.398  20.271  0.00  0.00    +0.000 HD
ATOM     30  H   UNL     1      -1.847  12.991  20.770  0.00  0.00    +0.000 HD
BRANCH  28  31
ATOM     31  O   UNL     1      -0.500  13.874  22.017  0.00  0.00    +0.000 OA
ATOM     32  H   UNL     1      -0.525  14.004  22.984  0.00  0.00    +0.000 HD
ENDBRANCH  28  31
ENDBRANCH  23  26
ENDBRANCH   5  20
TORSDOF 6
ENDMDL
MODEL 4
REMARK VINA RESULT:      -8.2      0.711      1.643
REMARK  Name = 
REMARK  6 active torsions:
REMARK  status: ('A' for Active; 'I' for Inactive)
REMARK    1  A    between atoms: C_2  and  C_5
REMARK    2  A    between atoms: N_3  and  O_4
REMARK    3  A    between atoms: C_8  and  C_9
REMARK    4  A    between atoms: C_13  and  C_14
REMARK    5  A    between atoms: C_17  and  C_18
REMARK    6  A    between atoms: N_20  and  O_21
REMARK                            x       y       z     vdW  Elec       q    Type
REMARK                         _______ _______ _______ _____ _____    ______ ____
ROOT
ATOM      1  C   UNL     1       1.952   6.656  20.217  0.00  0.00    +0.000 A 
ATOM      2  C   UNL     1       1.664   5.536  20.996  0.00  0.00    +0.000 A 
ATOM      3  N   UNL     1       2.106   4.292  20.706  0.00  0.00    +0.000 NA
ATOM      4  C   UNL     1       2.867   4.208  19.590  0.00  0.00    +0.000 A 
ATOM      5  C   UNL     1       3.208   5.304  18.797  0.00  0.00    +0.000 A 
ATOM      6  N   UNL     1       2.739   6.543  19.108  0.00  0.00    +0.000 NA
ENDROOT
BRANCH   1  10
ATOM      7  C   UNL     1       0.460  10.590  21.136  0.00  0.00    +0.000 A 
ATOM      8  C   UNL     1       0.530   9.612  22.130  0.00  0.00    +0.000 A 
ATOM      9  C   UNL     1       1.006   8.334  21.820  0.00  0.00    +0.000 A 
ATOM     10  C   UNL     1       1.424   8.002  20.518  0.00  0.00    +0.000 A 
ATOM     11  C   UNL     1       1.333   9.004  19.531  0.00  0.00    +0.000 A 
ATOM     12  C   UNL     1       0.849  10.282  19.833  0.00  0.00    +0.000 A 
BRANCH   7  14
ATOM     13  N   UNL     1      -0.010  12.921  20.476  0.00  0.00    +0.000 N 
ATOM     14  C   UNL     1      -0.001  11.968  21.469  0.00  0.00    +0.000 C 
ATOM     15  N   UNL     1      -0.401  12.219  22.684  0.00  0.00    +0.000 NA
ATOM     16  H   UNL     1      -0.555  13.723  20.784  0.00  0.00    +0.000 HD
ATOM     17  H   UNL     1      -0.306  12.584  19.567  0.00  0.00    +0.000 HD
BRANCH  15  18
ATOM     18  O   UNL     1      -0.818  13.555  22.806  0.00  0.00    +0.000 OA
ATOM     19  H   UNL     1      -0.156  13.915  23.425  0.00  0.00    +0.000 HD
ENDBRANCH  15  18
ENDBRANCH   7  14
ENDBRANCH   1  10
BRANCH   5  20
ATOM     20  C   UNL     1       4.041   5.179  17.582  0.00  0.00    +0.000 A 
ATOM     21  C   UNL     1       4.452   3.922  17.098  0.00  0.00    +0.000 A 
ATOM     22  C   UNL     1       5.318   3.808  16.001  0.00  0.00    +0.000 A 
ATOM     23  C   UNL     1       5.795   4.956  15.364  0.00  0.00    +0.000 A 
ATOM     24  C   UNL     1       5.366   6.210  15.800  0.00  0.00    +0.000 A 
ATOM     25  C   UNL     1       4.493   6.316  16.885  0.00  0.00    +0.000 A 
BRANCH  23  26
ATOM     26  C   UNL     1       6.778   4.867  14.243  0.00  0.00    +0.000 C 
ATOM     27  N   UNL     1       6.559   3.973  13.223  0.00  0.00    +0.000 N 
ATOM     28  N   UNL     1       7.817   5.654  14.271  0.00  0.00    +0.000 NA
ATOM     29  H   UNL     1       5.600   3.917  12.906  0.00  0.00    +0.000 HD
ATOM     30  H   UNL     1       7.202   4.178  12.460  0.00  0.00    +0.000 HD
BRANCH  28  31
ATOM     31  O   UNL     1       8.634   5.455  13.145  0.00  0.00    +0.000 OA
ATOM     32  H   UNL     1       9.518   5.382  13.552  0.00  0.00    +0.000 HD
ENDBRANCH  28  31
ENDBRANCH  23  26
ENDBRANCH   5  20
TORSDOF 6
ENDMDL
MODEL 5
REMARK VINA RESULT:      -8.1      3.634     10.279
REMARK  Name = 
REMARK  6 active torsions:
REMARK  status: ('A' for Active; 'I' for Inactive)
REMARK    1  A    between atoms: C_2  and  C_5
REMARK    2  A    between atoms: N_3  and  O_4
REMARK    3  A    between atoms: C_8  and  C_9
REMARK    4  A    between atoms: C_13  and  C_14
REMARK    5  A    between atoms: C_17  and  C_18
REMARK    6  A    between atoms: N_20  and  O_21
REMARK                            x       y       z     vdW  Elec       q    Type
REMARK                         _______ _______ _______ _____ _____    ______ ____
ROOT
ATOM      1  C   UNL     1       1.907   8.569  18.988  0.00  0.00    +0.000 A 
ATOM      2  C   UNL     1       2.385   9.384  17.963  0.00  0.00    +0.000 A 
ATOM      3  N   UNL     1       1.993  10.665  17.784  0.00  0.00    +0.000 NA
ATOM      4  C   UNL     1       1.096  11.114  18.692  0.00  0.00    +0.000 A 
ATOM      5  C   UNL     1       0.613  10.347  19.753  0.00  0.00    +0.000 A 
ATOM      6  N   UNL     1       1.017   9.056  19.900  0.00  0.00    +0.000 NA
ENDROOT
BRANCH   1  10
ATOM      7  C   UNL     1       3.132   4.465  19.444  0.00  0.00    +0.000 A 
ATOM      8  C   UNL     1       3.512   5.194  18.315  0.00  0.00    +0.000 A 
ATOM      9  C   UNL     1       3.101   6.523  18.170  0.00  0.00    +0.000 A 
ATOM     10  C   UNL     1       2.306   7.156  19.144  0.00  0.00    +0.000 A 
ATOM     11  C   UNL     1       1.928   6.395  20.268  0.00  0.00    +0.000 A 
ATOM     12  C   UNL     1       2.328   5.063  20.415  0.00  0.00    +0.000 A 
BRANCH   7  14
ATOM     13  N   UNL     1       2.686   2.042  19.574  0.00  0.00    +0.000 N 
ATOM     14  C   UNL     1       3.606   3.064  19.629  0.00  0.00    +0.000 C 
ATOM     15  N   UNL     1       4.879   2.852  19.813  0.00  0.00    +0.000 NA
ATOM     16  H   UNL     1       3.174   1.154  19.484  0.00  0.00    +0.000 HD
ATOM     17  H   UNL     1       1.966   2.157  18.870  0.00  0.00    +0.000 HD
BRANCH  15  18
ATOM     18  O   UNL     1       5.141   1.478  19.944  0.00  0.00    +0.000 OA
ATOM     19  H   UNL     1       4.334   1.083  19.567  0.00  0.00    +0.000 HD
ENDBRANCH  15  18
ENDBRANCH   7  14
ENDBRANCH   1  10
BRANCH   5  20
ATOM     20  C   UNL     1      -0.370  10.866  20.728  0.00  0.00    +0.000 A 
ATOM     21  C   UNL     1      -1.338  11.821  20.359  0.00  0.00    +0.000 A 
ATOM     22  C   UNL     1      -2.209  12.382  21.305  0.00  0.00    +0.000 A 
ATOM     23  C   UNL     1      -2.128  11.997  22.645  0.00  0.00    +0.000 A 
ATOM     24  C   UNL     1      -1.207  11.020  23.023  0.00  0.00    +0.000 A 
ATOM     25  C   UNL     1      -0.351  10.456  22.075  0.00  0.00    +0.000 A 
BRANCH  23  26
ATOM     26  C   UNL     1      -2.991  12.633  23.685  0.00  0.00    +0.000 C 
ATOM     27  N   UNL     1      -2.772  13.943  24.035  0.00  0.00    +0.000 N 
ATOM     28  N   UNL     1      -3.936  11.915  24.225  0.00  0.00    +0.000 NA
ATOM     29  H   UNL     1      -2.574  14.563  23.260  0.00  0.00    +0.000 HD
ATOM     30  H   UNL     1      -3.556  14.272  24.596  0.00  0.00    +0.000 HD
BRANCH  28  31
ATOM     31  O   UNL     1      -4.660  12.660  25.171  0.00  0.00    +0.000 OA
ATOM     32  H   UNL     1      -5.573  12.358  25.004  0.00  0.00    +0.000 HD
ENDBRANCH  28  31
ENDBRANCH  23  26
ENDBRANCH   5  20
TORSDOF 6
ENDMDL
MODEL 6
REMARK VINA RESULT:      -8.1      3.724     10.322
REMARK  Name = 
REMARK  6 active torsions:
REMARK  status: ('A' for Active; 'I' for Inactive)
REMARK    1  A    between atoms: C_2  and  C_5
REMARK    2  A    between atoms: N_3  and  O_4
REMARK    3  A    between atoms: C_8  and  C_9
REMARK    4  A    between atoms: C_13  and  C_14
REMARK    5  A    between atoms: C_17  and  C_18
REMARK    6  A    between atoms: N_20  and  O_21
REMARK                            x       y       z     vdW  Elec       q    Type
REMARK                         _______ _______ _______ _____ _____    ______ ____
ROOT
ATOM      1  C   UNL     1       1.804   8.489  19.142  0.00  0.00    +0.000 A 
ATOM      2  C   UNL     1       2.123   9.169  17.966  0.00  0.00    +0.000 A 
ATOM      3  N   UNL     1       1.678  10.412  17.681  0.00  0.00    +0.000 NA
ATOM      4  C   UNL     1       0.895  10.967  18.635  0.00  0.00    +0.000 A 
ATOM      5  C   UNL     1       0.575  10.340  19.839  0.00  0.00    +0.000 A 
ATOM      6  N   UNL     1       1.028   9.082  20.094  0.00  0.00    +0.000 NA
ENDROOT
BRANCH   1  10
ATOM      7  C   UNL     1       3.184   4.493  19.964  0.00  0.00    +0.000 A 
ATOM      8  C   UNL     1       3.655   5.187  18.848  0.00  0.00    +0.000 A 
ATOM      9  C   UNL     1       3.193   6.480  18.582  0.00  0.00    +0.000 A 
ATOM     10  C   UNL     1       2.257   7.112  19.421  0.00  0.00    +0.000 A 
ATOM     11  C   UNL     1       1.789   6.386  20.535  0.00  0.00    +0.000 A 
ATOM     12  C   UNL     1       2.240   5.088  20.801  0.00  0.00    +0.000 A 
BRANCH   7  14
ATOM     13  N   UNL     1       2.997   2.337  21.149  0.00  0.00    +0.000 N 
ATOM     14  C   UNL     1       3.707   3.133  20.280  0.00  0.00    +0.000 C 
ATOM     15  N   UNL     1       4.807   2.736  19.705  0.00  0.00    +0.000 NA
ATOM     16  H   UNL     1       3.339   1.381  21.086  0.00  0.00    +0.000 HD
ATOM     17  H   UNL     1       1.990   2.390  21.047  0.00  0.00    +0.000 HD
BRANCH  15  18
ATOM     18  O   UNL     1       5.133   1.428  20.102  0.00  0.00    +0.000 OA
ATOM     19  H   UNL     1       4.436   1.238  20.757  0.00  0.00    +0.000 HD
ENDBRANCH  15  18
ENDBRANCH   7  14
ENDBRANCH   1  10
BRANCH   5  20
ATOM     20  C   UNL     1      -0.286  10.971  20.863  0.00  0.00    +0.000 A 
ATOM     21  C   UNL     1      -0.365  10.459  22.173  0.00  0.00    +0.000 A 
ATOM     22  C   UNL     1      -1.251  11.000  23.116  0.00  0.00    +0.000 A 
ATOM     23  C   UNL     1      -2.080  12.069  22.766  0.00  0.00    +0.000 A 
ATOM     24  C   UNL     1      -1.985  12.619  21.487  0.00  0.00    +0.000 A 
ATOM     25  C   UNL     1      -1.092  12.084  20.557  0.00  0.00    +0.000 A 
BRANCH  23  26
ATOM     26  C   UNL     1      -3.085  12.614  23.725  0.00  0.00    +0.000 C 
ATOM     27  N   UNL     1      -3.008  13.932  24.108  0.00  0.00    +0.000 N 
ATOM     28  N   UNL     1      -4.015  11.813  24.165  0.00  0.00    +0.000 NA
ATOM     29  H   UNL     1      -2.790  14.579  23.362  0.00  0.00    +0.000 HD
ATOM     30  H   UNL     1      -3.865  14.186  24.596  0.00  0.00    +0.000 HD
BRANCH  28  31
ATOM     31  O   UNL     1      -4.883  12.480  25.046  0.00  0.00    +0.000 OA
ATOM     32  H   UNL     1      -4.498  12.253  25.913  0.00  0.00    +0.000 HD
ENDBRANCH  28  31
ENDBRANCH  23  26
ENDBRANCH   5  20
TORSDOF 6
ENDMDL
MODEL 7
REMARK VINA RESULT:      -8.1      3.714      5.222
REMARK  Name = 
REMARK  6 active torsions:
REMARK  status: ('A' for Active; 'I' for Inactive)
REMARK    1  A    between atoms: C_2  and  C_5
REMARK    2  A    between atoms: N_3  and  O_4
REMARK    3  A    between atoms: C_8  and  C_9
REMARK    4  A    between atoms: C_13  and  C_14
REMARK    5  A    between atoms: C_17  and  C_18
REMARK    6  A    between atoms: N_20  and  O_21
REMARK                            x       y       z     vdW  Elec       q    Type
REMARK                         _______ _______ _______ _____ _____    ______ ____
ROOT
ATOM      1  C   UNL     1       0.587  10.230  19.769  0.00  0.00    +0.000 A 
ATOM      2  C   UNL     1       1.092  10.930  18.674  0.00  0.00    +0.000 A 
ATOM      3  N   UNL     1       1.979  10.406  17.799  0.00  0.00    +0.000 NA
ATOM      4  C   UNL     1       2.344   9.129  18.058  0.00  0.00    +0.000 A 
ATOM      5  C   UNL     1       1.843   8.378  19.122  0.00  0.00    +0.000 A 
ATOM      6  N   UNL     1       0.959   8.936  19.994  0.00  0.00    +0.000 NA
ENDROOT
BRANCH   1  10
ATOM      7  C   UNL     1      -2.082  11.996  22.651  0.00  0.00    +0.000 A 
ATOM      8  C   UNL     1      -1.225  10.960  23.026  0.00  0.00    +0.000 A 
ATOM      9  C   UNL     1      -0.368  10.384  22.081  0.00  0.00    +0.000 A 
ATOM     10  C   UNL     1      -0.344  10.828  20.745  0.00  0.00    +0.000 A 
ATOM     11  C   UNL     1      -1.228  11.867  20.391  0.00  0.00    +0.000 A 
ATOM     12  C   UNL     1      -2.094  12.440  21.328  0.00  0.00    +0.000 A 
BRANCH   7  14
ATOM     13  N   UNL     1      -2.717  13.953  24.013  0.00  0.00    +0.000 N 
ATOM     14  C   UNL     1      -2.964  12.645  23.662  0.00  0.00    +0.000 C 
ATOM     15  N   UNL     1      -3.952  11.960  24.164  0.00  0.00    +0.000 NA
ATOM     16  H   UNL     1      -3.517  14.323  24.520  0.00  0.00    +0.000 HD
ATOM     17  H   UNL     1      -2.440  14.553  23.245  0.00  0.00    +0.000 HD
BRANCH  15  18
ATOM     18  O   UNL     1      -4.683  12.737  25.079  0.00  0.00    +0.000 OA
ATOM     19  H   UNL     1      -5.119  13.381  24.491  0.00  0.00    +0.000 HD
ENDBRANCH  15  18
ENDBRANCH   7  14
ENDBRANCH   1  10
BRANCH   5  20
ATOM     20  C   UNL     1       2.262   6.984  19.381  0.00  0.00    +0.000 A 
ATOM     21  C   UNL     1       1.705   6.233  20.435  0.00  0.00    +0.000 A 
ATOM     22  C   UNL     1       2.170   4.945  20.739  0.00  0.00    +0.000 A 
ATOM     23  C   UNL     1       3.206   4.380  19.991  0.00  0.00    +0.000 A 
ATOM     24  C   UNL     1       3.741   5.089  18.916  0.00  0.00    +0.000 A 
ATOM     25  C   UNL     1       3.265   6.366  18.610  0.00  0.00    +0.000 A 
BRANCH  23  26
ATOM     26  C   UNL     1       3.770   3.042  20.340  0.00  0.00    +0.000 C 
ATOM     27  N   UNL     1       3.141   2.270  21.286  0.00  0.00    +0.000 N 
ATOM     28  N   UNL     1       4.850   2.649  19.723  0.00  0.00    +0.000 NA
ATOM     29  H   UNL     1       2.131   2.263  21.225  0.00  0.00    +0.000 HD
ATOM     30  H   UNL     1       3.531   1.329  21.259  0.00  0.00    +0.000 HD
BRANCH  28  31
ATOM     31  O   UNL     1       5.243   1.371  20.155  0.00  0.00    +0.000 OA
ATOM     32  H   UNL     1       4.658   1.233  20.924  0.00  0.00    +0.000 HD
ENDBRANCH  28  31
ENDBRANCH  23  26
ENDBRANCH   5  20
TORSDOF 6
ENDMDL
MODEL 8
REMARK VINA RESULT:      -8.1      0.734      9.228
REMARK  Name = 
REMARK  6 active torsions:
REMARK  status: ('A' for Active; 'I' for Inactive)
REMARK    1  A    between atoms: C_2  and  C_5
REMARK    2  A    between atoms: N_3  and  O_4
REMARK    3  A    between atoms: C_8  and  C_9
REMARK    4  A    between atoms: C_13  and  C_14
REMARK    5  A    between atoms: C_17  and  C_18
REMARK    6  A    between atoms: N_20  and  O_21
REMARK                            x       y       z     vdW  Elec       q    Type
REMARK                         _______ _______ _______ _____ _____    ______ ____
ROOT
ATOM      1  C   UNL     1       3.224   5.308  18.819  0.00  0.00    +0.000 A 
ATOM      2  C   UNL     1       2.913   4.230  19.648  0.00  0.00    +0.000 A 
ATOM      3  N   UNL     1       2.143   4.338  20.753  0.00  0.00    +0.000 NA
ATOM      4  C   UNL     1       1.677   5.584  21.000  0.00  0.00    +0.000 A 
ATOM      5  C   UNL     1       1.934   6.686  20.184  0.00  0.00    +0.000 A 
ATOM      6  N   UNL     1       2.723   6.549  19.083  0.00  0.00    +0.000 NA
ENDROOT
BRANCH   1  10
ATOM      7  C   UNL     1       5.840   4.991  15.413  0.00  0.00    +0.000 A 
ATOM      8  C   UNL     1       5.376   6.239  15.833  0.00  0.00    +0.000 A 
ATOM      9  C   UNL     1       4.518   6.332  16.933  0.00  0.00    +0.000 A 
ATOM     10  C   UNL     1       4.106   5.188  17.642  0.00  0.00    +0.000 A 
ATOM     11  C   UNL     1       4.580   3.939  17.191  0.00  0.00    +0.000 A 
ATOM     12  C   UNL     1       5.430   3.839  16.085  0.00  0.00    +0.000 A 
BRANCH   7  14
ATOM     13  N   UNL     1       6.526   3.986  13.267  0.00  0.00    +0.000 N 
ATOM     14  C   UNL     1       6.792   4.888  14.270  0.00  0.00    +0.000 C 
ATOM     15  N   UNL     1       7.833   5.672  14.250  0.00  0.00    +0.000 NA
ATOM     16  H   UNL     1       7.118   4.188  12.465  0.00  0.00    +0.000 HD
ATOM     17  H   UNL     1       5.548   3.912  13.011  0.00  0.00    +0.000 HD
BRANCH  15  18
ATOM     18  O   UNL     1       8.600   5.452  13.093  0.00  0.00    +0.000 OA
ATOM     19  H   UNL     1       9.434   5.112  13.469  0.00  0.00    +0.000 HD
ENDBRANCH  15  18
ENDBRANCH   7  14
ENDBRANCH   1  10
BRANCH   5  20
ATOM     20  C   UNL     1       1.412   8.037  20.481  0.00  0.00    +0.000 A 
ATOM     21  C   UNL     1       1.267   9.007  19.470  0.00  0.00    +0.000 A 
ATOM     22  C   UNL     1       0.861  10.317  19.767  0.00  0.00    +0.000 A 
ATOM     23  C   UNL     1       0.592  10.683  21.087  0.00  0.00    +0.000 A 
ATOM     24  C   UNL     1       0.686   9.726  22.097  0.00  0.00    +0.000 A 
ATOM     25  C   UNL     1       1.079   8.420  21.793  0.00  0.00    +0.000 A 
BRANCH  23  26
ATOM     26  C   UNL     1       0.232  12.089  21.441  0.00  0.00    +0.000 C 
ATOM     27  N   UNL     1       0.540  13.105  20.569  0.00  0.00    +0.000 N 
ATOM     28  N   UNL     1      -0.375  12.302  22.575  0.00  0.00    +0.000 NA
ATOM     29  H   UNL     1       0.373  12.893  19.593  0.00  0.00    +0.000 HD
ATOM     30  H   UNL     1       0.058  13.952  20.863  0.00  0.00    +0.000 HD
BRANCH  28  31
ATOM     31  O   UNL     1      -0.652  13.668  22.752  0.00  0.00    +0.000 OA
ATOM     32  H   UNL     1      -1.391  13.640  23.388  0.00  0.00    +0.000 HD
ENDBRANCH  28  31
ENDBRANCH  23  26
ENDBRANCH   5  20
TORSDOF 6
ENDMDL
MODEL 9
REMARK VINA RESULT:      -8.1      0.640      1.310
REMARK  Name = 
REMARK  6 active torsions:
REMARK  status: ('A' for Active; 'I' for Inactive)
REMARK    1  A    between atoms: C_2  and  C_5
REMARK    2  A    between atoms: N_3  and  O_4
REMARK    3  A    between atoms: C_8  and  C_9
REMARK    4  A    between atoms: C_13  and  C_14
REMARK    5  A    between atoms: C_17  and  C_18
REMARK    6  A    between atoms: N_20  and  O_21
REMARK                            x       y       z     vdW  Elec       q    Type
REMARK                         _______ _______ _______ _____ _____    ______ ____
ROOT
ATOM      1  C   UNL     1       2.001   7.049  19.935  0.00  0.00    +0.000 A 
ATOM      2  C   UNL     1       1.760   6.025  20.851  0.00  0.00    +0.000 A 
ATOM      3  N   UNL     1       2.297   4.790  20.747  0.00  0.00    +0.000 NA
ATOM      4  C   UNL     1       3.108   4.614  19.678  0.00  0.00    +0.000 A 
ATOM      5  C   UNL     1       3.404   5.615  18.753  0.00  0.00    +0.000 A 
ATOM      6  N   UNL     1       2.839   6.847  18.878  0.00  0.00    +0.000 NA
ENDROOT
BRANCH   1  10
ATOM      7  C   UNL     1       0.201  10.948  20.265  0.00  0.00    +0.000 A 
ATOM      8  C   UNL     1       0.218  10.083  21.361  0.00  0.00    +0.000 A 
ATOM      9  C   UNL     1       0.795   8.814  21.242  0.00  0.00    +0.000 A 
ATOM     10  C   UNL     1       1.369   8.380  20.033  0.00  0.00    +0.000 A 
ATOM     11  C   UNL     1       1.330   9.267  18.939  0.00  0.00    +0.000 A 
ATOM     12  C   UNL     1       0.746  10.534  19.049  0.00  0.00    +0.000 A 
BRANCH   7  14
ATOM     13  N   UNL     1      -0.115  13.033  21.546  0.00  0.00    +0.000 N 
ATOM     14  C   UNL     1      -0.369  12.319  20.398  0.00  0.00    +0.000 C 
ATOM     15  N   UNL     1      -1.071  12.803  19.413  0.00  0.00    +0.000 NA
ATOM     16  H   UNL     1      -0.362  14.008  21.398  0.00  0.00    +0.000 HD
ATOM     17  H   UNL     1       0.825  12.928  21.912  0.00  0.00    +0.000 HD
BRANCH  15  18
ATOM     18  O   UNL     1      -1.506  14.107  19.704  0.00  0.00    +0.000 OA
ATOM     19  H   UNL     1      -1.981  14.346  18.887  0.00  0.00    +0.000 HD
ENDBRANCH  15  18
ENDBRANCH   7  14
ENDBRANCH   1  10
BRANCH   5  20
ATOM     20  C   UNL     1       4.293   5.391  17.593  0.00  0.00    +0.000 A 
ATOM     21  C   UNL     1       4.680   6.451  16.749  0.00  0.00    +0.000 A 
ATOM     22  C   UNL     1       5.447   6.224  15.596  0.00  0.00    +0.000 A 
ATOM     23  C   UNL     1       5.842   4.926  15.263  0.00  0.00    +0.000 A 
ATOM     24  C   UNL     1       5.507   3.869  16.109  0.00  0.00    +0.000 A 
ATOM     25  C   UNL     1       4.755   4.103  17.262  0.00  0.00    +0.000 A 
BRANCH  23  26
ATOM     26  C   UNL     1       6.592   4.647  14.002  0.00  0.00    +0.000 C 
ATOM     27  N   UNL     1       7.750   5.339  13.738  0.00  0.00    +0.000 N 
ATOM     28  N   UNL     1       6.120   3.741  13.192  0.00  0.00    +0.000 NA
ATOM     29  H   UNL     1       8.360   5.467  14.535  0.00  0.00    +0.000 HD
ATOM     30  H   UNL     1       8.230   4.895  12.957  0.00  0.00    +0.000 HD
BRANCH  28  31
ATOM     31  O   UNL     1       6.944   3.591  12.064  0.00  0.00    +0.000 OA
ATOM     32  H   UNL     1       7.816   3.844  12.421  0.00  0.00    +0.000 HD
ENDBRANCH  28  31
ENDBRANCH  23  26
ENDBRANCH   5  20
TORSDOF 6
ENDMDL
