MODEL 1
REMARK VINA RESULT:      -8.5      0.000      0.000
REMARK  Name = 
REMARK  8 active torsions:
REMARK  status: ('A' for Active; 'I' for Inactive)
REMARK    1  A    between atoms: C_2  and  C_3
REMARK    2  A    between atoms: C_3  and  N_4
REMARK    3  A    between atoms: C_5  and  C_7
REMARK    4  A    between atoms: C_7  and  C_8
REMARK    5  A    between atoms: C_7  and  C_9
REMARK    6  A    between atoms: C_12  and  C_13
REMARK    7  A    between atoms: C_18  and  C_19
REMARK    8  A    between atoms: C_21  and  O_22
REMARK                            x       y       z     vdW  Elec       q    Type
REMARK                         _______ _______ _______ _____ _____    ______ ____
ROOT
ATOM      1  C   UNL     1       4.002   5.769  18.695  0.00  0.00    +0.000 C 
ATOM      2  C   UNL     1       2.601   6.129  19.312  0.00  0.00    +0.000 C 
ATOM      3  C   UNL     1       2.267   5.404  20.691  0.00  0.00    +0.000 C 
ATOM      4  C   UNL     1       2.341   3.867  20.503  0.00  0.00    +0.000 C 
ATOM      5  C   UNL     1       2.251   2.949  21.735  0.00  0.00    +0.000 C 
ATOM      6  C   UNL     1       1.037   3.632  19.759  0.00  0.00    +0.000 C 
ATOM      7  C   UNL     1       0.964   3.354  18.466  0.00  0.00    +0.000 C 
ATOM      8  C   UNL     1       2.209   3.084  17.730  0.00  0.00    +0.000 C 
ATOM      9  O   UNL     1       2.194   2.993  16.521  0.00  0.00    +0.000 OA
ATOM     10  C   UNL     1       3.484   2.848  18.538  0.00  0.00    +0.000 C 
ATOM     11  C   UNL     1       3.807   1.385  18.364  0.00  0.00    +0.000 C 
ATOM     12  C   UNL     1       3.663   3.531  19.717  0.00  0.00    +0.000 C 
ATOM     13  C   UNL     1       4.620   4.872  19.759  0.00  0.00    +0.000 C 
ENDROOT
BRANCH   1  14
ATOM     14  C   UNL     1       4.531   6.907  17.769  0.00  0.00    +0.000 C 
ATOM     15  C   UNL     1       3.292   7.724  17.279  0.00  0.00    +0.000 C 
BRANCH  14  17
ATOM     16  N   UNL     1       6.866   6.736  16.777  0.00  0.00    +0.000 N 
ATOM     17  C   UNL     1       5.516   6.745  16.621  0.00  0.00    +0.000 C 
ATOM     18  O   UNL     1       5.087   6.497  15.486  0.00  0.00    +0.000 OA
ATOM     19  H   UNL     1       7.344   6.510  15.886  0.00  0.00    +0.000 HD
BRANCH  16  20
ATOM     20  C   UNL     1       7.697   7.164  17.846  0.00  0.00    +0.000 C 
BRANCH  20  22
ATOM     21  C   UNL     1       8.656   9.432  18.434  0.00  0.00    +0.000 C 
ATOM     22  C   UNL     1       7.854   8.649  17.711  0.00  0.00    +0.000 C 
ENDBRANCH  20  22
ENDBRANCH  16  20
ENDBRANCH  14  17
ENDBRANCH   1  14
BRANCH  13  23
ATOM     23  O   UNL     1       6.003   4.688  19.695  0.00  0.00    +0.000 OA
ATOM     24  H   UNL     1       6.146   4.128  18.906  0.00  0.00    +0.000 HD
ENDBRANCH  13  23
TORSDOF 5
ENDMDL
MODEL 2
REMARK VINA RESULT:      -8.4      1.525      1.901
REMARK  Name = 
REMARK  8 active torsions:
REMARK  status: ('A' for Active; 'I' for Inactive)
REMARK    1  A    between atoms: C_2  and  C_3
REMARK    2  A    between atoms: C_3  and  N_4
REMARK    3  A    between atoms: C_5  and  C_7
REMARK    4  A    between atoms: C_7  and  C_8
REMARK    5  A    between atoms: C_7  and  C_9
REMARK    6  A    between atoms: C_12  and  C_13
REMARK    7  A    between atoms: C_18  and  C_19
REMARK    8  A    between atoms: C_21  and  O_22
REMARK                            x       y       z     vdW  Elec       q    Type
REMARK                         _______ _______ _______ _____ _____    ______ ____
ROOT
ATOM      1  C   UNL     1       4.721   5.043  17.654  0.00  0.00    +0.000 C 
ATOM      2  C   UNL     1       3.204   5.379  17.411  0.00  0.00    +0.000 C 
ATOM      3  C   UNL     1       2.381   5.759  18.722  0.00  0.00    +0.000 C 
ATOM      4  C   UNL     1       2.469   4.600  19.746  0.00  0.00    +0.000 C 
ATOM      5  C   UNL     1       1.920   4.806  21.170  0.00  0.00    +0.000 C 
ATOM      6  C   UNL     1       1.507   3.613  19.108  0.00  0.00    +0.000 C 
ATOM      7  C   UNL     1       1.887   2.511  18.478  0.00  0.00    +0.000 C 
ATOM      8  C   UNL     1       3.303   2.117  18.540  0.00  0.00    +0.000 C 
ATOM      9  O   UNL     1       3.715   1.215  17.842  0.00  0.00    +0.000 OA
ATOM     10  C   UNL     1       4.201   2.820  19.556  0.00  0.00    +0.000 C 
ATOM     11  C   UNL     1       4.519   1.780  20.601  0.00  0.00    +0.000 C 
ATOM     12  C   UNL     1       3.972   4.144  19.846  0.00  0.00    +0.000 C 
ATOM     13  C   UNL     1       4.894   5.316  19.143  0.00  0.00    +0.000 C 
ENDROOT
BRANCH   1  14
ATOM     14  C   UNL     1       5.579   5.304  16.379  0.00  0.00    +0.000 C 
ATOM     15  C   UNL     1       5.187   4.221  15.323  0.00  0.00    +0.000 C 
BRANCH  14  17
ATOM     16  N   UNL     1       7.707   6.592  16.907  0.00  0.00    +0.000 N 
ATOM     17  C   UNL     1       7.083   5.526  16.339  0.00  0.00    +0.000 C 
ATOM     18  O   UNL     1       7.814   4.646  15.864  0.00  0.00    +0.000 OA
ATOM     19  H   UNL     1       8.737   6.496  16.854  0.00  0.00    +0.000 HD
BRANCH  16  20
ATOM     20  C   UNL     1       7.214   7.849  17.351  0.00  0.00    +0.000 C 
BRANCH  20  22
ATOM     21  C   UNL     1       8.601   9.776  18.228  0.00  0.00    +0.000 C 
ATOM     22  C   UNL     1       8.298   8.479  18.173  0.00  0.00    +0.000 C 
ENDBRANCH  20  22
ENDBRANCH  16  20
ENDBRANCH  14  17
ENDBRANCH   1  14
BRANCH  13  23
ATOM     23  O   UNL     1       6.203   5.477  19.601  0.00  0.00    +0.000 OA
ATOM     24  H   UNL     1       6.553   6.240  19.101  0.00  0.00    +0.000 HD
ENDBRANCH  13  23
TORSDOF 5
ENDMDL
MODEL 3
REMARK VINA RESULT:      -8.2      1.740      2.589
REMARK  Name = 
REMARK  8 active torsions:
REMARK  status: ('A' for Active; 'I' for Inactive)
REMARK    1  A    between atoms: C_2  and  C_3
REMARK    2  A    between atoms: C_3  and  N_4
REMARK    3  A    between atoms: C_5  and  C_7
REMARK    4  A    between atoms: C_7  and  C_8
REMARK    5  A    between atoms: C_7  and  C_9
REMARK    6  A    between atoms: C_12  and  C_13
REMARK    7  A    between atoms: C_18  and  C_19
REMARK    8  A    between atoms: C_21  and  O_22
REMARK                            x       y       z     vdW  Elec       q    Type
REMARK                         _______ _______ _______ _____ _____    ______ ____
ROOT
ATOM      1  C   UNL     1       4.719   5.780  18.183  0.00  0.00    +0.000 C 
ATOM      2  C   UNL     1       3.364   6.478  18.570  0.00  0.00    +0.000 C 
ATOM      3  C   UNL     1       2.776   6.065  19.992  0.00  0.00    +0.000 C 
ATOM      4  C   UNL     1       2.568   4.529  20.043  0.00  0.00    +0.000 C 
ATOM      5  C   UNL     1       2.195   3.861  21.378  0.00  0.00    +0.000 C 
ATOM      6  C   UNL     1       1.315   4.406  19.193  0.00  0.00    +0.000 C 
ATOM      7  C   UNL     1       1.305   3.933  17.956  0.00  0.00    +0.000 C 
ATOM      8  C   UNL     1       2.535   3.330  17.421  0.00  0.00    +0.000 C 
ATOM      9  O   UNL     1       2.610   3.042  16.245  0.00  0.00    +0.000 OA
ATOM     10  C   UNL     1       3.663   3.011  18.399  0.00  0.00    +0.000 C 
ATOM     11  C   UNL     1       3.713   1.506  18.482  0.00  0.00    +0.000 C 
ATOM     12  C   UNL     1       3.865   3.839  19.478  0.00  0.00    +0.000 C 
ATOM     13  C   UNL     1       5.056   4.979  19.433  0.00  0.00    +0.000 C 
ENDROOT
BRANCH   1  14
ATOM     14  C   UNL     1       5.537   6.636  17.169  0.00  0.00    +0.000 C 
ATOM     15  C   UNL     1       4.576   7.016  15.996  0.00  0.00    +0.000 C 
BRANCH  14  17
ATOM     16  N   UNL     1       7.165   5.187  15.860  0.00  0.00    +0.000 N 
ATOM     17  C   UNL     1       6.908   6.293  16.606  0.00  0.00    +0.000 C 
ATOM     18  O   UNL     1       7.834   7.108  16.727  0.00  0.00    +0.000 OA
ATOM     19  H   UNL     1       8.134   5.199  15.493  0.00  0.00    +0.000 HD
BRANCH  16  20
ATOM     20  C   UNL     1       6.440   3.978  15.681  0.00  0.00    +0.000 C 
BRANCH  20  22
ATOM     21  C   UNL     1       6.216   3.702  13.174  0.00  0.00    +0.000 C 
ATOM     22  C   UNL     1       5.738   4.080  14.360  0.00  0.00    +0.000 C 
ENDBRANCH  20  22
ENDBRANCH  16  20
ENDBRANCH  14  17
ENDBRANCH   1  14
BRANCH  13  23
ATOM     23  O   UNL     1       6.377   4.545  19.561  0.00  0.00    +0.000 OA
ATOM     24  H   UNL     1       6.365   3.919  20.312  0.00  0.00    +0.000 HD
ENDBRANCH  13  23
TORSDOF 5
ENDMDL
MODEL 4
REMARK VINA RESULT:      -8.0      1.063      1.295
REMARK  Name = 
REMARK  8 active torsions:
REMARK  status: ('A' for Active; 'I' for Inactive)
REMARK    1  A    between atoms: C_2  and  C_3
REMARK    2  A    between atoms: C_3  and  N_4
REMARK    3  A    between atoms: C_5  and  C_7
REMARK    4  A    between atoms: C_7  and  C_8
REMARK    5  A    between atoms: C_7  and  C_9
REMARK    6  A    between atoms: C_12  and  C_13
REMARK    7  A    between atoms: C_18  and  C_19
REMARK    8  A    between atoms: C_21  and  O_22
REMARK                            x       y       z     vdW  Elec       q    Type
REMARK                         _______ _______ _______ _____ _____    ______ ____
ROOT
ATOM      1  C   UNL     1       4.709   5.788  18.262  0.00  0.00    +0.000 C 
ATOM      2  C   UNL     1       3.340   6.485  18.599  0.00  0.00    +0.000 C 
ATOM      3  C   UNL     1       2.708   6.082  20.005  0.00  0.00    +0.000 C 
ATOM      4  C   UNL     1       2.505   4.546  20.064  0.00  0.00    +0.000 C 
ATOM      5  C   UNL     1       2.092   3.889  21.393  0.00  0.00    +0.000 C 
ATOM      6  C   UNL     1       1.280   4.410  19.176  0.00  0.00    +0.000 C 
ATOM      7  C   UNL     1       1.311   3.925  17.943  0.00  0.00    +0.000 C 
ATOM      8  C   UNL     1       2.560   3.321  17.454  0.00  0.00    +0.000 C 
ATOM      9  O   UNL     1       2.674   3.023  16.284  0.00  0.00    +0.000 OA
ATOM     10  C   UNL     1       3.658   3.017  18.471  0.00  0.00    +0.000 C 
ATOM     11  C   UNL     1       3.710   1.513  18.570  0.00  0.00    +0.000 C 
ATOM     12  C   UNL     1       3.822   3.856  19.547  0.00  0.00    +0.000 C 
ATOM     13  C   UNL     1       5.009   5.000  19.530  0.00  0.00    +0.000 C 
ENDROOT
BRANCH   1  14
ATOM     14  C   UNL     1       5.556   6.638  17.266  0.00  0.00    +0.000 C 
ATOM     15  C   UNL     1       4.890   6.508  15.858  0.00  0.00    +0.000 C 
BRANCH  14  17
ATOM     16  N   UNL     1       7.887   7.642  17.407  0.00  0.00    +0.000 N 
ATOM     17  C   UNL     1       7.069   6.598  17.114  0.00  0.00    +0.000 C 
ATOM     18  O   UNL     1       7.620   5.530  16.813  0.00  0.00    +0.000 OA
ATOM     19  H   UNL     1       8.884   7.370  17.332  0.00  0.00    +0.000 HD
BRANCH  16  20
ATOM     20  C   UNL     1       7.626   9.027  17.585  0.00  0.00    +0.000 C 
BRANCH  20  22
ATOM     21  C   UNL     1       9.282  10.758  18.404  0.00  0.00    +0.000 C 
ATOM     22  C   UNL     1       8.695   9.563  18.489  0.00  0.00    +0.000 C 
ENDBRANCH  20  22
ENDBRANCH  16  20
ENDBRANCH  14  17
ENDBRANCH   1  14
BRANCH  13  23
ATOM     23  O   UNL     1       6.327   4.574  19.704  0.00  0.00    +0.000 OA
ATOM     24  H   UNL     1       6.253   3.657  20.038  0.00  0.00    +0.000 HD
ENDBRANCH  13  23
TORSDOF 5
ENDMDL
MODEL 5
REMARK VINA RESULT:      -7.9      1.320      1.675
REMARK  Name = 
REMARK  8 active torsions:
REMARK  status: ('A' for Active; 'I' for Inactive)
REMARK    1  A    between atoms: C_2  and  C_3
REMARK    2  A    between atoms: C_3  and  N_4
REMARK    3  A    between atoms: C_5  and  C_7
REMARK    4  A    between atoms: C_7  and  C_8
REMARK    5  A    between atoms: C_7  and  C_9
REMARK    6  A    between atoms: C_12  and  C_13
REMARK    7  A    between atoms: C_18  and  C_19
REMARK    8  A    between atoms: C_21  and  O_22
REMARK                            x       y       z     vdW  Elec       q    Type
REMARK                         _______ _______ _______ _____ _____    ______ ____
ROOT
ATOM      1  C   UNL     1       4.842   5.105  17.325  0.00  0.00    +0.000 C 
ATOM      2  C   UNL     1       3.602   6.023  17.630  0.00  0.00    +0.000 C 
ATOM      3  C   UNL     1       3.191   6.110  19.167  0.00  0.00    +0.000 C 
ATOM      4  C   UNL     1       2.894   4.688  19.708  0.00  0.00    +0.000 C 
ATOM      5  C   UNL     1       2.668   4.486  21.217  0.00  0.00    +0.000 C 
ATOM      6  C   UNL     1       1.530   4.451  19.084  0.00  0.00    +0.000 C 
ATOM      7  C   UNL     1       1.317   3.637  18.060  0.00  0.00    +0.000 C 
ATOM      8  C   UNL     1       2.419   2.779  17.601  0.00  0.00    +0.000 C 
ATOM      9  O   UNL     1       2.311   2.151  16.569  0.00  0.00    +0.000 OA
ATOM     10  C   UNL     1       3.650   2.648  18.496  0.00  0.00    +0.000 C 
ATOM     11  C   UNL     1       3.613   1.237  19.029  0.00  0.00    +0.000 C 
ATOM     12  C   UNL     1       4.052   3.732  19.239  0.00  0.00    +0.000 C 
ATOM     13  C   UNL     1       5.297   4.678  18.714  0.00  0.00    +0.000 C 
ENDROOT
BRANCH   1  14
ATOM     14  C   UNL     1       5.565   5.534  16.012  0.00  0.00    +0.000 C 
ATOM     15  C   UNL     1       5.195   4.487  14.912  0.00  0.00    +0.000 C 
BRANCH  14  17
ATOM     16  N   UNL     1       7.656   6.822  16.668  0.00  0.00    +0.000 N 
ATOM     17  C   UNL     1       7.033   5.909  15.877  0.00  0.00    +0.000 C 
ATOM     18  O   UNL     1       7.748   5.283  15.083  0.00  0.00    +0.000 OA
ATOM     19  H   UNL     1       8.674   6.850  16.476  0.00  0.00    +0.000 HD
BRANCH  16  20
ATOM     20  C   UNL     1       7.148   7.838  17.520  0.00  0.00    +0.000 C 
BRANCH  20  22
ATOM     21  C   UNL     1       8.630   9.760  18.240  0.00  0.00    +0.000 C 
ATOM     22  C   UNL     1       8.325   8.462  18.209  0.00  0.00    +0.000 C 
ENDBRANCH  20  22
ENDBRANCH  16  20
ENDBRANCH  14  17
ENDBRANCH   1  14
BRANCH  13  23
ATOM     23  O   UNL     1       6.592   4.167  18.818  0.00  0.00    +0.000 OA
ATOM     24  H   UNL     1       7.044   4.754  19.457  0.00  0.00    +0.000 HD
ENDBRANCH  13  23
TORSDOF 5
ENDMDL
MODEL 6
REMARK VINA RESULT:      -7.8      2.559      3.788
REMARK  Name = 
REMARK  8 active torsions:
REMARK  status: ('A' for Active; 'I' for Inactive)
REMARK    1  A    between atoms: C_2  and  C_3
REMARK    2  A    between atoms: C_3  and  N_4
REMARK    3  A    between atoms: C_5  and  C_7
REMARK    4  A    between atoms: C_7  and  C_8
REMARK    5  A    between atoms: C_7  and  C_9
REMARK    6  A    between atoms: C_12  and  C_13
REMARK    7  A    between atoms: C_18  and  C_19
REMARK    8  A    between atoms: C_21  and  O_22
REMARK                            x       y       z     vdW  Elec       q    Type
REMARK                         _______ _______ _______ _____ _____    ______ ____
ROOT
ATOM      1  C   UNL     1       5.460   4.763  17.759  0.00  0.00    +0.000 C 
ATOM      2  C   UNL     1       4.266   5.450  17.001  0.00  0.00    +0.000 C 
ATOM      3  C   UNL     1       3.301   6.326  17.918  0.00  0.00    +0.000 C 
ATOM      4  C   UNL     1       2.719   5.445  19.053  0.00  0.00    +0.000 C 
ATOM      5  C   UNL     1       1.915   6.107  20.186  0.00  0.00    +0.000 C 
ATOM      6  C   UNL     1       1.689   4.653  18.267  0.00  0.00    +0.000 C 
ATOM      7  C   UNL     1       1.831   3.378  17.937  0.00  0.00    +0.000 C 
ATOM      8  C   UNL     1       2.962   2.626  18.500  0.00  0.00    +0.000 C 
ATOM      9  O   UNL     1       3.218   1.513  18.090  0.00  0.00    +0.000 OA
ATOM     10  C   UNL     1       3.740   3.254  19.655  0.00  0.00    +0.000 C 
ATOM     11  C   UNL     1       3.401   2.424  20.868  0.00  0.00    +0.000 C 
ATOM     12  C   UNL     1       3.899   4.619  19.687  0.00  0.00    +0.000 C 
ATOM     13  C   UNL     1       5.312   5.299  19.178  0.00  0.00    +0.000 C 
ENDROOT
BRANCH   1  14
ATOM     14  C   UNL     1       6.662   4.485  16.806  0.00  0.00    +0.000 C 
ATOM     15  C   UNL     1       7.942   4.359  17.694  0.00  0.00    +0.000 C 
BRANCH  14  17
ATOM     16  N   UNL     1       6.413   5.029  14.335  0.00  0.00    +0.000 N 
ATOM     17  C   UNL     1       7.000   5.256  15.539  0.00  0.00    +0.000 C 
ATOM     18  O   UNL     1       7.771   6.224  15.607  0.00  0.00    +0.000 OA
ATOM     19  H   UNL     1       6.713   5.731  13.634  0.00  0.00    +0.000 HD
BRANCH  16  20
ATOM     20  C   UNL     1       5.661   3.929  13.842  0.00  0.00    +0.000 C 
BRANCH  20  22
ATOM     21  C   UNL     1       5.876   2.536  11.739  0.00  0.00    +0.000 C 
ATOM     22  C   UNL     1       6.251   3.554  12.516  0.00  0.00    +0.000 C 
ENDBRANCH  20  22
ENDBRANCH  16  20
ENDBRANCH  14  17
ENDBRANCH   1  14
BRANCH  13  23
ATOM     23  O   UNL     1       6.428   5.182  20.009  0.00  0.00    +0.000 OA
ATOM     24  H   UNL     1       6.066   5.170  20.917  0.00  0.00    +0.000 HD
ENDBRANCH  13  23
TORSDOF 5
ENDMDL
MODEL 7
REMARK VINA RESULT:      -7.7      2.198      3.603
REMARK  Name = 
REMARK  8 active torsions:
REMARK  status: ('A' for Active; 'I' for Inactive)
REMARK    1  A    between atoms: C_2  and  C_3
REMARK    2  A    between atoms: C_3  and  N_4
REMARK    3  A    between atoms: C_5  and  C_7
REMARK    4  A    between atoms: C_7  and  C_8
REMARK    5  A    between atoms: C_7  and  C_9
REMARK    6  A    between atoms: C_12  and  C_13
REMARK    7  A    between atoms: C_18  and  C_19
REMARK    8  A    between atoms: C_21  and  O_22
REMARK                            x       y       z     vdW  Elec       q    Type
REMARK                         _______ _______ _______ _____ _____    ______ ____
ROOT
ATOM      1  C   UNL     1       4.488   4.990  18.355  0.00  0.00    +0.000 C 
ATOM      2  C   UNL     1       4.051   4.118  17.121  0.00  0.00    +0.000 C 
ATOM      3  C   UNL     1       2.482   3.867  16.997  0.00  0.00    +0.000 C 
ATOM      4  C   UNL     1       1.960   3.187  18.288  0.00  0.00    +0.000 C 
ATOM      5  C   UNL     1       0.444   3.020  18.494  0.00  0.00    +0.000 C 
ATOM      6  C   UNL     1       2.471   1.774  18.066  0.00  0.00    +0.000 C 
ATOM      7  C   UNL     1       3.497   1.248  18.719  0.00  0.00    +0.000 C 
ATOM      8  C   UNL     1       4.075   1.996  19.845  0.00  0.00    +0.000 C 
ATOM      9  O   UNL     1       5.112   1.626  20.354  0.00  0.00    +0.000 OA
ATOM     10  C   UNL     1       3.293   3.189  20.393  0.00  0.00    +0.000 C 
ATOM     11  C   UNL     1       2.800   2.759  21.752  0.00  0.00    +0.000 C 
ATOM     12  C   UNL     1       2.555   3.958  19.525  0.00  0.00    +0.000 C 
ATOM     13  C   UNL     1       3.156   5.391  18.975  0.00  0.00    +0.000 C 
ENDROOT
BRANCH   1  14
ATOM     14  C   UNL     1       5.845   5.713  18.095  0.00  0.00    +0.000 C 
ATOM     15  C   UNL     1       5.541   6.979  17.231  0.00  0.00    +0.000 C 
BRANCH  14  17
ATOM     16  N   UNL     1       7.522   5.053  16.301  0.00  0.00    +0.000 N 
ATOM     17  C   UNL     1       7.129   5.062  17.602  0.00  0.00    +0.000 C 
ATOM     18  O   UNL     1       7.932   4.605  18.427  0.00  0.00    +0.000 OA
ATOM     19  H   UNL     1       8.471   4.650  16.200  0.00  0.00    +0.000 HD
BRANCH  16  20
ATOM     20  C   UNL     1       6.808   5.294  15.097  0.00  0.00    +0.000 C 
BRANCH  20  22
ATOM     21  C   UNL     1       6.046   3.700  13.284  0.00  0.00    +0.000 C 
ATOM     22  C   UNL     1       6.430   3.956  14.535  0.00  0.00    +0.000 C 
ENDBRANCH  20  22
ENDBRANCH  16  20
ENDBRANCH  14  17
ENDBRANCH   1  14
BRANCH  13  23
ATOM     23  O   UNL     1       3.179   6.471  19.860  0.00  0.00    +0.000 OA
ATOM     24  H   UNL     1       2.390   7.001  19.631  0.00  0.00    +0.000 HD
ENDBRANCH  13  23
TORSDOF 5
ENDMDL
MODEL 8
REMARK VINA RESULT:      -7.7      1.767      2.793
REMARK  Name = 
REMARK  8 active torsions:
REMARK  status: ('A' for Active; 'I' for Inactive)
REMARK    1  A    between atoms: C_2  and  C_3
REMARK    2  A    between atoms: C_3  and  N_4
REMARK    3  A    between atoms: C_5  and  C_7
REMARK    4  A    between atoms: C_7  and  C_8
REMARK    5  A    between atoms: C_7  and  C_9
REMARK    6  A    between atoms: C_12  and  C_13
REMARK    7  A    between atoms: C_18  and  C_19
REMARK    8  A    between atoms: C_21  and  O_22
REMARK                            x       y       z     vdW  Elec       q    Type
REMARK                         _______ _______ _______ _____ _____    ______ ____
ROOT
ATOM      1  C   UNL     1       4.030   5.253  18.357  0.00  0.00    +0.000 C 
ATOM      2  C   UNL     1       3.669   4.337  17.131  0.00  0.00    +0.000 C 
ATOM      3  C   UNL     1       2.146   3.873  17.063  0.00  0.00    +0.000 C 
ATOM      4  C   UNL     1       1.773   3.120  18.366  0.00  0.00    +0.000 C 
ATOM      5  C   UNL     1       0.303   2.744  18.627  0.00  0.00    +0.000 C 
ATOM      6  C   UNL     1       2.464   1.793  18.107  0.00  0.00    +0.000 C 
ATOM      7  C   UNL     1       3.577   1.408  18.715  0.00  0.00    +0.000 C 
ATOM      8  C   UNL     1       4.090   2.222  19.827  0.00  0.00    +0.000 C 
ATOM      9  O   UNL     1       5.188   1.995  20.292  0.00  0.00    +0.000 OA
ATOM     10  C   UNL     1       3.174   3.292  20.418  0.00  0.00    +0.000 C 
ATOM     11  C   UNL     1       2.799   2.790  21.790  0.00  0.00    +0.000 C 
ATOM     12  C   UNL     1       2.304   3.958  19.587  0.00  0.00    +0.000 C 
ATOM     13  C   UNL     1       2.681   5.464  19.032  0.00  0.00    +0.000 C 
ENDROOT
BRANCH   1  14
ATOM     14  C   UNL     1       5.264   6.158  18.054  0.00  0.00    +0.000 C 
ATOM     15  C   UNL     1       5.156   6.611  16.562  0.00  0.00    +0.000 C 
BRANCH  14  17
ATOM     16  N   UNL     1       7.726   6.739  18.303  0.00  0.00    +0.000 N 
ATOM     17  C   UNL     1       6.714   5.835  18.379  0.00  0.00    +0.000 C 
ATOM     18  O   UNL     1       6.998   4.723  18.847  0.00  0.00    +0.000 OA
ATOM     19  H   UNL     1       8.612   6.341  18.666  0.00  0.00    +0.000 HD
BRANCH  16  20
ATOM     20  C   UNL     1       7.822   7.998  17.654  0.00  0.00    +0.000 C 
BRANCH  20  22
ATOM     21  C   UNL     1       8.897  10.184  18.343  0.00  0.00    +0.000 C 
ATOM     22  C   UNL     1       8.591   8.906  18.566  0.00  0.00    +0.000 C 
ENDBRANCH  20  22
ENDBRANCH  16  20
ENDBRANCH  14  17
ENDBRANCH   1  14
BRANCH  13  23
ATOM     23  O   UNL     1       2.590   6.530  19.928  0.00  0.00    +0.000 OA
ATOM     24  H   UNL     1       1.675   6.861  19.833  0.00  0.00    +0.000 HD
ENDBRANCH  13  23
TORSDOF 5
ENDMDL
MODEL 9
REMARK VINA RESULT:      -7.7      2.465      3.475
REMARK  Name = 
REMARK  8 active torsions:
REMARK  status: ('A' for Active; 'I' for Inactive)
REMARK    1  A    between atoms: C_2  and  C_3
REMARK    2  A    between atoms: C_3  and  N_4
REMARK    3  A    between atoms: C_5  and  C_7
REMARK    4  A    between atoms: C_7  and  C_8
REMARK    5  A    between atoms: C_7  and  C_9
REMARK    6  A    between atoms: C_12  and  C_13
REMARK    7  A    between atoms: C_18  and  C_19
REMARK    8  A    between atoms: C_21  and  O_22
REMARK                            x       y       z     vdW  Elec       q    Type
REMARK                         _______ _______ _______ _____ _____    ______ ____
ROOT
ATOM      1  C   UNL     1       5.027   5.377  17.784  0.00  0.00    +0.000 C 
ATOM      2  C   UNL     1       3.583   5.920  17.483  0.00  0.00    +0.000 C 
ATOM      3  C   UNL     1       2.705   6.249  18.772  0.00  0.00    +0.000 C 
ATOM      4  C   UNL     1       2.578   4.980  19.653  0.00  0.00    +0.000 C 
ATOM      5  C   UNL     1       1.944   5.091  21.051  0.00  0.00    +0.000 C 
ATOM      6  C   UNL     1       1.565   4.196  18.837  0.00  0.00    +0.000 C 
ATOM      7  C   UNL     1       1.868   3.134  18.106  0.00  0.00    +0.000 C 
ATOM      8  C   UNL     1       3.220   2.565  18.214  0.00  0.00    +0.000 C 
ATOM      9  O   UNL     1       3.581   1.704  17.441  0.00  0.00    +0.000 OA
ATOM     10  C   UNL     1       4.108   3.035  19.365  0.00  0.00    +0.000 C 
ATOM     11  C   UNL     1       4.220   1.853  20.296  0.00  0.00    +0.000 C 
ATOM     12  C   UNL     1       4.007   4.336  19.796  0.00  0.00    +0.000 C 
ATOM     13  C   UNL     1       5.110   5.458  19.303  0.00  0.00    +0.000 C 
ENDROOT
BRANCH   1  14
ATOM     14  C   UNL     1       6.009   5.673  16.610  0.00  0.00    +0.000 C 
ATOM     15  C   UNL     1       5.204   6.439  15.511  0.00  0.00    +0.000 C 
BRANCH  14  17
ATOM     16  N   UNL     1       6.724   4.134  14.716  0.00  0.00    +0.000 N 
ATOM     17  C   UNL     1       6.942   4.671  15.945  0.00  0.00    +0.000 C 
ATOM     18  O   UNL     1       8.022   4.398  16.486  0.00  0.00    +0.000 OA
ATOM     19  H   UNL     1       7.530   3.558  14.411  0.00  0.00    +0.000 HD
BRANCH  16  20
ATOM     20  C   UNL     1       5.556   4.059  13.911  0.00  0.00    +0.000 C 
BRANCH  20  22
ATOM     21  C   UNL     1       5.243   2.806  11.734  0.00  0.00    +0.000 C 
ATOM     22  C   UNL     1       5.980   3.537  12.571  0.00  0.00    +0.000 C 
ENDBRANCH  20  22
ENDBRANCH  16  20
ENDBRANCH  14  17
ENDBRANCH   1  14
BRANCH  13  23
ATOM     23  O   UNL     1       6.388   5.405  19.863  0.00  0.00    +0.000 OA
ATOM     24  H   UNL     1       6.276   5.735  20.777  0.00  0.00    +0.000 HD
ENDBRANCH  13  23
TORSDOF 5
ENDMDL
