MODEL 1
REMARK VINA RESULT:      -7.8      0.000      0.000
REMARK  Name = 
REMARK  7 active torsions:
REMARK  status: ('A' for Active; 'I' for Inactive)
REMARK    1  A    between atoms: C_2  and  C_3
REMARK    2  A    between atoms: C_3  and  C_4
REMARK    3  A    between atoms: C_4  and  N_5
REMARK    4  A    between atoms: C_7  and  C_8
REMARK    5  A    between atoms: N_10  and  C_11
REMARK    6  A    between atoms: C_11  and  C_12
REMARK    7  A    between atoms: C_18  and  C_19
REMARK                            x       y       z     vdW  Elec       q    Type
REMARK                         _______ _______ _______ _____ _____    ______ ____
ROOT
ATOM      1  N   UNL     1       7.365   6.541  17.653  0.00  0.00    +0.000 N 
ATOM      2  C   UNL     1       6.220   6.003  18.162  0.00  0.00    +0.000 A 
ATOM      3  C   UNL     1       5.712   5.167  17.185  0.00  0.00    +0.000 A 
ATOM      4  C   UNL     1       6.641   5.291  16.105  0.00  0.00    +0.000 A 
ATOM      5  N   UNL     1       7.672   6.090  16.430  0.00  0.00    +0.000 NA
ENDROOT
BRANCH   4   6
ATOM      6  C   UNL     1       6.524   4.709  14.721  0.00  0.00    +0.000 A 
ATOM      7  C   UNL     1       5.471   3.932  14.278  0.00  0.00    +0.000 A 
ATOM      8  C   UNL     1       5.596   3.568  12.908  0.00  0.00    +0.000 A 
ATOM      9  C   UNL     1       6.758   4.057  12.353  0.00  0.00    +0.000 A 
ATOM     10  S   UNL     1       7.656   4.995  13.470  0.00  0.00    +0.000 S 
ENDBRANCH   4   6
BRANCH   3  11
ATOM     11  C   UNL     1       4.547   4.306  17.267  0.00  0.00    +0.000 C 
ATOM     12  O   UNL     1       3.426   4.687  16.944  0.00  0.00    +0.000 OA
ATOM     13  N   UNL     1       4.765   3.031  17.746  0.00  0.00    +0.000 N 
ATOM     14  H   UNL     1       5.704   2.695  17.904  0.00  0.00    +0.000 HD
BRANCH  13  15
ATOM     15  C   UNL     1       3.658   2.112  17.864  0.00  0.00    +0.000 C 
BRANCH  15  16
ATOM     16  C   UNL     1       2.805   2.390  19.073  0.00  0.00    +0.000 A 
ATOM     17  C   UNL     1       3.376   2.478  20.352  0.00  0.00    +0.000 A 
ATOM     18  C   UNL     1       2.579   2.750  21.467  0.00  0.00    +0.000 A 
ATOM     19  C   UNL     1       1.208   2.946  21.312  0.00  0.00    +0.000 A 
ATOM     20  C   UNL     1       0.635   2.887  20.044  0.00  0.00    +0.000 A 
ATOM     21  C   UNL     1       1.428   2.613  18.930  0.00  0.00    +0.000 A 
ENDBRANCH  15  16
ENDBRANCH  13  15
ENDBRANCH   3  11
BRANCH   1  22
ATOM     22  C   UNL     1       8.217   7.544  18.275  0.00  0.00    +0.000 C 
BRANCH  22  23
ATOM     23  C   UNL     1       7.969   8.951  17.730  0.00  0.00    +0.000 C 
BRANCH  23  25
ATOM     24  N   UNL     1       9.490  10.779  19.171  0.00  0.00    +0.000 NA
ATOM     25  C   UNL     1       8.800   9.951  18.517  0.00  0.00    +0.000 C 
ENDBRANCH  23  25
ENDBRANCH  22  23
ENDBRANCH   1  22
TORSDOF 7
ENDMDL
MODEL 2
REMARK VINA RESULT:      -7.5      4.622      6.871
REMARK  Name = 
REMARK  7 active torsions:
REMARK  status: ('A' for Active; 'I' for Inactive)
REMARK    1  A    between atoms: C_2  and  C_3
REMARK    2  A    between atoms: C_3  and  C_4
REMARK    3  A    between atoms: C_4  and  N_5
REMARK    4  A    between atoms: C_7  and  C_8
REMARK    5  A    between atoms: N_10  and  C_11
REMARK    6  A    between atoms: C_11  and  C_12
REMARK    7  A    between atoms: C_18  and  C_19
REMARK                            x       y       z     vdW  Elec       q    Type
REMARK                         _______ _______ _______ _____ _____    ______ ____
ROOT
ATOM      1  N   UNL     1       2.501   3.823  18.193  0.00  0.00    +0.000 N 
ATOM      2  C   UNL     1       1.818   4.996  18.321  0.00  0.00    +0.000 A 
ATOM      3  C   UNL     1       2.755   6.008  18.212  0.00  0.00    +0.000 A 
ATOM      4  C   UNL     1       3.993   5.317  18.031  0.00  0.00    +0.000 A 
ATOM      5  N   UNL     1       3.811   3.987  17.966  0.00  0.00    +0.000 NA
ENDROOT
BRANCH   4   6
ATOM      6  C   UNL     1       5.377   5.908  17.990  0.00  0.00    +0.000 A 
ATOM      7  C   UNL     1       5.806   6.850  17.075  0.00  0.00    +0.000 A 
ATOM      8  C   UNL     1       7.145   7.272  17.308  0.00  0.00    +0.000 A 
ATOM      9  C   UNL     1       7.708   6.616  18.380  0.00  0.00    +0.000 A 
ATOM     10  S   UNL     1       6.602   5.545  19.128  0.00  0.00    +0.000 S 
ENDBRANCH   4   6
BRANCH   3  11
ATOM     11  C   UNL     1       2.521   7.441  18.206  0.00  0.00    +0.000 C 
ATOM     12  O   UNL     1       2.846   8.154  17.262  0.00  0.00    +0.000 OA
ATOM     13  N   UNL     1       1.924   7.964  19.333  0.00  0.00    +0.000 N 
ATOM     14  H   UNL     1       1.563   7.355  20.053  0.00  0.00    +0.000 HD
BRANCH  13  15
ATOM     15  C   UNL     1       1.661   9.382  19.411  0.00  0.00    +0.000 C 
BRANCH  15  16
ATOM     16  C   UNL     1       0.835   9.750  20.614  0.00  0.00    +0.000 A 
ATOM     17  C   UNL     1       0.715   8.869  21.701  0.00  0.00    +0.000 A 
ATOM     18  C   UNL     1      -0.042   9.224  22.820  0.00  0.00    +0.000 A 
ATOM     19  C   UNL     1      -0.676  10.464  22.868  0.00  0.00    +0.000 A 
ATOM     20  C   UNL     1      -0.543  11.355  21.807  0.00  0.00    +0.000 A 
ATOM     21  C   UNL     1       0.211  11.002  20.687  0.00  0.00    +0.000 A 
ENDBRANCH  15  16
ENDBRANCH  13  15
ENDBRANCH   3  11
BRANCH   1  22
ATOM     22  C   UNL     1       1.965   2.476  18.319  0.00  0.00    +0.000 C 
BRANCH  22  23
ATOM     23  C   UNL     1       0.908   2.359  19.418  0.00  0.00    +0.000 C 
BRANCH  23  25
ATOM     24  N   UNL     1       2.112   2.718  21.898  0.00  0.00    +0.000 NA
ATOM     25  C   UNL     1       1.566   2.554  20.774  0.00  0.00    +0.000 C 
ENDBRANCH  23  25
ENDBRANCH  22  23
ENDBRANCH   1  22
TORSDOF 7
ENDMDL
MODEL 3
REMARK VINA RESULT:      -7.4      5.379      7.021
REMARK  Name = 
REMARK  7 active torsions:
REMARK  status: ('A' for Active; 'I' for Inactive)
REMARK    1  A    between atoms: C_2  and  C_3
REMARK    2  A    between atoms: C_3  and  C_4
REMARK    3  A    between atoms: C_4  and  N_5
REMARK    4  A    between atoms: C_7  and  C_8
REMARK    5  A    between atoms: N_10  and  C_11
REMARK    6  A    between atoms: C_11  and  C_12
REMARK    7  A    between atoms: C_18  and  C_19
REMARK                            x       y       z     vdW  Elec       q    Type
REMARK                         _______ _______ _______ _____ _____    ______ ____
ROOT
ATOM      1  N   UNL     1       4.435   6.278  16.935  0.00  0.00    +0.000 N 
ATOM      2  C   UNL     1       3.866   7.412  17.436  0.00  0.00    +0.000 A 
ATOM      3  C   UNL     1       2.965   7.004  18.403  0.00  0.00    +0.000 A 
ATOM      4  C   UNL     1       3.065   5.578  18.390  0.00  0.00    +0.000 A 
ATOM      5  N   UNL     1       4.006   5.156  17.528  0.00  0.00    +0.000 NA
ENDROOT
BRANCH   4   6
ATOM      6  C   UNL     1       2.214   4.591  19.144  0.00  0.00    +0.000 A 
ATOM      7  C   UNL     1       1.277   3.755  18.569  0.00  0.00    +0.000 A 
ATOM      8  C   UNL     1       0.663   2.885  19.514  0.00  0.00    +0.000 A 
ATOM      9  C   UNL     1       1.132   3.105  20.790  0.00  0.00    +0.000 A 
ATOM     10  S   UNL     1       2.345   4.313  20.828  0.00  0.00    +0.000 S 
ENDBRANCH   4   6
BRANCH   3  11
ATOM     11  C   UNL     1       2.162   7.837  19.279  0.00  0.00    +0.000 C 
ATOM     12  O   UNL     1       2.013   7.582  20.470  0.00  0.00    +0.000 OA
ATOM     13  N   UNL     1       1.557   8.929  18.694  0.00  0.00    +0.000 N 
ATOM     14  H   UNL     1       1.775   9.189  17.743  0.00  0.00    +0.000 HD
BRANCH  13  15
ATOM     15  C   UNL     1       0.736   9.807  19.495  0.00  0.00    +0.000 C 
BRANCH  15  16
ATOM     16  C   UNL     1      -0.511  10.245  18.775  0.00  0.00    +0.000 A 
ATOM     17  C   UNL     1      -0.893   9.644  17.565  0.00  0.00    +0.000 A 
ATOM     18  C   UNL     1      -2.059  10.047  16.910  0.00  0.00    +0.000 A 
ATOM     19  C   UNL     1      -2.858  11.047  17.462  0.00  0.00    +0.000 A 
ATOM     20  C   UNL     1      -2.502  11.632  18.674  0.00  0.00    +0.000 A 
ATOM     21  C   UNL     1      -1.337  11.233  19.329  0.00  0.00    +0.000 A 
ENDBRANCH  15  16
ENDBRANCH  13  15
ENDBRANCH   3  11
BRANCH   1  22
ATOM     22  C   UNL     1       5.386   6.183  15.838  0.00  0.00    +0.000 C 
BRANCH  22  23
ATOM     23  C   UNL     1       6.071   4.818  15.764  0.00  0.00    +0.000 C 
BRANCH  23  25
ATOM     24  N   UNL     1       7.900   4.590  17.846  0.00  0.00    +0.000 NA
ATOM     25  C   UNL     1       7.070   4.693  16.902  0.00  0.00    +0.000 C 
ENDBRANCH  23  25
ENDBRANCH  22  23
ENDBRANCH   1  22
TORSDOF 7
ENDMDL
MODEL 4
REMARK VINA RESULT:      -7.4      4.495      6.693
REMARK  Name = 
REMARK  7 active torsions:
REMARK  status: ('A' for Active; 'I' for Inactive)
REMARK    1  A    between atoms: C_2  and  C_3
REMARK    2  A    between atoms: C_3  and  C_4
REMARK    3  A    between atoms: C_4  and  N_5
REMARK    4  A    between atoms: C_7  and  C_8
REMARK    5  A    between atoms: N_10  and  C_11
REMARK    6  A    between atoms: C_11  and  C_12
REMARK    7  A    between atoms: C_18  and  C_19
REMARK                            x       y       z     vdW  Elec       q    Type
REMARK                         _______ _______ _______ _____ _____    ______ ____
ROOT
ATOM      1  N   UNL     1       3.215   3.908  19.959  0.00  0.00    +0.000 N 
ATOM      2  C   UNL     1       2.848   5.213  19.816  0.00  0.00    +0.000 A 
ATOM      3  C   UNL     1       3.494   5.681  18.686  0.00  0.00    +0.000 A 
ATOM      4  C   UNL     1       4.249   4.556  18.229  0.00  0.00    +0.000 A 
ATOM      5  N   UNL     1       4.022   3.468  18.985  0.00  0.00    +0.000 NA
ENDROOT
BRANCH   4   6
ATOM      6  C   UNL     1       5.254   4.519  17.108  0.00  0.00    +0.000 A 
ATOM      7  C   UNL     1       4.953   4.248  15.787  0.00  0.00    +0.000 A 
ATOM      8  C   UNL     1       6.090   4.337  14.935  0.00  0.00    +0.000 A 
ATOM      9  C   UNL     1       7.233   4.647  15.639  0.00  0.00    +0.000 A 
ATOM     10  S   UNL     1       6.915   4.884  17.305  0.00  0.00    +0.000 S 
ENDBRANCH   4   6
BRANCH   3  11
ATOM     11  C   UNL     1       3.374   6.988  18.068  0.00  0.00    +0.000 C 
ATOM     12  O   UNL     1       4.246   7.452  17.340  0.00  0.00    +0.000 OA
ATOM     13  N   UNL     1       2.225   7.694  18.356  0.00  0.00    +0.000 N 
ATOM     14  H   UNL     1       1.469   7.259  18.865  0.00  0.00    +0.000 HD
BRANCH  13  15
ATOM     15  C   UNL     1       2.029   9.006  17.785  0.00  0.00    +0.000 C 
BRANCH  15  16
ATOM     16  C   UNL     1       0.874   9.740  18.412  0.00  0.00    +0.000 A 
ATOM     17  C   UNL     1      -0.365   9.826  17.759  0.00  0.00    +0.000 A 
ATOM     18  C   UNL     1      -1.436  10.497  18.354  0.00  0.00    +0.000 A 
ATOM     19  C   UNL     1      -1.281  11.079  19.611  0.00  0.00    +0.000 A 
ATOM     20  C   UNL     1      -0.064  10.978  20.280  0.00  0.00    +0.000 A 
ATOM     21  C   UNL     1       1.008  10.310  19.686  0.00  0.00    +0.000 A 
ENDBRANCH  15  16
ENDBRANCH  13  15
ENDBRANCH   3  11
BRANCH   1  22
ATOM     22  C   UNL     1       2.858   3.008  21.046  0.00  0.00    +0.000 C 
BRANCH  22  23
ATOM     23  C   UNL     1       1.356   2.737  21.122  0.00  0.00    +0.000 C 
BRANCH  23  25
ATOM     24  N   UNL     1       0.375   2.255  18.565  0.00  0.00    +0.000 NA
ATOM     25  C   UNL     1       0.819   2.474  19.725  0.00  0.00    +0.000 C 
ENDBRANCH  23  25
ENDBRANCH  22  23
ENDBRANCH   1  22
TORSDOF 7
ENDMDL
MODEL 5
REMARK VINA RESULT:      -7.3      4.014      7.077
REMARK  Name = 
REMARK  7 active torsions:
REMARK  status: ('A' for Active; 'I' for Inactive)
REMARK    1  A    between atoms: C_2  and  C_3
REMARK    2  A    between atoms: C_3  and  C_4
REMARK    3  A    between atoms: C_4  and  N_5
REMARK    4  A    between atoms: C_7  and  C_8
REMARK    5  A    between atoms: N_10  and  C_11
REMARK    6  A    between atoms: C_11  and  C_12
REMARK    7  A    between atoms: C_18  and  C_19
REMARK                            x       y       z     vdW  Elec       q    Type
REMARK                         _______ _______ _______ _____ _____    ______ ____
ROOT
ATOM      1  N   UNL     1       2.624   8.088  17.979  0.00  0.00    +0.000 N 
ATOM      2  C   UNL     1       3.786   7.571  17.489  0.00  0.00    +0.000 A 
ATOM      3  C   UNL     1       3.820   6.244  17.879  0.00  0.00    +0.000 A 
ATOM      4  C   UNL     1       2.613   6.072  18.627  0.00  0.00    +0.000 A 
ATOM      5  N   UNL     1       1.870   7.193  18.629  0.00  0.00    +0.000 NA
ENDROOT
BRANCH   4   6
ATOM      6  C   UNL     1       2.183   4.861  19.411  0.00  0.00    +0.000 A 
ATOM      7  C   UNL     1       2.173   4.776  20.790  0.00  0.00    +0.000 A 
ATOM      8  C   UNL     1       1.663   3.534  21.260  0.00  0.00    +0.000 A 
ATOM      9  C   UNL     1       1.323   2.695  20.222  0.00  0.00    +0.000 A 
ATOM     10  S   UNL     1       1.568   3.433  18.696  0.00  0.00    +0.000 S 
ENDBRANCH   4   6
BRANCH   3  11
ATOM     11  C   UNL     1       4.814   5.242  17.543  0.00  0.00    +0.000 C 
ATOM     12  O   UNL     1       5.603   4.798  18.371  0.00  0.00    +0.000 OA
ATOM     13  N   UNL     1       4.834   4.821  16.230  0.00  0.00    +0.000 N 
ATOM     14  H   UNL     1       4.111   5.110  15.587  0.00  0.00    +0.000 HD
BRANCH  13  15
ATOM     15  C   UNL     1       5.796   3.829  15.812  0.00  0.00    +0.000 C 
BRANCH  15  16
ATOM     16  C   UNL     1       6.317   4.082  14.423  0.00  0.00    +0.000 A 
ATOM     17  C   UNL     1       7.332   5.025  14.195  0.00  0.00    +0.000 A 
ATOM     18  C   UNL     1       7.819   5.244  12.904  0.00  0.00    +0.000 A 
ATOM     19  C   UNL     1       7.305   4.517  11.832  0.00  0.00    +0.000 A 
ATOM     20  C   UNL     1       6.316   3.561  12.050  0.00  0.00    +0.000 A 
ATOM     21  C   UNL     1       5.826   3.342  13.338  0.00  0.00    +0.000 A 
ENDBRANCH  15  16
ENDBRANCH  13  15
ENDBRANCH   3  11
BRANCH   1  22
ATOM     22  C   UNL     1       2.176   9.471  17.900  0.00  0.00    +0.000 C 
BRANCH  22  23
ATOM     23  C   UNL     1       0.669   9.619  18.118  0.00  0.00    +0.000 C 
BRANCH  23  25
ATOM     24  N   UNL     1       0.191  11.729  19.864  0.00  0.00    +0.000 NA
ATOM     25  C   UNL     1       0.408  10.772  19.072  0.00  0.00    +0.000 C 
ENDBRANCH  23  25
ENDBRANCH  22  23
ENDBRANCH   1  22
TORSDOF 7
ENDMDL
MODEL 6
REMARK VINA RESULT:      -7.3      3.469      6.031
REMARK  Name = 
REMARK  7 active torsions:
REMARK  status: ('A' for Active; 'I' for Inactive)
REMARK    1  A    between atoms: C_2  and  C_3
REMARK    2  A    between atoms: C_3  and  C_4
REMARK    3  A    between atoms: C_4  and  N_5
REMARK    4  A    between atoms: C_7  and  C_8
REMARK    5  A    between atoms: N_10  and  C_11
REMARK    6  A    between atoms: C_11  and  C_12
REMARK    7  A    between atoms: C_18  and  C_19
REMARK                            x       y       z     vdW  Elec       q    Type
REMARK                         _______ _______ _______ _____ _____    ______ ____
ROOT
ATOM      1  N   UNL     1       6.137   4.393  14.079  0.00  0.00    +0.000 N 
ATOM      2  C   UNL     1       4.994   4.099  14.763  0.00  0.00    +0.000 A 
ATOM      3  C   UNL     1       5.132   4.663  16.018  0.00  0.00    +0.000 A 
ATOM      4  C   UNL     1       6.425   5.271  15.985  0.00  0.00    +0.000 A 
ATOM      5  N   UNL     1       7.000   5.144  14.776  0.00  0.00    +0.000 NA
ENDROOT
BRANCH   4   6
ATOM      6  C   UNL     1       7.165   5.919  17.124  0.00  0.00    +0.000 A 
ATOM      7  C   UNL     1       7.500   7.258  17.188  0.00  0.00    +0.000 A 
ATOM      8  C   UNL     1       8.146   7.606  18.407  0.00  0.00    +0.000 A 
ATOM      9  C   UNL     1       8.309   6.513  19.229  0.00  0.00    +0.000 A 
ATOM     10  S   UNL     1       7.633   5.094  18.549  0.00  0.00    +0.000 S 
ENDBRANCH   4   6
BRANCH   3  11
ATOM     11  C   UNL     1       4.156   4.695  17.092  0.00  0.00    +0.000 C 
ATOM     12  O   UNL     1       3.329   3.802  17.252  0.00  0.00    +0.000 OA
ATOM     13  N   UNL     1       4.199   5.796  17.920  0.00  0.00    +0.000 N 
ATOM     14  H   UNL     1       4.951   6.466  17.846  0.00  0.00    +0.000 HD
BRANCH  13  15
ATOM     15  C   UNL     1       3.259   5.907  19.012  0.00  0.00    +0.000 C 
BRANCH  15  16
ATOM     16  C   UNL     1       2.508   7.211  18.993  0.00  0.00    +0.000 A 
ATOM     17  C   UNL     1       1.875   7.694  20.150  0.00  0.00    +0.000 A 
ATOM     18  C   UNL     1       1.192   8.912  20.128  0.00  0.00    +0.000 A 
ATOM     19  C   UNL     1       1.142   9.663  18.955  0.00  0.00    +0.000 A 
ATOM     20  C   UNL     1       1.787   9.205  17.809  0.00  0.00    +0.000 A 
ATOM     21  C   UNL     1       2.469   7.988  17.827  0.00  0.00    +0.000 A 
ENDBRANCH  15  16
ENDBRANCH  13  15
ENDBRANCH   3  11
BRANCH   1  22
ATOM     22  C   UNL     1       6.501   3.948  12.742  0.00  0.00    +0.000 C 
BRANCH  22  23
ATOM     23  C   UNL     1       5.369   3.198  12.039  0.00  0.00    +0.000 C 
BRANCH  23  25
ATOM     24  N   UNL     1       6.350   0.814  10.997  0.00  0.00    +0.000 NA
ATOM     25  C   UNL     1       5.905   1.895  11.469  0.00  0.00    +0.000 C 
ENDBRANCH  23  25
ENDBRANCH  22  23
ENDBRANCH   1  22
TORSDOF 7
ENDMDL
MODEL 7
REMARK VINA RESULT:      -7.3      5.317      7.073
REMARK  Name = 
REMARK  7 active torsions:
REMARK  status: ('A' for Active; 'I' for Inactive)
REMARK    1  A    between atoms: C_2  and  C_3
REMARK    2  A    between atoms: C_3  and  C_4
REMARK    3  A    between atoms: C_4  and  N_5
REMARK    4  A    between atoms: C_7  and  C_8
REMARK    5  A    between atoms: N_10  and  C_11
REMARK    6  A    between atoms: C_11  and  C_12
REMARK    7  A    between atoms: C_18  and  C_19
REMARK                            x       y       z     vdW  Elec       q    Type
REMARK                         _______ _______ _______ _____ _____    ______ ____
ROOT
ATOM      1  N   UNL     1       4.507   6.238  16.737  0.00  0.00    +0.000 N 
ATOM      2  C   UNL     1       3.909   7.314  17.322  0.00  0.00    +0.000 A 
ATOM      3  C   UNL     1       3.034   6.811  18.267  0.00  0.00    +0.000 A 
ATOM      4  C   UNL     1       3.179   5.393  18.153  0.00  0.00    +0.000 A 
ATOM      5  N   UNL     1       4.123   5.064  17.253  0.00  0.00    +0.000 NA
ENDROOT
BRANCH   4   6
ATOM      6  C   UNL     1       2.371   4.328  18.845  0.00  0.00    +0.000 A 
ATOM      7  C   UNL     1       1.240   3.730  18.322  0.00  0.00    +0.000 A 
ATOM      8  C   UNL     1       0.713   2.715  19.169  0.00  0.00    +0.000 A 
ATOM      9  C   UNL     1       1.445   2.587  20.329  0.00  0.00    +0.000 A 
ATOM     10  S   UNL     1       2.788   3.649  20.360  0.00  0.00    +0.000 S 
ENDBRANCH   4   6
BRANCH   3  11
ATOM     11  C   UNL     1       2.216   7.552  19.209  0.00  0.00    +0.000 C 
ATOM     12  O   UNL     1       1.942   7.118  20.323  0.00  0.00    +0.000 OA
ATOM     13  N   UNL     1       1.746   8.774  18.775  0.00  0.00    +0.000 N 
ATOM     14  H   UNL     1       2.067   9.168  17.902  0.00  0.00    +0.000 HD
BRANCH  13  15
ATOM     15  C   UNL     1       0.920   9.574  19.649  0.00  0.00    +0.000 C 
BRANCH  15  16
ATOM     16  C   UNL     1      -0.265  10.169  18.936  0.00  0.00    +0.000 A 
ATOM     17  C   UNL     1      -0.721   9.629  17.723  0.00  0.00    +0.000 A 
ATOM     18  C   UNL     1      -1.830  10.179  17.075  0.00  0.00    +0.000 A 
ATOM     19  C   UNL     1      -2.499  11.264  17.638  0.00  0.00    +0.000 A 
ATOM     20  C   UNL     1      -2.071  11.791  18.853  0.00  0.00    +0.000 A 
ATOM     21  C   UNL     1      -0.962  11.245  19.501  0.00  0.00    +0.000 A 
ENDBRANCH  15  16
ENDBRANCH  13  15
ENDBRANCH   3  11
BRANCH   1  22
ATOM     22  C   UNL     1       5.447   6.252  15.625  0.00  0.00    +0.000 C 
BRANCH  22  23
ATOM     23  C   UNL     1       6.413   5.067  15.652  0.00  0.00    +0.000 C 
BRANCH  23  25
ATOM     24  N   UNL     1       6.201   3.650  13.268  0.00  0.00    +0.000 NA
ATOM     25  C   UNL     1       6.298   4.293  14.349  0.00  0.00    +0.000 C 
ENDBRANCH  23  25
ENDBRANCH  22  23
ENDBRANCH   1  22
TORSDOF 7
ENDMDL
MODEL 8
REMARK VINA RESULT:      -7.3      4.558      6.855
REMARK  Name = 
REMARK  7 active torsions:
REMARK  status: ('A' for Active; 'I' for Inactive)
REMARK    1  A    between atoms: C_2  and  C_3
REMARK    2  A    between atoms: C_3  and  C_4
REMARK    3  A    between atoms: C_4  and  N_5
REMARK    4  A    between atoms: C_7  and  C_8
REMARK    5  A    between atoms: N_10  and  C_11
REMARK    6  A    between atoms: C_11  and  C_12
REMARK    7  A    between atoms: C_18  and  C_19
REMARK                            x       y       z     vdW  Elec       q    Type
REMARK                         _______ _______ _______ _____ _____    ______ ____
ROOT
ATOM      1  N   UNL     1       2.023   3.588  18.341  0.00  0.00    +0.000 N 
ATOM      2  C   UNL     1       1.790   4.924  18.477  0.00  0.00    +0.000 A 
ATOM      3  C   UNL     1       2.896   5.571  17.956  0.00  0.00    +0.000 A 
ATOM      4  C   UNL     1       3.755   4.507  17.539  0.00  0.00    +0.000 A 
ATOM      5  N   UNL     1       3.182   3.306  17.731  0.00  0.00    +0.000 NA
ENDROOT
BRANCH   4   6
ATOM      6  C   UNL     1       5.164   4.613  17.020  0.00  0.00    +0.000 A 
ATOM      7  C   UNL     1       6.299   4.588  17.806  0.00  0.00    +0.000 A 
ATOM      8  C   UNL     1       7.499   4.648  17.042  0.00  0.00    +0.000 A 
ATOM      9  C   UNL     1       7.240   4.746  15.693  0.00  0.00    +0.000 A 
ATOM     10  S   UNL     1       5.562   4.706  15.358  0.00  0.00    +0.000 S 
ENDBRANCH   4   6
BRANCH   3  11
ATOM     11  C   UNL     1       3.101   6.999  17.799  0.00  0.00    +0.000 C 
ATOM     12  O   UNL     1       4.184   7.473  17.470  0.00  0.00    +0.000 OA
ATOM     13  N   UNL     1       2.011   7.803  18.057  0.00  0.00    +0.000 N 
ATOM     14  H   UNL     1       1.100   7.396  18.218  0.00  0.00    +0.000 HD
BRANCH  13  15
ATOM     15  C   UNL     1       2.132   9.236  17.929  0.00  0.00    +0.000 C 
BRANCH  15  16
ATOM     16  C   UNL     1       0.892   9.961  18.380  0.00  0.00    +0.000 A 
ATOM     17  C   UNL     1      -0.354   9.690  17.793  0.00  0.00    +0.000 A 
ATOM     18  C   UNL     1      -1.502  10.357  18.226  0.00  0.00    +0.000 A 
ATOM     19  C   UNL     1      -1.417  11.293  19.256  0.00  0.00    +0.000 A 
ATOM     20  C   UNL     1      -0.191  11.551  19.862  0.00  0.00    +0.000 A 
ATOM     21  C   UNL     1       0.958  10.887  19.430  0.00  0.00    +0.000 A 
ENDBRANCH  15  16
ENDBRANCH  13  15
ENDBRANCH   3  11
BRANCH   1  22
ATOM     22  C   UNL     1       1.186   2.497  18.815  0.00  0.00    +0.000 C 
BRANCH  22  23
ATOM     23  C   UNL     1       0.589   2.766  20.197  0.00  0.00    +0.000 C 
BRANCH  23  25
ATOM     24  N   UNL     1       2.573   2.504  22.127  0.00  0.00    +0.000 NA
ATOM     25  C   UNL     1       1.673   2.623  21.252  0.00  0.00    +0.000 C 
ENDBRANCH  23  25
ENDBRANCH  22  23
ENDBRANCH   1  22
TORSDOF 7
ENDMDL
MODEL 9
REMARK VINA RESULT:      -7.3      4.088      7.239
REMARK  Name = 
REMARK  7 active torsions:
REMARK  status: ('A' for Active; 'I' for Inactive)
REMARK    1  A    between atoms: C_2  and  C_3
REMARK    2  A    between atoms: C_3  and  C_4
REMARK    3  A    between atoms: C_4  and  N_5
REMARK    4  A    between atoms: C_7  and  C_8
REMARK    5  A    between atoms: N_10  and  C_11
REMARK    6  A    between atoms: C_11  and  C_12
REMARK    7  A    between atoms: C_18  and  C_19
REMARK                            x       y       z     vdW  Elec       q    Type
REMARK                         _______ _______ _______ _____ _____    ______ ____
ROOT
ATOM      1  N   UNL     1       2.561   7.979  17.974  0.00  0.00    +0.000 N 
ATOM      2  C   UNL     1       3.736   7.445  17.534  0.00  0.00    +0.000 A 
ATOM      3  C   UNL     1       3.717   6.108  17.889  0.00  0.00    +0.000 A 
ATOM      4  C   UNL     1       2.466   5.947  18.563  0.00  0.00    +0.000 A 
ATOM      5  N   UNL     1       1.751   7.085  18.556  0.00  0.00    +0.000 NA
ENDROOT
BRANCH   4   6
ATOM      6  C   UNL     1       1.964   4.726  19.287  0.00  0.00    +0.000 A 
ATOM      7  C   UNL     1       1.368   3.638  18.680  0.00  0.00    +0.000 A 
ATOM      8  C   UNL     1       1.044   2.603  19.602  0.00  0.00    +0.000 A 
ATOM      9  C   UNL     1       1.379   2.947  20.893  0.00  0.00    +0.000 A 
ATOM     10  S   UNL     1       2.130   4.483  20.973  0.00  0.00    +0.000 S 
ENDBRANCH   4   6
BRANCH   3  11
ATOM     11  C   UNL     1       4.704   5.090  17.580  0.00  0.00    +0.000 C 
ATOM     12  O   UNL     1       5.062   4.254  18.404  0.00  0.00    +0.000 OA
ATOM     13  N   UNL     1       5.234   5.122  16.308  0.00  0.00    +0.000 N 
ATOM     14  H   UNL     1       4.853   5.743  15.608  0.00  0.00    +0.000 HD
BRANCH  13  15
ATOM     15  C   UNL     1       6.227   4.147  15.921  0.00  0.00    +0.000 C 
BRANCH  15  16
ATOM     16  C   UNL     1       6.579   4.232  14.461  0.00  0.00    +0.000 A 
ATOM     17  C   UNL     1       5.937   3.416  13.516  0.00  0.00    +0.000 A 
ATOM     18  C   UNL     1       6.260   3.511  12.161  0.00  0.00    +0.000 A 
ATOM     19  C   UNL     1       7.219   4.429  11.735  0.00  0.00    +0.000 A 
ATOM     20  C   UNL     1       7.844   5.262  12.660  0.00  0.00    +0.000 A 
ATOM     21  C   UNL     1       7.524   5.167  14.015  0.00  0.00    +0.000 A 
ENDBRANCH  15  16
ENDBRANCH  13  15
ENDBRANCH   3  11
BRANCH   1  22
ATOM     22  C   UNL     1       2.151   9.374  17.909  0.00  0.00    +0.000 C 
BRANCH  22  23
ATOM     23  C   UNL     1       1.129   9.741  18.986  0.00  0.00    +0.000 C 
BRANCH  23  25
ATOM     24  N   UNL     1      -1.293  10.381  17.779  0.00  0.00    +0.000 NA
ATOM     25  C   UNL     1      -0.195  10.090  18.326  0.00  0.00    +0.000 C 
ENDBRANCH  23  25
ENDBRANCH  22  23
ENDBRANCH   1  22
TORSDOF 7
ENDMDL
