MODEL 1
REMARK VINA RESULT:      -6.7      0.000      0.000
REMARK  Name = 
REMARK  3 active torsions:
REMARK  status: ('A' for Active; 'I' for Inactive)
REMARK    1  A    between atoms: C_1  and  C_2
REMARK    2  A    between atoms: N_4  and  C_5
REMARK    3  A    between atoms: C_8  and  N_9
REMARK                            x       y       z     vdW  Elec       q    Type
REMARK                         _______ _______ _______ _____ _____    ______ ____
ROOT
ATOM      1  C   UNL     1       1.182   8.063  20.405  0.00  0.00    +0.000 A 
ATOM      2  C   UNL     1       1.551   8.737  19.245  0.00  0.00    +0.000 A 
ATOM      3  C   UNL     1       2.463   8.174  18.349  0.00  0.00    +0.000 A 
ATOM      4  C   UNL     1       3.016   6.911  18.572  0.00  0.00    +0.000 A 
ATOM      5  C   UNL     1       2.630   6.226  19.734  0.00  0.00    +0.000 A 
ATOM      6  C   UNL     1       1.743   6.808  20.655  0.00  0.00    +0.000 A 
ENDROOT
BRANCH   4   7
ATOM      7  N   UNL     1       3.944   6.364  17.647  0.00  0.00    +0.000 N 
ATOM      8  S   UNL     1       5.365   7.221  17.170  0.00  0.00    +0.000 S 
ATOM      9  C   UNL     1       5.907   5.842  16.196  0.00  0.00    +0.000 A 
ATOM     10  N   UNL     1       7.051   5.823  15.488  0.00  0.00    +0.000 NA
ATOM     11  C   UNL     1       7.259   4.700  14.757  0.00  0.00    +0.000 A 
ATOM     12  C   UNL     1       6.374   3.622  14.700  0.00  0.00    +0.000 A 
ATOM     13  C   UNL     1       5.206   3.674  15.456  0.00  0.00    +0.000 A 
ATOM     14  C   UNL     1       4.993   4.809  16.221  0.00  0.00    +0.000 A 
ATOM     15  C   UNL     1       3.846   5.085  17.084  0.00  0.00    +0.000 A 
ATOM     16  O   UNL     1       2.959   4.248  17.200  0.00  0.00    +0.000 OA
ENDBRANCH   4   7
BRANCH   1  20
ATOM     17  C   UNL     1      -0.545   9.620  23.369  0.00  0.00    +0.000 C 
ATOM     18  C   UNL     1       0.638   9.295  22.497  0.00  0.00    +0.000 C 
ATOM     19  O   UNL     1       1.767   9.636  22.833  0.00  0.00    +0.000 OA
ATOM     20  N   UNL     1       0.284   8.605  21.349  0.00  0.00    +0.000 N 
ATOM     21  H   UNL     1      -0.701   8.546  21.125  0.00  0.00    +0.000 HD
ENDBRANCH   1  20
TORSDOF 2
ENDMDL
MODEL 2
REMARK VINA RESULT:      -6.7      0.319      1.116
REMARK  Name = 
REMARK  3 active torsions:
REMARK  status: ('A' for Active; 'I' for Inactive)
REMARK    1  A    between atoms: C_1  and  C_2
REMARK    2  A    between atoms: N_4  and  C_5
REMARK    3  A    between atoms: C_8  and  N_9
REMARK                            x       y       z     vdW  Elec       q    Type
REMARK                         _______ _______ _______ _____ _____    ______ ____
ROOT
ATOM      1  C   UNL     1       1.131   8.438  20.318  0.00  0.00    +0.000 A 
ATOM      2  C   UNL     1       1.750   7.234  20.645  0.00  0.00    +0.000 A 
ATOM      3  C   UNL     1       2.657   6.636  19.767  0.00  0.00    +0.000 A 
ATOM      4  C   UNL     1       2.992   7.231  18.548  0.00  0.00    +0.000 A 
ATOM      5  C   UNL     1       2.379   8.452  18.229  0.00  0.00    +0.000 A 
ATOM      6  C   UNL     1       1.437   9.035  19.092  0.00  0.00    +0.000 A 
ENDROOT
BRANCH   4   7
ATOM      7  N   UNL     1       3.914   6.598  17.674  0.00  0.00    +0.000 N 
ATOM      8  S   UNL     1       5.362   7.383  17.157  0.00  0.00    +0.000 S 
ATOM      9  C   UNL     1       5.878   5.926  16.287  0.00  0.00    +0.000 A 
ATOM     10  N   UNL     1       7.028   5.830  15.596  0.00  0.00    +0.000 NA
ATOM     11  C   UNL     1       7.214   4.654  14.947  0.00  0.00    +0.000 A 
ATOM     12  C   UNL     1       6.302   3.597  14.953  0.00  0.00    +0.000 A 
ATOM     13  C   UNL     1       5.128   3.731  15.690  0.00  0.00    +0.000 A 
ATOM     14  C   UNL     1       4.936   4.922  16.372  0.00  0.00    +0.000 A 
ATOM     15  C   UNL     1       3.788   5.286  17.200  0.00  0.00    +0.000 A 
ATOM     16  O   UNL     1       2.878   4.481  17.363  0.00  0.00    +0.000 OA
ENDBRANCH   4   7
BRANCH   1  20
ATOM     17  C   UNL     1      -0.798  10.033  23.133  0.00  0.00    +0.000 C 
ATOM     18  C   UNL     1       0.444   9.551  22.435  0.00  0.00    +0.000 C 
ATOM     19  O   UNL     1       1.533   9.610  22.997  0.00  0.00    +0.000 OA
ATOM     20  N   UNL     1       0.191   9.065  21.163  0.00  0.00    +0.000 N 
ATOM     21  H   UNL     1      -0.726   9.238  20.772  0.00  0.00    +0.000 HD
ENDBRANCH   1  20
TORSDOF 2
ENDMDL
MODEL 3
REMARK VINA RESULT:      -6.7      2.671      8.132
REMARK  Name = 
REMARK  3 active torsions:
REMARK  status: ('A' for Active; 'I' for Inactive)
REMARK    1  A    between atoms: C_1  and  C_2
REMARK    2  A    between atoms: N_4  and  C_5
REMARK    3  A    between atoms: C_8  and  N_9
REMARK                            x       y       z     vdW  Elec       q    Type
REMARK                         _______ _______ _______ _____ _____    ______ ____
ROOT
ATOM      1  C   UNL     1       3.624   6.252  17.947  0.00  0.00    +0.000 A 
ATOM      2  C   UNL     1       3.056   5.865  19.158  0.00  0.00    +0.000 A 
ATOM      3  C   UNL     1       2.249   6.745  19.883  0.00  0.00    +0.000 A 
ATOM      4  C   UNL     1       1.966   8.029  19.412  0.00  0.00    +0.000 A 
ATOM      5  C   UNL     1       2.526   8.411  18.184  0.00  0.00    +0.000 A 
ATOM      6  C   UNL     1       3.370   7.542  17.472  0.00  0.00    +0.000 A 
ENDROOT
BRANCH   4   7
ATOM      7  N   UNL     1       1.147   8.904  20.172  0.00  0.00    +0.000 N 
ATOM      8  S   UNL     1       1.177   8.909  21.898  0.00  0.00    +0.000 S 
ATOM      9  C   UNL     1       0.041  10.270  21.946  0.00  0.00    +0.000 A 
ATOM     10  N   UNL     1      -0.406  10.838  23.080  0.00  0.00    +0.000 NA
ATOM     11  C   UNL     1      -1.319  11.826  22.910  0.00  0.00    +0.000 A 
ATOM     12  C   UNL     1      -1.802  12.247  21.669  0.00  0.00    +0.000 A 
ATOM     13  C   UNL     1      -1.305  11.643  20.518  0.00  0.00    +0.000 A 
ATOM     14  C   UNL     1      -0.359  10.644  20.680  0.00  0.00    +0.000 A 
ATOM     15  C   UNL     1       0.296   9.873  19.625  0.00  0.00    +0.000 A 
ATOM     16  O   UNL     1       0.033  10.107  18.451  0.00  0.00    +0.000 OA
ENDBRANCH   4   7
BRANCH   1  20
ATOM     17  C   UNL     1       6.462   4.363  16.346  0.00  0.00    +0.000 C 
ATOM     18  C   UNL     1       5.821   5.218  17.405  0.00  0.00    +0.000 C 
ATOM     19  O   UNL     1       6.493   5.670  18.326  0.00  0.00    +0.000 OA
ATOM     20  N   UNL     1       4.464   5.405  17.195  0.00  0.00    +0.000 N 
ATOM     21  H   UNL     1       4.018   4.831  16.490  0.00  0.00    +0.000 HD
ENDBRANCH   1  20
TORSDOF 2
ENDMDL
MODEL 4
REMARK VINA RESULT:      -6.6      1.274      1.343
REMARK  Name = 
REMARK  3 active torsions:
REMARK  status: ('A' for Active; 'I' for Inactive)
REMARK    1  A    between atoms: C_1  and  C_2
REMARK    2  A    between atoms: N_4  and  C_5
REMARK    3  A    between atoms: C_8  and  N_9
REMARK                            x       y       z     vdW  Elec       q    Type
REMARK                         _______ _______ _______ _____ _____    ______ ____
ROOT
ATOM      1  C   UNL     1       0.717   9.267  20.052  0.00  0.00    +0.000 A 
ATOM      2  C   UNL     1       1.011   9.573  18.727  0.00  0.00    +0.000 A 
ATOM      3  C   UNL     1       1.926   8.806  18.002  0.00  0.00    +0.000 A 
ATOM      4  C   UNL     1       2.558   7.697  18.570  0.00  0.00    +0.000 A 
ATOM      5  C   UNL     1       2.246   7.380  19.901  0.00  0.00    +0.000 A 
ATOM      6  C   UNL     1       1.357   8.174  20.644  0.00  0.00    +0.000 A 
ENDROOT
BRANCH   4   7
ATOM      7  N   UNL     1       3.486   6.937  17.811  0.00  0.00    +0.000 N 
ATOM      8  S   UNL     1       4.909   7.648  17.140  0.00  0.00    +0.000 S 
ATOM      9  C   UNL     1       5.452   6.070  16.540  0.00  0.00    +0.000 A 
ATOM     10  N   UNL     1       6.597   5.876  15.861  0.00  0.00    +0.000 NA
ATOM     11  C   UNL     1       6.805   4.606  15.431  0.00  0.00    +0.000 A 
ATOM     12  C   UNL     1       5.919   3.548  15.641  0.00  0.00    +0.000 A 
ATOM     13  C   UNL     1       4.749   3.787  16.358  0.00  0.00    +0.000 A 
ATOM     14  C   UNL     1       4.536   5.077  16.817  0.00  0.00    +0.000 A 
ATOM     15  C   UNL     1       3.388   5.559  17.582  0.00  0.00    +0.000 A 
ATOM     16  O   UNL     1       2.499   4.777  17.900  0.00  0.00    +0.000 OA
ENDBRANCH   4   7
BRANCH   1  20
ATOM     17  C   UNL     1      -1.017  11.726  22.319  0.00  0.00    +0.000 C 
ATOM     18  C   UNL     1       0.107  11.235  21.447  0.00  0.00    +0.000 C 
ATOM     19  O   UNL     1       1.141  11.887  21.345  0.00  0.00    +0.000 OA
ATOM     20  N   UNL     1      -0.181  10.029  20.829  0.00  0.00    +0.000 N 
ATOM     21  H   UNL     1      -1.137   9.699  20.873  0.00  0.00    +0.000 HD
ENDBRANCH   1  20
TORSDOF 2
ENDMDL
MODEL 5
REMARK VINA RESULT:      -6.6      3.327      3.823
REMARK  Name = 
REMARK  3 active torsions:
REMARK  status: ('A' for Active; 'I' for Inactive)
REMARK    1  A    between atoms: C_1  and  C_2
REMARK    2  A    between atoms: N_4  and  C_5
REMARK    3  A    between atoms: C_8  and  N_9
REMARK                            x       y       z     vdW  Elec       q    Type
REMARK                         _______ _______ _______ _____ _____    ______ ____
ROOT
ATOM      1  C   UNL     1       1.314   9.910  18.921  0.00  0.00    +0.000 A 
ATOM      2  C   UNL     1       1.230   9.088  20.041  0.00  0.00    +0.000 A 
ATOM      3  C   UNL     1       1.717   7.779  20.007  0.00  0.00    +0.000 A 
ATOM      4  C   UNL     1       2.325   7.259  18.861  0.00  0.00    +0.000 A 
ATOM      5  C   UNL     1       2.424   8.095  17.739  0.00  0.00    +0.000 A 
ATOM      6  C   UNL     1       1.898   9.398  17.759  0.00  0.00    +0.000 A 
ENDROOT
BRANCH   4   7
ATOM      7  N   UNL     1       2.808   5.924  18.854  0.00  0.00    +0.000 N 
ATOM      8  S   UNL     1       4.242   5.471  19.702  0.00  0.00    +0.000 S 
ATOM      9  C   UNL     1       4.002   3.770  19.262  0.00  0.00    +0.000 A 
ATOM     10  N   UNL     1       4.827   2.774  19.631  0.00  0.00    +0.000 NA
ATOM     11  C   UNL     1       4.508   1.549  19.143  0.00  0.00    +0.000 A 
ATOM     12  C   UNL     1       3.422   1.294  18.304  0.00  0.00    +0.000 A 
ATOM     13  C   UNL     1       2.584   2.351  17.954  0.00  0.00    +0.000 A 
ATOM     14  C   UNL     1       2.891   3.602  18.462  0.00  0.00    +0.000 A 
ATOM     15  C   UNL     1       2.163   4.849  18.230  0.00  0.00    +0.000 A 
ATOM     16  O   UNL     1       1.152   4.840  17.538  0.00  0.00    +0.000 OA
ENDBRANCH   4   7
BRANCH   1  20
ATOM     17  C   UNL     1      -0.698  13.077  18.587  0.00  0.00    +0.000 C 
ATOM     18  C   UNL     1      -0.508  11.588  18.688  0.00  0.00    +0.000 C 
ATOM     19  O   UNL     1      -1.468  10.833  18.578  0.00  0.00    +0.000 OA
ATOM     20  N   UNL     1       0.813  11.228  18.903  0.00  0.00    +0.000 N 
ATOM     21  H   UNL     1       1.463  11.965  19.143  0.00  0.00    +0.000 HD
ENDBRANCH   1  20
TORSDOF 2
ENDMDL
MODEL 6
REMARK VINA RESULT:      -6.6      1.205      1.637
REMARK  Name = 
REMARK  3 active torsions:
REMARK  status: ('A' for Active; 'I' for Inactive)
REMARK    1  A    between atoms: C_1  and  C_2
REMARK    2  A    between atoms: N_4  and  C_5
REMARK    3  A    between atoms: C_8  and  N_9
REMARK                            x       y       z     vdW  Elec       q    Type
REMARK                         _______ _______ _______ _____ _____    ______ ____
ROOT
ATOM      1  C   UNL     1       0.733   9.161  20.072  0.00  0.00    +0.000 A 
ATOM      2  C   UNL     1       1.412   8.074  20.614  0.00  0.00    +0.000 A 
ATOM      3  C   UNL     1       2.321   7.343  19.847  0.00  0.00    +0.000 A 
ATOM      4  C   UNL     1       2.599   7.688  18.522  0.00  0.00    +0.000 A 
ATOM      5  C   UNL     1       1.926   8.795  17.983  0.00  0.00    +0.000 A 
ATOM      6  C   UNL     1       0.981   9.507  18.740  0.00  0.00    +0.000 A 
ENDROOT
BRANCH   4   7
ATOM      7  N   UNL     1       3.525   6.925  17.764  0.00  0.00    +0.000 N 
ATOM      8  S   UNL     1       4.930   7.639  17.060  0.00  0.00    +0.000 S 
ATOM      9  C   UNL     1       5.482   6.056  16.481  0.00  0.00    +0.000 A 
ATOM     10  N   UNL     1       6.620   5.862  15.790  0.00  0.00    +0.000 NA
ATOM     11  C   UNL     1       6.836   4.587  15.380  0.00  0.00    +0.000 A 
ATOM     12  C   UNL     1       5.965   3.524  15.621  0.00  0.00    +0.000 A 
ATOM     13  C   UNL     1       4.803   3.763  16.351  0.00  0.00    +0.000 A 
ATOM     14  C   UNL     1       4.581   5.058  16.789  0.00  0.00    +0.000 A 
ATOM     15  C   UNL     1       3.439   5.542  17.562  0.00  0.00    +0.000 A 
ATOM     16  O   UNL     1       2.563   4.756  17.906  0.00  0.00    +0.000 OA
ENDBRANCH   4   7
BRANCH   1  20
ATOM     17  C   UNL     1      -1.134  11.552  22.305  0.00  0.00    +0.000 C 
ATOM     18  C   UNL     1       0.053  11.069  21.517  0.00  0.00    +0.000 C 
ATOM     19  O   UNL     1       1.113  11.686  21.554  0.00  0.00    +0.000 OA
ATOM     20  N   UNL     1      -0.212   9.912  20.803  0.00  0.00    +0.000 N 
ATOM     21  H   UNL     1      -1.177   9.616  20.735  0.00  0.00    +0.000 HD
ENDBRANCH   1  20
TORSDOF 2
ENDMDL
MODEL 7
REMARK VINA RESULT:      -6.5      2.688      8.114
REMARK  Name = 
REMARK  3 active torsions:
REMARK  status: ('A' for Active; 'I' for Inactive)
REMARK    1  A    between atoms: C_1  and  C_2
REMARK    2  A    between atoms: N_4  and  C_5
REMARK    3  A    between atoms: C_8  and  N_9
REMARK                            x       y       z     vdW  Elec       q    Type
REMARK                         _______ _______ _______ _____ _____    ______ ____
ROOT
ATOM      1  C   UNL     1       3.486   6.255  17.989  0.00  0.00    +0.000 A 
ATOM      2  C   UNL     1       3.206   7.537  17.527  0.00  0.00    +0.000 A 
ATOM      3  C   UNL     1       2.411   8.409  18.275  0.00  0.00    +0.000 A 
ATOM      4  C   UNL     1       1.891   8.036  19.517  0.00  0.00    +0.000 A 
ATOM      5  C   UNL     1       2.189   6.748  19.988  0.00  0.00    +0.000 A 
ATOM      6  C   UNL     1       2.955   5.856  19.219  0.00  0.00    +0.000 A 
ENDROOT
BRANCH   4   7
ATOM      7  N   UNL     1       1.083   8.941  20.253  0.00  0.00    +0.000 N 
ATOM      8  S   UNL     1       1.094   8.972  21.979  0.00  0.00    +0.000 S 
ATOM      9  C   UNL     1      -0.011  10.359  21.993  0.00  0.00    +0.000 A 
ATOM     10  N   UNL     1      -0.458  10.955  23.113  0.00  0.00    +0.000 NA
ATOM     11  C   UNL     1      -1.346  11.961  22.917  0.00  0.00    +0.000 A 
ATOM     12  C   UNL     1      -1.804  12.374  21.665  0.00  0.00    +0.000 A 
ATOM     13  C   UNL     1      -1.309  11.740  20.528  0.00  0.00    +0.000 A 
ATOM     14  C   UNL     1      -0.387  10.723  20.717  0.00  0.00    +0.000 A 
ATOM     15  C   UNL     1       0.261   9.920  19.681  0.00  0.00    +0.000 A 
ATOM     16  O   UNL     1       0.018  10.142  18.501  0.00  0.00    +0.000 OA
ENDBRANCH   4   7
BRANCH   1  20
ATOM     17  C   UNL     1       6.127   4.374  16.071  0.00  0.00    +0.000 C 
ATOM     18  C   UNL     1       5.621   5.443  17.000  0.00  0.00    +0.000 C 
ATOM     19  O   UNL     1       6.387   6.291  17.445  0.00  0.00    +0.000 OA
ATOM     20  N   UNL     1       4.263   5.333  17.256  0.00  0.00    +0.000 N 
ATOM     21  H   UNL     1       3.800   4.485  16.957  0.00  0.00    +0.000 HD
ENDBRANCH   1  20
TORSDOF 2
ENDMDL
MODEL 8
REMARK VINA RESULT:      -6.5      2.779      8.442
REMARK  Name = 
REMARK  3 active torsions:
REMARK  status: ('A' for Active; 'I' for Inactive)
REMARK    1  A    between atoms: C_1  and  C_2
REMARK    2  A    between atoms: N_4  and  C_5
REMARK    3  A    between atoms: C_8  and  N_9
REMARK                            x       y       z     vdW  Elec       q    Type
REMARK                         _______ _______ _______ _____ _____    ______ ____
ROOT
ATOM      1  C   UNL     1       2.546   6.678  18.663  0.00  0.00    +0.000 A 
ATOM      2  C   UNL     1       2.258   7.858  17.983  0.00  0.00    +0.000 A 
ATOM      3  C   UNL     1       1.654   8.933  18.639  0.00  0.00    +0.000 A 
ATOM      4  C   UNL     1       1.340   8.872  19.998  0.00  0.00    +0.000 A 
ATOM      5  C   UNL     1       1.646   7.688  20.686  0.00  0.00    +0.000 A 
ATOM      6  C   UNL     1       2.217   6.592  20.019  0.00  0.00    +0.000 A 
ENDROOT
BRANCH   4   7
ATOM      7  N   UNL     1       0.723   9.979  20.639  0.00  0.00    +0.000 N 
ATOM      8  S   UNL     1       1.028  11.603  20.142  0.00  0.00    +0.000 S 
ATOM      9  C   UNL     1      -0.155  12.217  21.312  0.00  0.00    +0.000 A 
ATOM     10  N   UNL     1      -0.449  13.520  21.472  0.00  0.00    +0.000 NA
ATOM     11  C   UNL     1      -1.335  13.794  22.462  0.00  0.00    +0.000 A 
ATOM     12  C   UNL     1      -1.915  12.831  23.289  0.00  0.00    +0.000 A 
ATOM     13  C   UNL     1      -1.594  11.491  23.084  0.00  0.00    +0.000 A 
ATOM     14  C   UNL     1      -0.703  11.199  22.063  0.00  0.00    +0.000 A 
ATOM     15  C   UNL     1      -0.221   9.877  21.669  0.00  0.00    +0.000 A 
ATOM     16  O   UNL     1      -0.632   8.882  22.255  0.00  0.00    +0.000 OA
ENDBRANCH   4   7
BRANCH   1  20
ATOM     17  C   UNL     1       3.379   3.357  17.093  0.00  0.00    +0.000 C 
ATOM     18  C   UNL     1       2.455   4.436  17.589  0.00  0.00    +0.000 C 
ATOM     19  O   UNL     1       1.240   4.266  17.572  0.00  0.00    +0.000 OA
ATOM     20  N   UNL     1       3.132   5.560  18.035  0.00  0.00    +0.000 N 
ATOM     21  H   UNL     1       4.121   5.621  17.827  0.00  0.00    +0.000 HD
ENDBRANCH   1  20
TORSDOF 2
ENDMDL
MODEL 9
REMARK VINA RESULT:      -6.4      3.405      7.714
REMARK  Name = 
REMARK  3 active torsions:
REMARK  status: ('A' for Active; 'I' for Inactive)
REMARK    1  A    between atoms: C_1  and  C_2
REMARK    2  A    between atoms: N_4  and  C_5
REMARK    3  A    between atoms: C_8  and  N_9
REMARK                            x       y       z     vdW  Elec       q    Type
REMARK                         _______ _______ _______ _____ _____    ______ ____
ROOT
ATOM      1  C   UNL     1       2.877   4.888  19.413  0.00  0.00    +0.000 A 
ATOM      2  C   UNL     1       2.009   5.131  20.473  0.00  0.00    +0.000 A 
ATOM      3  C   UNL     1       1.504   6.413  20.704  0.00  0.00    +0.000 A 
ATOM      4  C   UNL     1       1.832   7.486  19.871  0.00  0.00    +0.000 A 
ATOM      5  C   UNL     1       2.694   7.234  18.793  0.00  0.00    +0.000 A 
ATOM      6  C   UNL     1       3.234   5.954  18.583  0.00  0.00    +0.000 A 
ENDROOT
BRANCH   4   7
ATOM      7  N   UNL     1       1.307   8.779  20.132  0.00  0.00    +0.000 N 
ATOM      8  S   UNL     1       1.132   9.381  21.740  0.00  0.00    +0.000 S 
ATOM      9  C   UNL     1       0.580  10.950  21.126  0.00  0.00    +0.000 A 
ATOM     10  N   UNL     1       0.241  11.989  21.910  0.00  0.00    +0.000 NA
ATOM     11  C   UNL     1      -0.217  13.084  21.253  0.00  0.00    +0.000 A 
ATOM     12  C   UNL     1      -0.359  13.168  19.867  0.00  0.00    +0.000 A 
ATOM     13  C   UNL     1       0.014  12.075  19.088  0.00  0.00    +0.000 A 
ATOM     14  C   UNL     1       0.500  10.959  19.749  0.00  0.00    +0.000 A 
ATOM     15  C   UNL     1       0.945   9.704  19.145  0.00  0.00    +0.000 A 
ATOM     16  O   UNL     1       0.929   9.578  17.926  0.00  0.00    +0.000 OA
ENDBRANCH   4   7
BRANCH   1  20
ATOM     17  C   UNL     1       3.661   1.367  18.325  0.00  0.00    +0.000 C 
ATOM     18  C   UNL     1       2.930   2.681  18.264  0.00  0.00    +0.000 C 
ATOM     19  O   UNL     1       1.997   2.835  17.483  0.00  0.00    +0.000 OA
ATOM     20  N   UNL     1       3.430   3.615  19.157  0.00  0.00    +0.000 N 
ATOM     21  H   UNL     1       4.308   3.402  19.612  0.00  0.00    +0.000 HD
ENDBRANCH   1  20
TORSDOF 2
ENDMDL
