MODEL 1
REMARK VINA RESULT:      -7.4      0.000      0.000
REMARK  Name = 
REMARK  7 active torsions:
REMARK  status: ('A' for Active; 'I' for Inactive)
REMARK    1  A    between atoms: C_1  and  O_2
REMARK    2  A    between atoms: O_2  and  C_3
REMARK    3  A    between atoms: C_9  and  C_10
REMARK    4  A    between atoms: C_10  and  N_11
REMARK    5  A    between atoms: N_11  and  C_12
REMARK    6  A    between atoms: C_16  and  C_17
REMARK    7  A    between atoms: C_19  and  C_20
REMARK                            x       y       z     vdW  Elec       q    Type
REMARK                         _______ _______ _______ _____ _____    ______ ____
ROOT
ATOM      1  N   UNL     1       4.113   6.068  18.622  0.00  0.00    +0.000 NA
ATOM      2  H   UNL     1       3.709   6.808  19.197  0.00  0.00    +0.000 HD
ENDROOT
BRANCH   1   3
ATOM      3  C   UNL     1       3.370   4.822  18.837  0.00  0.00    +0.000 C 
ATOM      4  C   UNL     1       2.095   4.903  17.958  0.00  0.00    +0.000 C 
ATOM      5  C   UNL     1       1.248   3.629  18.104  0.00  0.00    +0.000 C 
ATOM      6  C   UNL     1       2.082   2.412  17.672  0.00  0.00    +0.000 C 
ATOM      7  C   UNL     1       3.345   2.292  18.550  0.00  0.00    +0.000 C 
ATOM      8  C   UNL     1       4.187   1.087  18.119  0.00  0.00    +0.000 C 
ATOM      9  C   UNL     1       2.917   2.150  20.030  0.00  0.00    +0.000 C 
ATOM     10  C   UNL     1       2.073   3.366  20.479  0.00  0.00    +0.000 C 
ATOM     11  C   UNL     1       1.654   3.210  21.944  0.00  0.00    +0.000 C 
ATOM     12  C   UNL     1       0.827   3.467  19.572  0.00  0.00    +0.000 C 
ATOM     13  C   UNL     1       2.921   4.650  20.308  0.00  0.00    +0.000 C 
ATOM     14  C   UNL     1       4.181   3.580  18.400  0.00  0.00    +0.000 C 
ENDBRANCH   1   3
BRANCH   1  15
ATOM     15  C   UNL     1       4.161   6.562  17.243  0.00  0.00    +0.000 C 
BRANCH  15  22
ATOM     16  C   UNL     1       6.623   5.888  16.964  0.00  0.00    +0.000 A 
ATOM     17  C   UNL     1       7.615   5.257  16.204  0.00  0.00    +0.000 A 
ATOM     18  C   UNL     1       7.302   4.637  14.991  0.00  0.00    +0.000 A 
ATOM     19  C   UNL     1       5.991   4.642  14.529  0.00  0.00    +0.000 A 
ATOM     20  I   UNL     1       5.511   3.674  12.756  0.00  0.00    +0.000 I 
ATOM     21  C   UNL     1       4.996   5.271  15.264  0.00  0.00    +0.000 A 
ATOM     22  C   UNL     1       5.296   5.895  16.494  0.00  0.00    +0.000 A 
BRANCH  16  24
ATOM     23  C   UNL     1       7.726   5.759  19.067  0.00  0.00    +0.000 C 
ATOM     24  O   UNL     1       6.862   6.470  18.184  0.00  0.00    +0.000 OA
ENDBRANCH  16  24
ENDBRANCH  15  22
ENDBRANCH   1  15
TORSDOF 4
ENDMDL
MODEL 2
REMARK VINA RESULT:      -7.3      4.529      5.974
REMARK  Name = 
REMARK  7 active torsions:
REMARK  status: ('A' for Active; 'I' for Inactive)
REMARK    1  A    between atoms: C_1  and  O_2
REMARK    2  A    between atoms: O_2  and  C_3
REMARK    3  A    between atoms: C_9  and  C_10
REMARK    4  A    between atoms: C_10  and  N_11
REMARK    5  A    between atoms: N_11  and  C_12
REMARK    6  A    between atoms: C_16  and  C_17
REMARK    7  A    between atoms: C_19  and  C_20
REMARK                            x       y       z     vdW  Elec       q    Type
REMARK                         _______ _______ _______ _____ _____    ______ ____
ROOT
ATOM      1  N   UNL     1       2.078   7.612  19.870  0.00  0.00    +0.000 NA
ATOM      2  H   UNL     1       1.222   7.669  20.424  0.00  0.00    +0.000 HD
ENDROOT
BRANCH   1   3
ATOM      3  C   UNL     1       2.335   6.214  19.510  0.00  0.00    +0.000 C 
ATOM      4  C   UNL     1       1.644   5.969  18.142  0.00  0.00    +0.000 C 
ATOM      5  C   UNL     1       1.868   4.525  17.669  0.00  0.00    +0.000 C 
ATOM      6  C   UNL     1       3.376   4.264  17.526  0.00  0.00    +0.000 C 
ATOM      7  C   UNL     1       4.085   4.475  18.880  0.00  0.00    +0.000 C 
ATOM      8  C   UNL     1       5.590   4.227  18.743  0.00  0.00    +0.000 C 
ATOM      9  C   UNL     1       3.470   3.511  19.923  0.00  0.00    +0.000 C 
ATOM     10  C   UNL     1       1.951   3.759  20.076  0.00  0.00    +0.000 C 
ATOM     11  C   UNL     1       1.357   2.796  21.109  0.00  0.00    +0.000 C 
ATOM     12  C   UNL     1       1.275   3.555  18.702  0.00  0.00    +0.000 C 
ATOM     13  C   UNL     1       1.730   5.222  20.531  0.00  0.00    +0.000 C 
ATOM     14  C   UNL     1       3.845   5.925  19.347  0.00  0.00    +0.000 C 
ENDBRANCH   1   3
BRANCH   1  15
ATOM     15  C   UNL     1       1.939   8.552  18.753  0.00  0.00    +0.000 C 
BRANCH  15  22
ATOM     16  C   UNL     1       0.423  10.077  20.158  0.00  0.00    +0.000 A 
ATOM     17  C   UNL     1      -0.745  10.842  20.259  0.00  0.00    +0.000 A 
ATOM     18  C   UNL     1      -1.625  10.952  19.178  0.00  0.00    +0.000 A 
ATOM     19  C   UNL     1      -1.342  10.297  17.985  0.00  0.00    +0.000 A 
ATOM     20  I   UNL     1      -2.617  10.502  16.360  0.00  0.00    +0.000 I 
ATOM     21  C   UNL     1      -0.194   9.525  17.870  0.00  0.00    +0.000 A 
ATOM     22  C   UNL     1       0.707   9.410  18.950  0.00  0.00    +0.000 A 
BRANCH  16  24
ATOM     23  C   UNL     1       0.855   9.544  22.435  0.00  0.00    +0.000 C 
ATOM     24  O   UNL     1       1.346   9.972  21.167  0.00  0.00    +0.000 OA
ENDBRANCH  16  24
ENDBRANCH  15  22
ENDBRANCH   1  15
TORSDOF 4
ENDMDL
MODEL 3
REMARK VINA RESULT:      -7.1      3.755      6.145
REMARK  Name = 
REMARK  7 active torsions:
REMARK  status: ('A' for Active; 'I' for Inactive)
REMARK    1  A    between atoms: C_1  and  O_2
REMARK    2  A    between atoms: O_2  and  C_3
REMARK    3  A    between atoms: C_9  and  C_10
REMARK    4  A    between atoms: C_10  and  N_11
REMARK    5  A    between atoms: N_11  and  C_12
REMARK    6  A    between atoms: C_16  and  C_17
REMARK    7  A    between atoms: C_19  and  C_20
REMARK                            x       y       z     vdW  Elec       q    Type
REMARK                         _______ _______ _______ _____ _____    ______ ____
ROOT
ATOM      1  N   UNL     1       3.882   7.622  17.598  0.00  0.00    +0.000 NA
ATOM      2  H   UNL     1       4.131   7.971  18.525  0.00  0.00    +0.000 HD
ENDROOT
BRANCH   1   3
ATOM      3  C   UNL     1       4.494   6.306  17.391  0.00  0.00    +0.000 C 
ATOM      4  C   UNL     1       5.546   6.119  18.517  0.00  0.00    +0.000 C 
ATOM      5  C   UNL     1       6.240   4.753  18.394  0.00  0.00    +0.000 C 
ATOM      6  C   UNL     1       5.188   3.638  18.496  0.00  0.00    +0.000 C 
ATOM      7  C   UNL     1       4.143   3.784  17.371  0.00  0.00    +0.000 C 
ATOM      8  C   UNL     1       3.085   2.681  17.472  0.00  0.00    +0.000 C 
ATOM      9  C   UNL     1       4.864   3.717  16.004  0.00  0.00    +0.000 C 
ATOM     10  C   UNL     1       5.930   4.832  15.887  0.00  0.00    +0.000 C 
ATOM     11  C   UNL     1       6.637   4.751  14.530  0.00  0.00    +0.000 C 
ATOM     12  C   UNL     1       6.949   4.666  17.035  0.00  0.00    +0.000 C 
ATOM     13  C   UNL     1       5.229   6.205  16.034  0.00  0.00    +0.000 C 
ATOM     14  C   UNL     1       3.460   5.161  17.501  0.00  0.00    +0.000 C 
ENDBRANCH   1   3
BRANCH   1  15
ATOM     15  C   UNL     1       2.421   7.680  17.488  0.00  0.00    +0.000 C 
BRANCH  15  22
ATOM     16  C   UNL     1       1.845   7.857  19.984  0.00  0.00    +0.000 A 
ATOM     17  C   UNL     1       1.277   8.588  21.035  0.00  0.00    +0.000 A 
ATOM     18  C   UNL     1       0.711   9.846  20.809  0.00  0.00    +0.000 A 
ATOM     19  C   UNL     1       0.710  10.385  19.527  0.00  0.00    +0.000 A 
ATOM     20  I   UNL     1      -0.079  12.276  19.196  0.00  0.00    +0.000 I 
ATOM     21  C   UNL     1       1.259   9.670  18.471  0.00  0.00    +0.000 A 
ATOM     22  C   UNL     1       1.840   8.402  18.686  0.00  0.00    +0.000 A 
BRANCH  16  24
ATOM     23  C   UNL     1       1.647   5.591  20.677  0.00  0.00    +0.000 C 
ATOM     24  O   UNL     1       2.457   6.641  20.155  0.00  0.00    +0.000 OA
ENDBRANCH  16  24
ENDBRANCH  15  22
ENDBRANCH   1  15
TORSDOF 4
ENDMDL
MODEL 4
REMARK VINA RESULT:      -6.9      4.290      6.310
REMARK  Name = 
REMARK  7 active torsions:
REMARK  status: ('A' for Active; 'I' for Inactive)
REMARK    1  A    between atoms: C_1  and  O_2
REMARK    2  A    between atoms: O_2  and  C_3
REMARK    3  A    between atoms: C_9  and  C_10
REMARK    4  A    between atoms: C_10  and  N_11
REMARK    5  A    between atoms: N_11  and  C_12
REMARK    6  A    between atoms: C_16  and  C_17
REMARK    7  A    between atoms: C_19  and  C_20
REMARK                            x       y       z     vdW  Elec       q    Type
REMARK                         _______ _______ _______ _____ _____    ______ ____
ROOT
ATOM      1  N   UNL     1       2.347   7.276  19.074  0.00  0.00    +0.000 NA
ATOM      2  H   UNL     1       1.417   6.924  19.306  0.00  0.00    +0.000 HD
ENDROOT
BRANCH   1   3
ATOM      3  C   UNL     1       3.166   6.181  18.545  0.00  0.00    +0.000 C 
ATOM      4  C   UNL     1       4.241   5.867  19.619  0.00  0.00    +0.000 C 
ATOM      5  C   UNL     1       5.150   4.715  19.161  0.00  0.00    +0.000 C 
ATOM      6  C   UNL     1       4.297   3.460  18.920  0.00  0.00    +0.000 C 
ATOM      7  C   UNL     1       3.235   3.736  17.836  0.00  0.00    +0.000 C 
ATOM      8  C   UNL     1       2.373   2.492  17.597  0.00  0.00    +0.000 C 
ATOM      9  C   UNL     1       3.949   4.158  16.530  0.00  0.00    +0.000 C 
ATOM     10  C   UNL     1       4.815   5.419  16.757  0.00  0.00    +0.000 C 
ATOM     11  C   UNL     1       5.517   5.823  15.457  0.00  0.00    +0.000 C 
ATOM     12  C   UNL     1       5.856   5.114  17.857  0.00  0.00    +0.000 C 
ATOM     13  C   UNL     1       3.899   6.571  17.240  0.00  0.00    +0.000 C 
ATOM     14  C   UNL     1       2.336   4.899  18.304  0.00  0.00    +0.000 C 
ENDBRANCH   1   3
BRANCH   1  15
ATOM     15  C   UNL     1       2.168   8.434  18.192  0.00  0.00    +0.000 C 
BRANCH  15  22
ATOM     16  C   UNL     1       0.713   9.664  19.913  0.00  0.00    +0.000 A 
ATOM     17  C   UNL     1      -0.463  10.364  20.207  0.00  0.00    +0.000 A 
ATOM     18  C   UNL     1      -1.414  10.616  19.214  0.00  0.00    +0.000 A 
ATOM     19  C   UNL     1      -1.195  10.168  17.916  0.00  0.00    +0.000 A 
ATOM     20  I   UNL     1      -2.579  10.587  16.426  0.00  0.00    +0.000 I 
ATOM     21  C   UNL     1      -0.040   9.463  17.608  0.00  0.00    +0.000 A 
ATOM     22  C   UNL     1       0.933   9.208  18.599  0.00  0.00    +0.000 A 
BRANCH  16  24
ATOM     23  C   UNL     1       1.277   9.041  22.138  0.00  0.00    +0.000 C 
ATOM     24  O   UNL     1       1.703   9.431  20.834  0.00  0.00    +0.000 OA
ENDBRANCH  16  24
ENDBRANCH  15  22
ENDBRANCH   1  15
TORSDOF 4
ENDMDL
MODEL 5
REMARK VINA RESULT:      -6.9      4.714      6.115
REMARK  Name = 
REMARK  7 active torsions:
REMARK  status: ('A' for Active; 'I' for Inactive)
REMARK    1  A    between atoms: C_1  and  O_2
REMARK    2  A    between atoms: O_2  and  C_3
REMARK    3  A    between atoms: C_9  and  C_10
REMARK    4  A    between atoms: C_10  and  N_11
REMARK    5  A    between atoms: N_11  and  C_12
REMARK    6  A    between atoms: C_16  and  C_17
REMARK    7  A    between atoms: C_19  and  C_20
REMARK                            x       y       z     vdW  Elec       q    Type
REMARK                         _______ _______ _______ _____ _____    ______ ____
ROOT
ATOM      1  N   UNL     1       2.189   7.583  19.888  0.00  0.00    +0.000 NA
ATOM      2  H   UNL     1       1.531   7.650  20.665  0.00  0.00    +0.000 HD
ENDROOT
BRANCH   1   3
ATOM      3  C   UNL     1       2.398   6.172  19.545  0.00  0.00    +0.000 C 
ATOM      4  C   UNL     1       1.678   5.928  18.192  0.00  0.00    +0.000 C 
ATOM      5  C   UNL     1       1.850   4.470  17.738  0.00  0.00    +0.000 C 
ATOM      6  C   UNL     1       3.347   4.162  17.575  0.00  0.00    +0.000 C 
ATOM      7  C   UNL     1       4.083   4.370  18.915  0.00  0.00    +0.000 C 
ATOM      8  C   UNL     1       5.578   4.074  18.759  0.00  0.00    +0.000 C 
ATOM      9  C   UNL     1       3.457   3.442  19.982  0.00  0.00    +0.000 C 
ATOM     10  C   UNL     1       1.948   3.738  20.155  0.00  0.00    +0.000 C 
ATOM     11  C   UNL     1       1.342   2.810  21.212  0.00  0.00    +0.000 C 
ATOM     12  C   UNL     1       1.245   3.536  18.795  0.00  0.00    +0.000 C 
ATOM     13  C   UNL     1       1.779   5.214  20.591  0.00  0.00    +0.000 C 
ATOM     14  C   UNL     1       3.896   5.835  19.364  0.00  0.00    +0.000 C 
ENDBRANCH   1   3
BRANCH   1  15
ATOM     15  C   UNL     1       1.684   8.441  18.812  0.00  0.00    +0.000 C 
BRANCH  15  22
ATOM     16  C   UNL     1       0.385   9.941  20.441  0.00  0.00    +0.000 A 
ATOM     17  C   UNL     1       0.064  11.228  20.891  0.00  0.00    +0.000 A 
ATOM     18  C   UNL     1       0.629  12.357  20.292  0.00  0.00    +0.000 A 
ATOM     19  C   UNL     1       1.523  12.209  19.238  0.00  0.00    +0.000 A 
ATOM     20  I   UNL     1       2.407  13.880  18.382  0.00  0.00    +0.000 I 
ATOM     21  C   UNL     1       1.845  10.941  18.772  0.00  0.00    +0.000 A 
ATOM     22  C   UNL     1       1.288   9.791  19.371  0.00  0.00    +0.000 A 
BRANCH  16  24
ATOM     23  C   UNL     1      -0.410   8.871  22.411  0.00  0.00    +0.000 C 
ATOM     24  O   UNL     1      -0.100   8.796  21.021  0.00  0.00    +0.000 OA
ENDBRANCH  16  24
ENDBRANCH  15  22
ENDBRANCH   1  15
TORSDOF 4
ENDMDL
MODEL 6
REMARK VINA RESULT:      -6.9      1.419      2.367
REMARK  Name = 
REMARK  7 active torsions:
REMARK  status: ('A' for Active; 'I' for Inactive)
REMARK    1  A    between atoms: C_1  and  O_2
REMARK    2  A    between atoms: O_2  and  C_3
REMARK    3  A    between atoms: C_9  and  C_10
REMARK    4  A    between atoms: C_10  and  N_11
REMARK    5  A    between atoms: N_11  and  C_12
REMARK    6  A    between atoms: C_16  and  C_17
REMARK    7  A    between atoms: C_19  and  C_20
REMARK                            x       y       z     vdW  Elec       q    Type
REMARK                         _______ _______ _______ _____ _____    ______ ____
ROOT
ATOM      1  N   UNL     1       4.844   3.011  17.622  0.00  0.00    +0.000 NA
ATOM      2  H   UNL     1       5.078   2.100  18.021  0.00  0.00    +0.000 HD
ENDROOT
BRANCH   1   3
ATOM      3  C   UNL     1       3.642   3.536  18.276  0.00  0.00    +0.000 C 
ATOM      4  C   UNL     1       2.453   3.260  17.319  0.00  0.00    +0.000 C 
ATOM      5  C   UNL     1       1.135   3.767  17.924  0.00  0.00    +0.000 C 
ATOM      6  C   UNL     1       0.882   3.052  19.261  0.00  0.00    +0.000 C 
ATOM      7  C   UNL     1       2.038   3.333  20.243  0.00  0.00    +0.000 C 
ATOM      8  C   UNL     1       1.797   2.615  21.575  0.00  0.00    +0.000 C 
ATOM      9  C   UNL     1       2.149   4.860  20.464  0.00  0.00    +0.000 C 
ATOM     10  C   UNL     1       2.401   5.594  19.126  0.00  0.00    +0.000 C 
ATOM     11  C   UNL     1       2.506   7.104  19.361  0.00  0.00    +0.000 C 
ATOM     12  C   UNL     1       1.236   5.281  18.162  0.00  0.00    +0.000 C 
ATOM     13  C   UNL     1       3.718   5.064  18.509  0.00  0.00    +0.000 C 
ATOM     14  C   UNL     1       3.355   2.827  19.620  0.00  0.00    +0.000 C 
ENDBRANCH   1   3
BRANCH   1  15
ATOM     15  C   UNL     1       6.045   3.847  17.709  0.00  0.00    +0.000 C 
BRANCH  15  22
ATOM     16  C   UNL     1       7.308   5.414  16.113  0.00  0.00    +0.000 A 
ATOM     17  C   UNL     1       7.618   5.794  14.802  0.00  0.00    +0.000 A 
ATOM     18  C   UNL     1       7.084   5.103  13.711  0.00  0.00    +0.000 A 
ATOM     19  C   UNL     1       6.235   4.023  13.923  0.00  0.00    +0.000 A 
ATOM     20  I   UNL     1       5.483   2.959  12.306  0.00  0.00    +0.000 I 
ATOM     21  C   UNL     1       5.908   3.638  15.216  0.00  0.00    +0.000 A 
ATOM     22  C   UNL     1       6.445   4.322  16.328  0.00  0.00    +0.000 A 
BRANCH  16  24
ATOM     23  C   UNL     1       7.408   7.356  17.482  0.00  0.00    +0.000 C 
ATOM     24  O   UNL     1       7.840   6.023  17.222  0.00  0.00    +0.000 OA
ENDBRANCH  16  24
ENDBRANCH  15  22
ENDBRANCH   1  15
TORSDOF 4
ENDMDL
MODEL 7
REMARK VINA RESULT:      -6.8      3.775      6.082
REMARK  Name = 
REMARK  7 active torsions:
REMARK  status: ('A' for Active; 'I' for Inactive)
REMARK    1  A    between atoms: C_1  and  O_2
REMARK    2  A    between atoms: O_2  and  C_3
REMARK    3  A    between atoms: C_9  and  C_10
REMARK    4  A    between atoms: C_10  and  N_11
REMARK    5  A    between atoms: N_11  and  C_12
REMARK    6  A    between atoms: C_16  and  C_17
REMARK    7  A    between atoms: C_19  and  C_20
REMARK                            x       y       z     vdW  Elec       q    Type
REMARK                         _______ _______ _______ _____ _____    ______ ____
ROOT
ATOM      1  N   UNL     1       3.679   7.841  17.425  0.00  0.00    +0.000 NA
ATOM      2  H   UNL     1       3.990   8.372  18.240  0.00  0.00    +0.000 HD
ENDROOT
BRANCH   1   3
ATOM      3  C   UNL     1       4.506   6.639  17.280  0.00  0.00    +0.000 C 
ATOM      4  C   UNL     1       5.002   6.610  15.810  0.00  0.00    +0.000 C 
ATOM      5  C   UNL     1       5.895   5.385  15.559  0.00  0.00    +0.000 C 
ATOM      6  C   UNL     1       7.109   5.440  16.499  0.00  0.00    +0.000 C 
ATOM      7  C   UNL     1       6.646   5.442  17.971  0.00  0.00    +0.000 C 
ATOM      8  C   UNL     1       7.851   5.507  18.914  0.00  0.00    +0.000 C 
ATOM      9  C   UNL     1       5.817   4.163  18.238  0.00  0.00    +0.000 C 
ATOM     10  C   UNL     1       4.593   4.092  17.296  0.00  0.00    +0.000 C 
ATOM     11  C   UNL     1       3.784   2.820  17.571  0.00  0.00    +0.000 C 
ATOM     12  C   UNL     1       5.090   4.107  15.834  0.00  0.00    +0.000 C 
ATOM     13  C   UNL     1       3.708   5.339  17.537  0.00  0.00    +0.000 C 
ATOM     14  C   UNL     1       5.744   6.672  18.206  0.00  0.00    +0.000 C 
ENDBRANCH   1   3
BRANCH   1  15
ATOM     15  C   UNL     1       2.237   7.619  17.571  0.00  0.00    +0.000 C 
BRANCH  15  22
ATOM     16  C   UNL     1       1.829   7.825  20.098  0.00  0.00    +0.000 A 
ATOM     17  C   UNL     1       1.318   8.561  21.174  0.00  0.00    +0.000 A 
ATOM     18  C   UNL     1       0.710   9.803  20.968  0.00  0.00    +0.000 A 
ATOM     19  C   UNL     1       0.609  10.320  19.682  0.00  0.00    +0.000 A 
ATOM     20  I   UNL     1      -0.243  12.188  19.378  0.00  0.00    +0.000 I 
ATOM     21  C   UNL     1       1.101   9.600  18.602  0.00  0.00    +0.000 A 
ATOM     22  C   UNL     1       1.724   8.348  18.795  0.00  0.00    +0.000 A 
BRANCH  16  24
ATOM     23  C   UNL     1       1.681   5.517  20.653  0.00  0.00    +0.000 C 
ATOM     24  O   UNL     1       2.479   6.626  20.245  0.00  0.00    +0.000 OA
ENDBRANCH  16  24
ENDBRANCH  15  22
ENDBRANCH   1  15
TORSDOF 4
ENDMDL
MODEL 8
REMARK VINA RESULT:      -6.8      4.915      6.403
REMARK  Name = 
REMARK  7 active torsions:
REMARK  status: ('A' for Active; 'I' for Inactive)
REMARK    1  A    between atoms: C_1  and  O_2
REMARK    2  A    between atoms: O_2  and  C_3
REMARK    3  A    between atoms: C_9  and  C_10
REMARK    4  A    between atoms: C_10  and  N_11
REMARK    5  A    between atoms: N_11  and  C_12
REMARK    6  A    between atoms: C_16  and  C_17
REMARK    7  A    between atoms: C_19  and  C_20
REMARK                            x       y       z     vdW  Elec       q    Type
REMARK                         _______ _______ _______ _____ _____    ______ ____
ROOT
ATOM      1  N   UNL     1       2.221   7.445  20.012  0.00  0.00    +0.000 NA
ATOM      2  H   UNL     1       3.075   7.812  20.434  0.00  0.00    +0.000 HD
ENDROOT
BRANCH   1   3
ATOM      3  C   UNL     1       2.417   6.037  19.657  0.00  0.00    +0.000 C 
ATOM      4  C   UNL     1       1.664   5.801  18.321  0.00  0.00    +0.000 C 
ATOM      5  C   UNL     1       1.821   4.345  17.854  0.00  0.00    +0.000 C 
ATOM      6  C   UNL     1       3.312   4.035  17.653  0.00  0.00    +0.000 C 
ATOM      7  C   UNL     1       4.083   4.234  18.975  0.00  0.00    +0.000 C 
ATOM      8  C   UNL     1       5.573   3.936  18.780  0.00  0.00    +0.000 C 
ATOM      9  C   UNL     1       3.481   3.302  20.052  0.00  0.00    +0.000 C 
ATOM     10  C   UNL     1       1.978   3.600  20.264  0.00  0.00    +0.000 C 
ATOM     11  C   UNL     1       1.397   2.668  21.332  0.00  0.00    +0.000 C 
ATOM     12  C   UNL     1       1.240   3.406  18.922  0.00  0.00    +0.000 C 
ATOM     13  C   UNL     1       1.823   5.074  20.712  0.00  0.00    +0.000 C 
ATOM     14  C   UNL     1       3.910   5.697  19.436  0.00  0.00    +0.000 C 
ENDBRANCH   1   3
BRANCH   1  15
ATOM     15  C   UNL     1       1.118   7.731  20.935  0.00  0.00    +0.000 C 
BRANCH  15  22
ATOM     16  C   UNL     1       0.696   9.755  19.412  0.00  0.00    +0.000 A 
ATOM     17  C   UNL     1       0.150  11.033  19.240  0.00  0.00    +0.000 A 
ATOM     18  C   UNL     1      -0.535  11.666  20.281  0.00  0.00    +0.000 A 
ATOM     19  C   UNL     1      -0.680  11.024  21.505  0.00  0.00    +0.000 A 
ATOM     20  I   UNL     1      -1.743  11.937  23.037  0.00  0.00    +0.000 I 
ATOM     21  C   UNL     1      -0.136   9.762  21.698  0.00  0.00    +0.000 A 
ATOM     22  C   UNL     1       0.552   9.107  20.654  0.00  0.00    +0.000 A 
BRANCH  16  24
ATOM     23  C   UNL     1       2.296   9.794  17.653  0.00  0.00    +0.000 C 
ATOM     24  O   UNL     1       1.335   9.066  18.413  0.00  0.00    +0.000 OA
ENDBRANCH  16  24
ENDBRANCH  15  22
ENDBRANCH   1  15
TORSDOF 4
ENDMDL
MODEL 9
REMARK VINA RESULT:      -6.7      5.152      6.999
REMARK  Name = 
REMARK  7 active torsions:
REMARK  status: ('A' for Active; 'I' for Inactive)
REMARK    1  A    between atoms: C_1  and  O_2
REMARK    2  A    between atoms: O_2  and  C_3
REMARK    3  A    between atoms: C_9  and  C_10
REMARK    4  A    between atoms: C_10  and  N_11
REMARK    5  A    between atoms: N_11  and  C_12
REMARK    6  A    between atoms: C_16  and  C_17
REMARK    7  A    between atoms: C_19  and  C_20
REMARK                            x       y       z     vdW  Elec       q    Type
REMARK                         _______ _______ _______ _____ _____    ______ ____
ROOT
ATOM      1  N   UNL     1       1.508   8.459  17.810  0.00  0.00    +0.000 NA
ATOM      2  H   UNL     1       0.999   7.651  18.172  0.00  0.00    +0.000 HD
ENDROOT
BRANCH   1   3
ATOM      3  C   UNL     1       0.997   9.681  18.438  0.00  0.00    +0.000 C 
ATOM      4  C   UNL     1       0.973   9.423  19.968  0.00  0.00    +0.000 C 
ATOM      5  C   UNL     1       0.460  10.659  20.722  0.00  0.00    +0.000 C 
ATOM      6  C   UNL     1       1.382  11.853  20.427  0.00  0.00    +0.000 C 
ATOM      7  C   UNL     1       1.403  12.150  18.913  0.00  0.00    +0.000 C 
ATOM      8  C   UNL     1       2.328  13.333  18.610  0.00  0.00    +0.000 C 
ATOM      9  C   UNL     1      -0.038  12.455  18.441  0.00  0.00    +0.000 C 
ATOM     10  C   UNL     1      -0.980  11.263  18.735  0.00  0.00    +0.000 C 
ATOM     11  C   UNL     1      -2.402  11.581  18.264  0.00  0.00    +0.000 C 
ATOM     12  C   UNL     1      -0.966  10.983  20.253  0.00  0.00    +0.000 C 
ATOM     13  C   UNL     1      -0.446  10.014  17.991  0.00  0.00    +0.000 C 
ATOM     14  C   UNL     1       1.911  10.898  18.168  0.00  0.00    +0.000 C 
ENDBRANCH   1   3
BRANCH   1  15
ATOM     15  C   UNL     1       2.938   8.189  17.988  0.00  0.00    +0.000 C 
BRANCH  15  22
ATOM     16  C   UNL     1       4.228   6.066  17.338  0.00  0.00    +0.000 A 
ATOM     17  C   UNL     1       4.374   4.677  17.431  0.00  0.00    +0.000 A 
ATOM     18  C   UNL     1       3.498   3.914  18.207  0.00  0.00    +0.000 A 
ATOM     19  C   UNL     1       2.466   4.536  18.900  0.00  0.00    +0.000 A 
ATOM     20  I   UNL     1       1.194   3.414  20.098  0.00  0.00    +0.000 I 
ATOM     21  C   UNL     1       2.298   5.911  18.812  0.00  0.00    +0.000 A 
ATOM     22  C   UNL     1       3.180   6.696  18.038  0.00  0.00    +0.000 A 
BRANCH  16  24
ATOM     23  C   UNL     1       6.445   6.881  17.063  0.00  0.00    +0.000 C 
ATOM     24  O   UNL     1       5.086   6.871  16.632  0.00  0.00    +0.000 OA
ENDBRANCH  16  24
ENDBRANCH  15  22
ENDBRANCH   1  15
TORSDOF 4
ENDMDL
