MODEL 1
REMARK VINA RESULT:      -6.5      0.000      0.000
REMARK  Name = 
REMARK  8 active torsions:
REMARK  status: ('A' for Active; 'I' for Inactive)
REMARK    1  A    between atoms: C_1  and  C_2
REMARK    2  A    between atoms: C_2  and  O_3
REMARK    3  A    between atoms: O_3  and  C_4
REMARK    4  A    between atoms: C_4  and  C_6
REMARK    5  A    between atoms: C_6  and  C_7
REMARK    6  A    between atoms: C_8  and  C_9
REMARK    7  A    between atoms: N_17  and  C_18
REMARK    8  A    between atoms: C_21  and  C_22
REMARK                            x       y       z     vdW  Elec       q    Type
REMARK                         _______ _______ _______ _____ _____    ______ ____
ROOT
ATOM      1  C   UNL     1       8.612  13.979  21.154  0.00  0.00    +0.000 A 
ATOM      2  C   UNL     1       8.307  14.635  19.960  0.00  0.00    +0.000 A 
ATOM      3  C   UNL     1       6.902  14.817  19.944  0.00  0.00    +0.000 A 
ATOM      4  C   UNL     1       6.376  14.378  21.157  0.00  0.00    +0.000 A 
ATOM      5  N   UNL     1       7.430  13.853  21.924  0.00  0.00    +0.000 N 
ATOM      6  C   UNL     1       4.977  14.592  21.501  0.00  0.00    +0.000 C 
ATOM      7  O   UNL     1       4.444  14.319  22.570  0.00  0.00    +0.000 OA
ATOM      8  C   UNL     1       4.115  15.247  20.467  0.00  0.00    +0.000 A 
ATOM      9  C   UNL     1       2.750  15.470  20.725  0.00  0.00    +0.000 A 
ATOM     10  C   UNL     1       1.942  16.131  19.784  0.00  0.00    +0.000 A 
ATOM     11  C   UNL     1       2.493  16.582  18.591  0.00  0.00    +0.000 A 
ATOM     12  C   UNL     1       3.844  16.346  18.321  0.00  0.00    +0.000 A 
ATOM     13  C   UNL     1       4.647  15.670  19.249  0.00  0.00    +0.000 A 
ATOM     14  C   UNL     1       6.052  15.402  18.901  0.00  0.00    +0.000 C 
ATOM     15  O   UNL     1       6.449  15.645  17.770  0.00  0.00    +0.000 OA
ENDROOT
BRANCH   5  16
ATOM     16  C   UNL     1       7.348  13.283  23.248  0.00  0.00    +0.000 A 
ATOM     17  C   UNL     1       6.980  11.948  23.445  0.00  0.00    +0.000 A 
ATOM     18  C   UNL     1       6.844  11.417  24.735  0.00  0.00    +0.000 A 
ATOM     19  C   UNL     1       7.134  12.188  25.864  0.00  0.00    +0.000 A 
ATOM     20  C   UNL     1       6.957  11.654  27.253  0.00  0.00    +0.000 C 
ATOM     21  C   UNL     1       7.575  13.497  25.677  0.00  0.00    +0.000 A 
ATOM     22  C   UNL     1       7.642  14.043  24.391  0.00  0.00    +0.000 A 
ENDBRANCH   5  16
BRANCH   2  23
ATOM     23  C   UNL     1       9.301  15.092  18.976  0.00  0.00    +0.000 A 
ATOM     24  C   UNL     1       9.823  14.257  17.987  0.00  0.00    +0.000 A 
ATOM     25  C   UNL     1      10.862  14.677  17.152  0.00  0.00    +0.000 A 
ATOM     26  C   UNL     1      11.324  15.987  17.215  0.00  0.00    +0.000 A 
ATOM     27  C   UNL     1      10.750  16.871  18.121  0.00  0.00    +0.000 A 
ATOM     28  C   UNL     1       9.770  16.421  19.014  0.00  0.00    +0.000 A 
ENDBRANCH   2  23
BRANCH   1  29
ATOM     29  C   UNL     1       9.948  13.418  21.605  0.00  0.00    +0.000 C 
BRANCH  29  30
ATOM     30  C   UNL     1      10.352  12.193  20.808  0.00  0.00    +0.000 C 
ATOM     31  O   UNL     1      11.489  11.882  20.480  0.00  0.00    +0.000 OA
BRANCH  30  32
ATOM     32  O   UNL     1       9.230  11.467  20.521  0.00  0.00    +0.000 OA
BRANCH  32  34
ATOM     33  C   UNL     1       8.940  10.729  18.273  0.00  0.00    +0.000 C 
ATOM     34  C   UNL     1       9.436  10.344  19.655  0.00  0.00    +0.000 C 
ENDBRANCH  32  34
ENDBRANCH  30  32
ENDBRANCH  29  30
ENDBRANCH   1  29
TORSDOF 6
ENDMDL
MODEL 2
REMARK VINA RESULT:      -6.4      0.171      1.175
REMARK  Name = 
REMARK  8 active torsions:
REMARK  status: ('A' for Active; 'I' for Inactive)
REMARK    1  A    between atoms: C_1  and  C_2
REMARK    2  A    between atoms: C_2  and  O_3
REMARK    3  A    between atoms: O_3  and  C_4
REMARK    4  A    between atoms: C_4  and  C_6
REMARK    5  A    between atoms: C_6  and  C_7
REMARK    6  A    between atoms: C_8  and  C_9
REMARK    7  A    between atoms: N_17  and  C_18
REMARK    8  A    between atoms: C_21  and  C_22
REMARK                            x       y       z     vdW  Elec       q    Type
REMARK                         _______ _______ _______ _____ _____    ______ ____
ROOT
ATOM      1  C   UNL     1       8.507  14.010  21.206  0.00  0.00    +0.000 A 
ATOM      2  C   UNL     1       8.262  14.682  20.007  0.00  0.00    +0.000 A 
ATOM      3  C   UNL     1       6.860  14.875  19.928  0.00  0.00    +0.000 A 
ATOM      4  C   UNL     1       6.276  14.426  21.111  0.00  0.00    +0.000 A 
ATOM      5  N   UNL     1       7.290  13.884  21.919  0.00  0.00    +0.000 N 
ATOM      6  C   UNL     1       4.864  14.646  21.392  0.00  0.00    +0.000 C 
ATOM      7  O   UNL     1       4.281  14.364  22.433  0.00  0.00    +0.000 OA
ATOM      8  C   UNL     1       4.055  15.318  20.327  0.00  0.00    +0.000 A 
ATOM      9  C   UNL     1       2.681  15.548  20.525  0.00  0.00    +0.000 A 
ATOM     10  C   UNL     1       1.922  16.225  19.555  0.00  0.00    +0.000 A 
ATOM     11  C   UNL     1       2.530  16.685  18.395  0.00  0.00    +0.000 A 
ATOM     12  C   UNL     1       3.890  16.443  18.184  0.00  0.00    +0.000 A 
ATOM     13  C   UNL     1       4.646  15.751  19.141  0.00  0.00    +0.000 A 
ATOM     14  C   UNL     1       6.063  15.477  18.854  0.00  0.00    +0.000 C 
ATOM     15  O   UNL     1       6.513  15.729  17.745  0.00  0.00    +0.000 OA
ENDROOT
BRANCH   5  16
ATOM     16  C   UNL     1       7.144  13.300  23.231  0.00  0.00    +0.000 A 
ATOM     17  C   UNL     1       7.388  14.043  24.391  0.00  0.00    +0.000 A 
ATOM     18  C   UNL     1       7.303  13.453  25.660  0.00  0.00    +0.000 A 
ATOM     19  C   UNL     1       6.908  12.121  25.808  0.00  0.00    +0.000 A 
ATOM     20  C   UNL     1       6.849  11.460  27.152  0.00  0.00    +0.000 C 
ATOM     21  C   UNL     1       6.590  11.393  24.664  0.00  0.00    +0.000 A 
ATOM     22  C   UNL     1       6.743  11.965  23.397  0.00  0.00    +0.000 A 
ENDBRANCH   5  16
BRANCH   2  23
ATOM     23  C   UNL     1       9.303  15.143  19.075  0.00  0.00    +0.000 A 
ATOM     24  C   UNL     1       9.822  16.438  19.103  0.00  0.00    +0.000 A 
ATOM     25  C   UNL     1      10.710  16.891  18.124  0.00  0.00    +0.000 A 
ATOM     26  C   UNL     1      11.187  16.014  17.155  0.00  0.00    +0.000 A 
ATOM     27  C   UNL     1      10.767  14.690  17.165  0.00  0.00    +0.000 A 
ATOM     28  C   UNL     1       9.811  14.265  18.095  0.00  0.00    +0.000 A 
ENDBRANCH   2  23
BRANCH   1  29
ATOM     29  C   UNL     1       9.817  13.435  21.711  0.00  0.00    +0.000 C 
BRANCH  29  30
ATOM     30  C   UNL     1      10.263  12.232  20.902  0.00  0.00    +0.000 C 
ATOM     31  O   UNL     1      11.408  11.970  20.561  0.00  0.00    +0.000 OA
BRANCH  30  32
ATOM     32  O   UNL     1       9.169  11.462  20.623  0.00  0.00    +0.000 OA
BRANCH  32  34
ATOM     33  C   UNL     1       8.994  10.793  18.341  0.00  0.00    +0.000 C 
ATOM     34  C   UNL     1       9.409  10.362  19.736  0.00  0.00    +0.000 C 
ENDBRANCH  32  34
ENDBRANCH  30  32
ENDBRANCH  29  30
ENDBRANCH   1  29
TORSDOF 6
ENDMDL
MODEL 3
REMARK VINA RESULT:      -6.3      0.858      1.012
REMARK  Name = 
REMARK  8 active torsions:
REMARK  status: ('A' for Active; 'I' for Inactive)
REMARK    1  A    between atoms: C_1  and  C_2
REMARK    2  A    between atoms: C_2  and  O_3
REMARK    3  A    between atoms: O_3  and  C_4
REMARK    4  A    between atoms: C_4  and  C_6
REMARK    5  A    between atoms: C_6  and  C_7
REMARK    6  A    between atoms: C_8  and  C_9
REMARK    7  A    between atoms: N_17  and  C_18
REMARK    8  A    between atoms: C_21  and  C_22
REMARK                            x       y       z     vdW  Elec       q    Type
REMARK                         _______ _______ _______ _____ _____    ______ ____
ROOT
ATOM      1  C   UNL     1       8.321  14.284  21.266  0.00  0.00    +0.000 A 
ATOM      2  C   UNL     1       7.937  14.939  20.094  0.00  0.00    +0.000 A 
ATOM      3  C   UNL     1       6.520  14.964  20.088  0.00  0.00    +0.000 A 
ATOM      4  C   UNL     1       6.054  14.432  21.289  0.00  0.00    +0.000 A 
ATOM      5  N   UNL     1       7.165  14.003  22.035  0.00  0.00    +0.000 N 
ATOM      6  C   UNL     1       4.643  14.478  21.643  0.00  0.00    +0.000 C 
ATOM      7  O   UNL     1       4.151  14.115  22.705  0.00  0.00    +0.000 OA
ATOM      8  C   UNL     1       3.706  15.065  20.633  0.00  0.00    +0.000 A 
ATOM      9  C   UNL     1       2.327  15.127  20.903  0.00  0.00    +0.000 A 
ATOM     10  C   UNL     1       1.445  15.723  19.985  0.00  0.00    +0.000 A 
ATOM     11  C   UNL     1       1.934  16.269  18.806  0.00  0.00    +0.000 A 
ATOM     12  C   UNL     1       3.300  16.194  18.524  0.00  0.00    +0.000 A 
ATOM     13  C   UNL     1       4.180  15.582  19.428  0.00  0.00    +0.000 A 
ATOM     14  C   UNL     1       5.603  15.483  19.067  0.00  0.00    +0.000 C 
ATOM     15  O   UNL     1       5.964  15.803  17.942  0.00  0.00    +0.000 OA
ENDROOT
BRANCH   5  16
ATOM     16  C   UNL     1       7.156  13.387  23.341  0.00  0.00    +0.000 A 
ATOM     17  C   UNL     1       6.947  12.013  23.496  0.00  0.00    +0.000 A 
ATOM     18  C   UNL     1       6.879  11.430  24.770  0.00  0.00    +0.000 A 
ATOM     19  C   UNL     1       7.082  12.195  25.921  0.00  0.00    +0.000 A 
ATOM     20  C   UNL     1       6.974  11.600  27.293  0.00  0.00    +0.000 C 
ATOM     21  C   UNL     1       7.366  13.551  25.775  0.00  0.00    +0.000 A 
ATOM     22  C   UNL     1       7.364  14.141  24.507  0.00  0.00    +0.000 A 
ENDBRANCH   5  16
BRANCH   2  23
ATOM     23  C   UNL     1       8.868  15.534  19.122  0.00  0.00    +0.000 A 
ATOM     24  C   UNL     1       9.498  14.787  18.125  0.00  0.00    +0.000 A 
ATOM     25  C   UNL     1      10.477  15.348  17.301  0.00  0.00    +0.000 A 
ATOM     26  C   UNL     1      10.765  16.706  17.384  0.00  0.00    +0.000 A 
ATOM     27  C   UNL     1      10.078  17.496  18.298  0.00  0.00    +0.000 A 
ATOM     28  C   UNL     1       9.161  16.912  19.179  0.00  0.00    +0.000 A 
ENDBRANCH   2  23
BRANCH   1  29
ATOM     29  C   UNL     1       9.714  13.861  21.695  0.00  0.00    +0.000 C 
BRANCH  29  30
ATOM     30  C   UNL     1      10.158  12.580  21.014  0.00  0.00    +0.000 C 
ATOM     31  O   UNL     1       9.573  11.507  21.033  0.00  0.00    +0.000 OA
BRANCH  30  32
ATOM     32  O   UNL     1      11.327  12.821  20.349  0.00  0.00    +0.000 OA
BRANCH  32  34
ATOM     33  C   UNL     1      11.611  11.833  18.197  0.00  0.00    +0.000 C 
ATOM     34  C   UNL     1      11.893  11.686  19.681  0.00  0.00    +0.000 C 
ENDBRANCH  32  34
ENDBRANCH  30  32
ENDBRANCH  29  30
ENDBRANCH   1  29
TORSDOF 6
ENDMDL
MODEL 4
REMARK VINA RESULT:      -6.3      1.672      5.878
REMARK  Name = 
REMARK  8 active torsions:
REMARK  status: ('A' for Active; 'I' for Inactive)
REMARK    1  A    between atoms: C_1  and  C_2
REMARK    2  A    between atoms: C_2  and  O_3
REMARK    3  A    between atoms: O_3  and  C_4
REMARK    4  A    between atoms: C_4  and  C_6
REMARK    5  A    between atoms: C_6  and  C_7
REMARK    6  A    between atoms: C_8  and  C_9
REMARK    7  A    between atoms: N_17  and  C_18
REMARK    8  A    between atoms: C_21  and  C_22
REMARK                            x       y       z     vdW  Elec       q    Type
REMARK                         _______ _______ _______ _____ _____    ______ ____
ROOT
ATOM      1  C   UNL     1       7.398  14.770  19.558  0.00  0.00    +0.000 A 
ATOM      2  C   UNL     1       8.336  13.959  20.201  0.00  0.00    +0.000 A 
ATOM      3  C   UNL     1       7.838  13.720  21.507  0.00  0.00    +0.000 A 
ATOM      4  C   UNL     1       6.568  14.284  21.616  0.00  0.00    +0.000 A 
ATOM      5  N   UNL     1       6.279  14.942  20.408  0.00  0.00    +0.000 N 
ATOM      6  C   UNL     1       5.735  14.058  22.788  0.00  0.00    +0.000 C 
ATOM      7  O   UNL     1       4.580  14.439  22.940  0.00  0.00    +0.000 OA
ATOM      8  C   UNL     1       6.327  13.247  23.898  0.00  0.00    +0.000 A 
ATOM      9  C   UNL     1       5.584  13.002  25.068  0.00  0.00    +0.000 A 
ATOM     10  C   UNL     1       6.109  12.199  26.094  0.00  0.00    +0.000 A 
ATOM     11  C   UNL     1       7.367  11.627  25.954  0.00  0.00    +0.000 A 
ATOM     12  C   UNL     1       8.117  11.881  24.803  0.00  0.00    +0.000 A 
ATOM     13  C   UNL     1       7.604  12.699  23.786  0.00  0.00    +0.000 A 
ATOM     14  C   UNL     1       8.450  12.978  22.614  0.00  0.00    +0.000 C 
ATOM     15  O   UNL     1       9.618  12.613  22.613  0.00  0.00    +0.000 OA
ENDROOT
BRANCH   5  16
ATOM     16  C   UNL     1       5.076  15.667  20.074  0.00  0.00    +0.000 A 
ATOM     17  C   UNL     1       4.861  16.971  20.531  0.00  0.00    +0.000 A 
ATOM     18  C   UNL     1       3.665  17.647  20.254  0.00  0.00    +0.000 A 
ATOM     19  C   UNL     1       2.677  17.063  19.457  0.00  0.00    +0.000 A 
ATOM     20  C   UNL     1       1.374  17.752  19.182  0.00  0.00    +0.000 C 
ATOM     21  C   UNL     1       2.913  15.794  18.934  0.00  0.00    +0.000 A 
ATOM     22  C   UNL     1       4.077  15.095  19.270  0.00  0.00    +0.000 A 
ENDBRANCH   5  16
BRANCH   2  23
ATOM     23  C   UNL     1       9.555  13.425  19.575  0.00  0.00    +0.000 A 
ATOM     24  C   UNL     1       9.533  12.374  18.657  0.00  0.00    +0.000 A 
ATOM     25  C   UNL     1      10.713  11.797  18.179  0.00  0.00    +0.000 A 
ATOM     26  C   UNL     1      11.945  12.339  18.527  0.00  0.00    +0.000 A 
ATOM     27  C   UNL     1      11.993  13.451  19.358  0.00  0.00    +0.000 A 
ATOM     28  C   UNL     1      10.813  13.971  19.901  0.00  0.00    +0.000 A 
ENDBRANCH   2  23
BRANCH   1  29
ATOM     29  C   UNL     1       7.506  15.435  18.198  0.00  0.00    +0.000 C 
BRANCH  29  30
ATOM     30  C   UNL     1       8.099  16.828  18.288  0.00  0.00    +0.000 C 
ATOM     31  O   UNL     1       7.479  17.880  18.340  0.00  0.00    +0.000 OA
BRANCH  30  32
ATOM     32  O   UNL     1       9.461  16.722  18.321  0.00  0.00    +0.000 OA
BRANCH  32  34
ATOM     33  C   UNL     1      11.577  16.508  17.243  0.00  0.00    +0.000 C 
ATOM     34  C   UNL     1      10.075  16.369  17.075  0.00  0.00    +0.000 C 
ENDBRANCH  32  34
ENDBRANCH  30  32
ENDBRANCH  29  30
ENDBRANCH   1  29
TORSDOF 6
ENDMDL
MODEL 5
REMARK VINA RESULT:      -6.2      1.603      5.912
REMARK  Name = 
REMARK  8 active torsions:
REMARK  status: ('A' for Active; 'I' for Inactive)
REMARK    1  A    between atoms: C_1  and  C_2
REMARK    2  A    between atoms: C_2  and  O_3
REMARK    3  A    between atoms: O_3  and  C_4
REMARK    4  A    between atoms: C_4  and  C_6
REMARK    5  A    between atoms: C_6  and  C_7
REMARK    6  A    between atoms: C_8  and  C_9
REMARK    7  A    between atoms: N_17  and  C_18
REMARK    8  A    between atoms: C_21  and  C_22
REMARK                            x       y       z     vdW  Elec       q    Type
REMARK                         _______ _______ _______ _____ _____    ______ ____
ROOT
ATOM      1  C   UNL     1       7.175  14.696  19.594  0.00  0.00    +0.000 A 
ATOM      2  C   UNL     1       8.162  13.962  20.255  0.00  0.00    +0.000 A 
ATOM      3  C   UNL     1       7.711  13.781  21.586  0.00  0.00    +0.000 A 
ATOM      4  C   UNL     1       6.423  14.301  21.700  0.00  0.00    +0.000 A 
ATOM      5  N   UNL     1       6.074  14.875  20.466  0.00  0.00    +0.000 N 
ATOM      6  C   UNL     1       5.631  14.113  22.908  0.00  0.00    +0.000 C 
ATOM      7  O   UNL     1       4.467  14.458  23.072  0.00  0.00    +0.000 OA
ATOM      8  C   UNL     1       6.286  13.392  24.045  0.00  0.00    +0.000 A 
ATOM      9  C   UNL     1       5.586  13.189  25.249  0.00  0.00    +0.000 A 
ATOM     10  C   UNL     1       6.171  12.468  26.304  0.00  0.00    +0.000 A 
ATOM     11  C   UNL     1       7.446  11.938  26.159  0.00  0.00    +0.000 A 
ATOM     12  C   UNL     1       8.154  12.152  24.974  0.00  0.00    +0.000 A 
ATOM     13  C   UNL     1       7.581  12.888  23.927  0.00  0.00    +0.000 A 
ATOM     14  C   UNL     1       8.382  13.130  22.716  0.00  0.00    +0.000 C 
ATOM     15  O   UNL     1       9.563  12.811  22.701  0.00  0.00    +0.000 OA
ENDROOT
BRANCH   5  16
ATOM     16  C   UNL     1       4.834  15.532  20.126  0.00  0.00    +0.000 A 
ATOM     17  C   UNL     1       3.822  14.864  19.430  0.00  0.00    +0.000 A 
ATOM     18  C   UNL     1       2.646  15.525  19.050  0.00  0.00    +0.000 A 
ATOM     19  C   UNL     1       2.420  16.855  19.414  0.00  0.00    +0.000 A 
ATOM     20  C   UNL     1       1.188  17.593  18.984  0.00  0.00    +0.000 C 
ATOM     21  C   UNL     1       3.389  17.508  20.173  0.00  0.00    +0.000 A 
ATOM     22  C   UNL     1       4.590  16.866  20.489  0.00  0.00    +0.000 A 
ENDBRANCH   5  16
BRANCH   2  23
ATOM     23  C   UNL     1       9.384  13.439  19.624  0.00  0.00    +0.000 A 
ATOM     24  C   UNL     1      10.624  14.068  19.744  0.00  0.00    +0.000 A 
ATOM     25  C   UNL     1      11.739  13.626  19.026  0.00  0.00    +0.000 A 
ATOM     26  C   UNL     1      11.661  12.470  18.258  0.00  0.00    +0.000 A 
ATOM     27  C   UNL     1      10.465  11.764  18.203  0.00  0.00    +0.000 A 
ATOM     28  C   UNL     1       9.330  12.259  18.854  0.00  0.00    +0.000 A 
ENDBRANCH   2  23
BRANCH   1  29
ATOM     29  C   UNL     1       7.218  15.284  18.196  0.00  0.00    +0.000 C 
BRANCH  29  30
ATOM     30  C   UNL     1       7.922  16.627  18.161  0.00  0.00    +0.000 C 
ATOM     31  O   UNL     1       7.482  17.688  18.580  0.00  0.00    +0.000 OA
BRANCH  30  32
ATOM     32  O   UNL     1       9.153  16.461  17.593  0.00  0.00    +0.000 OA
BRANCH  32  34
ATOM     33  C   UNL     1      11.418  17.131  17.259  0.00  0.00    +0.000 C 
ATOM     34  C   UNL     1      10.193  17.281  18.143  0.00  0.00    +0.000 C 
ENDBRANCH  32  34
ENDBRANCH  30  32
ENDBRANCH  29  30
ENDBRANCH   1  29
TORSDOF 6
ENDMDL
MODEL 6
REMARK VINA RESULT:      -6.1      7.405     10.885
REMARK  Name = 
REMARK  8 active torsions:
REMARK  status: ('A' for Active; 'I' for Inactive)
REMARK    1  A    between atoms: C_1  and  C_2
REMARK    2  A    between atoms: C_2  and  O_3
REMARK    3  A    between atoms: O_3  and  C_4
REMARK    4  A    between atoms: C_4  and  C_6
REMARK    5  A    between atoms: C_6  and  C_7
REMARK    6  A    between atoms: C_8  and  C_9
REMARK    7  A    between atoms: N_17  and  C_18
REMARK    8  A    between atoms: C_21  and  C_22
REMARK                            x       y       z     vdW  Elec       q    Type
REMARK                         _______ _______ _______ _____ _____    ______ ____
ROOT
ATOM      1  C   UNL     1      -1.026  13.145  21.445  0.00  0.00    +0.000 A 
ATOM      2  C   UNL     1      -2.203  13.818  21.777  0.00  0.00    +0.000 A 
ATOM      3  C   UNL     1      -3.171  13.443  20.812  0.00  0.00    +0.000 A 
ATOM      4  C   UNL     1      -2.622  12.474  19.974  0.00  0.00    +0.000 A 
ATOM      5  N   UNL     1      -1.284  12.276  20.357  0.00  0.00    +0.000 N 
ATOM      6  C   UNL     1      -3.432  11.775  18.987  0.00  0.00    +0.000 C 
ATOM      7  O   UNL     1      -3.063  10.855  18.267  0.00  0.00    +0.000 OA
ATOM      8  C   UNL     1      -4.866  12.189  18.868  0.00  0.00    +0.000 A 
ATOM      9  C   UNL     1      -5.704  11.567  17.924  0.00  0.00    +0.000 A 
ATOM     10  C   UNL     1      -7.064  11.910  17.838  0.00  0.00    +0.000 A 
ATOM     11  C   UNL     1      -7.596  12.860  18.700  0.00  0.00    +0.000 A 
ATOM     12  C   UNL     1      -6.765  13.495  19.627  0.00  0.00    +0.000 A 
ATOM     13  C   UNL     1      -5.403  13.170  19.701  0.00  0.00    +0.000 A 
ATOM     14  C   UNL     1      -4.557  13.898  20.659  0.00  0.00    +0.000 C 
ATOM     15  O   UNL     1      -5.019  14.857  21.264  0.00  0.00    +0.000 OA
ENDROOT
BRANCH   5  16
ATOM     16  C   UNL     1      -0.331  11.367  19.765  0.00  0.00    +0.000 A 
ATOM     17  C   UNL     1       0.485  11.760  18.700  0.00  0.00    +0.000 A 
ATOM     18  C   UNL     1       1.365  10.855  18.090  0.00  0.00    +0.000 A 
ATOM     19  C   UNL     1       1.500   9.549  18.570  0.00  0.00    +0.000 A 
ATOM     20  C   UNL     1       2.405   8.554  17.909  0.00  0.00    +0.000 C 
ATOM     21  C   UNL     1       0.746   9.170  19.679  0.00  0.00    +0.000 A 
ATOM     22  C   UNL     1      -0.180  10.055  20.240  0.00  0.00    +0.000 A 
ENDBRANCH   5  16
BRANCH   2  23
ATOM     23  C   UNL     1      -2.372  14.682  22.955  0.00  0.00    +0.000 A 
ATOM     24  C   UNL     1      -2.764  14.191  24.202  0.00  0.00    +0.000 A 
ATOM     25  C   UNL     1      -3.047  15.048  25.268  0.00  0.00    +0.000 A 
ATOM     26  C   UNL     1      -2.834  16.416  25.140  0.00  0.00    +0.000 A 
ATOM     27  C   UNL     1      -2.345  16.923  23.942  0.00  0.00    +0.000 A 
ATOM     28  C   UNL     1      -2.146  16.070  22.850  0.00  0.00    +0.000 A 
ENDBRANCH   2  23
BRANCH   1  29
ATOM     29  C   UNL     1       0.352  13.297  22.063  0.00  0.00    +0.000 C 
BRANCH  29  30
ATOM     30  C   UNL     1       0.972  14.645  21.751  0.00  0.00    +0.000 C 
ATOM     31  O   UNL     1       1.544  15.383  22.541  0.00  0.00    +0.000 OA
BRANCH  30  32
ATOM     32  O   UNL     1       0.806  14.906  20.420  0.00  0.00    +0.000 OA
BRANCH  32  34
ATOM     33  C   UNL     1      -0.745  16.257  19.213  0.00  0.00    +0.000 C 
ATOM     34  C   UNL     1       0.487  16.266  20.101  0.00  0.00    +0.000 C 
ENDBRANCH  32  34
ENDBRANCH  30  32
ENDBRANCH  29  30
ENDBRANCH   1  29
TORSDOF 6
ENDMDL
MODEL 7
REMARK VINA RESULT:      -6.1      7.306     10.885
REMARK  Name = 
REMARK  8 active torsions:
REMARK  status: ('A' for Active; 'I' for Inactive)
REMARK    1  A    between atoms: C_1  and  C_2
REMARK    2  A    between atoms: C_2  and  O_3
REMARK    3  A    between atoms: O_3  and  C_4
REMARK    4  A    between atoms: C_4  and  C_6
REMARK    5  A    between atoms: C_6  and  C_7
REMARK    6  A    between atoms: C_8  and  C_9
REMARK    7  A    between atoms: N_17  and  C_18
REMARK    8  A    between atoms: C_21  and  C_22
REMARK                            x       y       z     vdW  Elec       q    Type
REMARK                         _______ _______ _______ _____ _____    ______ ____
ROOT
ATOM      1  C   UNL     1      -1.130  13.052  21.446  0.00  0.00    +0.000 A 
ATOM      2  C   UNL     1      -2.284  13.778  21.747  0.00  0.00    +0.000 A 
ATOM      3  C   UNL     1      -3.249  13.431  20.768  0.00  0.00    +0.000 A 
ATOM      4  C   UNL     1      -2.725  12.429  19.953  0.00  0.00    +0.000 A 
ATOM      5  N   UNL     1      -1.403  12.181  20.363  0.00  0.00    +0.000 N 
ATOM      6  C   UNL     1      -3.545  11.751  18.960  0.00  0.00    +0.000 C 
ATOM      7  O   UNL     1      -3.200  10.807  18.258  0.00  0.00    +0.000 OA
ATOM      8  C   UNL     1      -4.958  12.221  18.808  0.00  0.00    +0.000 A 
ATOM      9  C   UNL     1      -5.803  11.622  17.856  0.00  0.00    +0.000 A 
ATOM     10  C   UNL     1      -7.146  12.019  17.741  0.00  0.00    +0.000 A 
ATOM     11  C   UNL     1      -7.654  13.002  18.580  0.00  0.00    +0.000 A 
ATOM     12  C   UNL     1      -6.815  13.614  19.514  0.00  0.00    +0.000 A 
ATOM     13  C   UNL     1      -5.469  13.235  19.618  0.00  0.00    +0.000 A 
ATOM     14  C   UNL     1      -4.611  13.940  20.583  0.00  0.00    +0.000 C 
ATOM     15  O   UNL     1      -5.045  14.925  21.168  0.00  0.00    +0.000 OA
ENDROOT
BRANCH   5  16
ATOM     16  C   UNL     1      -0.478  11.226  19.801  0.00  0.00    +0.000 A 
ATOM     17  C   UNL     1      -0.285   9.969  20.383  0.00  0.00    +0.000 A 
ATOM     18  C   UNL     1       0.658   9.069  19.867  0.00  0.00    +0.000 A 
ATOM     19  C   UNL     1       1.390   9.376  18.717  0.00  0.00    +0.000 A 
ATOM     20  C   UNL     1       2.432   8.447  18.172  0.00  0.00    +0.000 C 
ATOM     21  C   UNL     1       1.151  10.595  18.086  0.00  0.00    +0.000 A 
ATOM     22  C   UNL     1       0.260  11.517  18.643  0.00  0.00    +0.000 A 
ENDBRANCH   5  16
BRANCH   2  23
ATOM     23  C   UNL     1      -2.439  14.664  22.911  0.00  0.00    +0.000 A 
ATOM     24  C   UNL     1      -2.155  16.029  22.864  0.00  0.00    +0.000 A 
ATOM     25  C   UNL     1      -2.182  16.821  24.015  0.00  0.00    +0.000 A 
ATOM     26  C   UNL     1      -2.607  16.281  25.224  0.00  0.00    +0.000 A 
ATOM     27  C   UNL     1      -2.995  14.948  25.278  0.00  0.00    +0.000 A 
ATOM     28  C   UNL     1      -2.884  14.139  24.142  0.00  0.00    +0.000 A 
ENDBRANCH   2  23
BRANCH   1  29
ATOM     29  C   UNL     1       0.241  13.157  22.088  0.00  0.00    +0.000 C 
BRANCH  29  30
ATOM     30  C   UNL     1       0.937  14.460  21.744  0.00  0.00    +0.000 C 
ATOM     31  O   UNL     1       1.310  15.315  22.534  0.00  0.00    +0.000 OA
BRANCH  30  32
ATOM     32  O   UNL     1       1.101  14.523  20.389  0.00  0.00    +0.000 OA
BRANCH  32  34
ATOM     33  C   UNL     1      -0.479  15.833  19.173  0.00  0.00    +0.000 C 
ATOM     34  C   UNL     1       0.899  15.820  19.811  0.00  0.00    +0.000 C 
ENDBRANCH  32  34
ENDBRANCH  30  32
ENDBRANCH  29  30
ENDBRANCH   1  29
TORSDOF 6
ENDMDL
MODEL 8
REMARK VINA RESULT:      -6.1      1.584      5.878
REMARK  Name = 
REMARK  8 active torsions:
REMARK  status: ('A' for Active; 'I' for Inactive)
REMARK    1  A    between atoms: C_1  and  C_2
REMARK    2  A    between atoms: C_2  and  O_3
REMARK    3  A    between atoms: O_3  and  C_4
REMARK    4  A    between atoms: C_4  and  C_6
REMARK    5  A    between atoms: C_6  and  C_7
REMARK    6  A    between atoms: C_8  and  C_9
REMARK    7  A    between atoms: N_17  and  C_18
REMARK    8  A    between atoms: C_21  and  C_22
REMARK                            x       y       z     vdW  Elec       q    Type
REMARK                         _______ _______ _______ _____ _____    ______ ____
ROOT
ATOM      1  C   UNL     1       5.909  14.692  21.605  0.00  0.00    +0.000 A 
ATOM      2  C   UNL     1       6.173  14.837  20.242  0.00  0.00    +0.000 A 
ATOM      3  C   UNL     1       7.460  14.288  20.016  0.00  0.00    +0.000 A 
ATOM      4  C   UNL     1       7.922  13.720  21.202  0.00  0.00    +0.000 A 
ATOM      5  N   UNL     1       6.966  13.963  22.203  0.00  0.00    +0.000 N 
ATOM      6  C   UNL     1       9.146  12.932  21.241  0.00  0.00    +0.000 C 
ATOM      7  O   UNL     1       9.587  12.327  22.211  0.00  0.00    +0.000 OA
ATOM      8  C   UNL     1       9.919  12.812  19.965  0.00  0.00    +0.000 A 
ATOM      9  C   UNL     1      11.119  12.079  19.933  0.00  0.00    +0.000 A 
ATOM     10  C   UNL     1      11.827  11.916  18.730  0.00  0.00    +0.000 A 
ATOM     11  C   UNL     1      11.335  12.470  17.555  0.00  0.00    +0.000 A 
ATOM     12  C   UNL     1      10.153  13.215  17.583  0.00  0.00    +0.000 A 
ATOM     13  C   UNL     1       9.456  13.397  18.786  0.00  0.00    +0.000 A 
ATOM     14  C   UNL     1       8.243  14.229  18.777  0.00  0.00    +0.000 C 
ATOM     15  O   UNL     1       7.947  14.853  17.767  0.00  0.00    +0.000 OA
ENDROOT
BRANCH   5  16
ATOM     16  C   UNL     1       7.027  13.560  23.588  0.00  0.00    +0.000 A 
ATOM     17  C   UNL     1       7.679  14.342  24.546  0.00  0.00    +0.000 A 
ATOM     18  C   UNL     1       7.788  13.916  25.877  0.00  0.00    +0.000 A 
ATOM     19  C   UNL     1       7.192  12.725  26.301  0.00  0.00    +0.000 A 
ATOM     20  C   UNL     1       7.330  12.231  27.709  0.00  0.00    +0.000 C 
ATOM     21  C   UNL     1       6.476  11.975  25.371  0.00  0.00    +0.000 A 
ATOM     22  C   UNL     1       6.429  12.369  24.030  0.00  0.00    +0.000 A 
ENDBRANCH   5  16
BRANCH   2  23
ATOM     23  C   UNL     1       5.231  15.395  19.258  0.00  0.00    +0.000 A 
ATOM     24  C   UNL     1       5.012  16.765  19.115  0.00  0.00    +0.000 A 
ATOM     25  C   UNL     1       4.017  17.262  18.269  0.00  0.00    +0.000 A 
ATOM     26  C   UNL     1       3.292  16.394  17.460  0.00  0.00    +0.000 A 
ATOM     27  C   UNL     1       3.560  15.031  17.506  0.00  0.00    +0.000 A 
ATOM     28  C   UNL     1       4.497  14.532  18.417  0.00  0.00    +0.000 A 
ENDBRANCH   2  23
BRANCH   1  29
ATOM     29  C   UNL     1       4.737  15.238  22.399  0.00  0.00    +0.000 C 
BRANCH  29  30
ATOM     30  C   UNL     1       3.441  14.521  22.072  0.00  0.00    +0.000 C 
ATOM     31  O   UNL     1       3.331  13.396  21.605  0.00  0.00    +0.000 OA
BRANCH  30  32
ATOM     32  O   UNL     1       2.395  15.336  22.402  0.00  0.00    +0.000 OA
BRANCH  32  34
ATOM     33  C   UNL     1       1.148  15.817  20.427  0.00  0.00    +0.000 C 
ATOM     34  C   UNL     1       2.112  16.376  21.457  0.00  0.00    +0.000 C 
ENDBRANCH  32  34
ENDBRANCH  30  32
ENDBRANCH  29  30
ENDBRANCH   1  29
TORSDOF 6
ENDMDL
MODEL 9
REMARK VINA RESULT:      -6.0      6.202      9.791
REMARK  Name = 
REMARK  8 active torsions:
REMARK  status: ('A' for Active; 'I' for Inactive)
REMARK    1  A    between atoms: C_1  and  C_2
REMARK    2  A    between atoms: C_2  and  O_3
REMARK    3  A    between atoms: O_3  and  C_4
REMARK    4  A    between atoms: C_4  and  C_6
REMARK    5  A    between atoms: C_6  and  C_7
REMARK    6  A    between atoms: C_8  and  C_9
REMARK    7  A    between atoms: N_17  and  C_18
REMARK    8  A    between atoms: C_21  and  C_22
REMARK                            x       y       z     vdW  Elec       q    Type
REMARK                         _______ _______ _______ _____ _____    ______ ____
ROOT
ATOM      1  C   UNL     1       0.254  12.404  20.930  0.00  0.00    +0.000 A 
ATOM      2  C   UNL     1      -0.836  13.223  21.232  0.00  0.00    +0.000 A 
ATOM      3  C   UNL     1      -1.900  12.809  20.392  0.00  0.00    +0.000 A 
ATOM      4  C   UNL     1      -1.496  11.686  19.672  0.00  0.00    +0.000 A 
ATOM      5  N   UNL     1      -0.154  11.421  19.997  0.00  0.00    +0.000 N 
ATOM      6  C   UNL     1      -2.431  10.935  18.848  0.00  0.00    +0.000 C 
ATOM      7  O   UNL     1      -2.193   9.893  18.248  0.00  0.00    +0.000 OA
ATOM      8  C   UNL     1      -3.831  11.458  18.758  0.00  0.00    +0.000 A 
ATOM      9  C   UNL     1      -4.784  10.791  17.966  0.00  0.00    +0.000 A 
ATOM     10  C   UNL     1      -6.114  11.243  17.915  0.00  0.00    +0.000 A 
ATOM     11  C   UNL     1      -6.500  12.349  18.660  0.00  0.00    +0.000 A 
ATOM     12  C   UNL     1      -5.554  13.027  19.433  0.00  0.00    +0.000 A 
ATOM     13  C   UNL     1      -4.222  12.591  19.470  0.00  0.00    +0.000 A 
ATOM     14  C   UNL     1      -3.251  13.364  20.260  0.00  0.00    +0.000 C 
ATOM     15  O   UNL     1      -3.586  14.436  20.747  0.00  0.00    +0.000 OA
ENDROOT
BRANCH   5  16
ATOM     16  C   UNL     1       0.674  10.354  19.486  0.00  0.00    +0.000 A 
ATOM     17  C   UNL     1       1.274  10.437  18.226  0.00  0.00    +0.000 A 
ATOM     18  C   UNL     1       2.027   9.373  17.710  0.00  0.00    +0.000 A 
ATOM     19  C   UNL     1       2.256   8.222  18.468  0.00  0.00    +0.000 A 
ATOM     20  C   UNL     1       3.024   7.057  17.921  0.00  0.00    +0.000 C 
ATOM     21  C   UNL     1       1.726   8.159  19.755  0.00  0.00    +0.000 A 
ATOM     22  C   UNL     1       0.918   9.193  20.237  0.00  0.00    +0.000 A 
ENDBRANCH   5  16
BRANCH   2  23
ATOM     23  C   UNL     1      -0.846  14.255  22.281  0.00  0.00    +0.000 A 
ATOM     24  C   UNL     1      -0.346  15.542  22.079  0.00  0.00    +0.000 A 
ATOM     25  C   UNL     1      -0.245  16.459  23.128  0.00  0.00    +0.000 A 
ATOM     26  C   UNL     1      -0.751  16.141  24.384  0.00  0.00    +0.000 A 
ATOM     27  C   UNL     1      -1.349  14.904  24.588  0.00  0.00    +0.000 A 
ATOM     28  C   UNL     1      -1.369  13.958  23.557  0.00  0.00    +0.000 A 
ENDBRANCH   2  23
BRANCH   1  29
ATOM     29  C   UNL     1       1.681  12.514  21.435  0.00  0.00    +0.000 C 
BRANCH  29  30
ATOM     30  C   UNL     1       2.432  13.659  20.783  0.00  0.00    +0.000 C 
ATOM     31  O   UNL     1       3.138  14.481  21.350  0.00  0.00    +0.000 OA
BRANCH  30  32
ATOM     32  O   UNL     1       2.207  13.619  19.436  0.00  0.00    +0.000 OA
BRANCH  32  34
ATOM     33  C   UNL     1       0.930  15.499  18.714  0.00  0.00    +0.000 C 
ATOM     34  C   UNL     1       2.315  14.881  18.763  0.00  0.00    +0.000 C 
ENDBRANCH  32  34
ENDBRANCH  30  32
ENDBRANCH  29  30
ENDBRANCH   1  29
TORSDOF 6
ENDMDL
