MODEL 1
REMARK VINA RESULT:      -8.2      0.000      0.000
REMARK  Name = 
REMARK  8 active torsions:
REMARK  status: ('A' for Active; 'I' for Inactive)
REMARK    1  A    between atoms: C_1  and  O_2
REMARK    2  A    between atoms: O_2  and  C_3
REMARK    3  A    between atoms: C_5  and  C_6
REMARK    4  A    between atoms: C_8  and  P_9
REMARK    5  A    between atoms: P_9  and  O_11
REMARK    6  A    between atoms: P_9  and  C_13
REMARK    7  A    between atoms: O_11  and  C_12
REMARK    8  A    between atoms: C_14  and  C_15
REMARK                            x       y       z     vdW  Elec       q    Type
REMARK                         _______ _______ _______ _____ _____    ______ ____
ROOT
ATOM      1  C   UNL     1       6.012   4.761  16.365  0.00  0.00    +0.000 A 
ATOM      2  C   UNL     1       7.105   5.574  16.668  0.00  0.00    +0.000 A 
ATOM      3  N   UNL     1       7.745   5.839  15.486  0.00  0.00    +0.000 N 
ATOM      4  C   UNL     1       7.212   5.120  14.452  0.00  0.00    +0.000 A 
ATOM      5  C   UNL     1       7.637   5.059  13.117  0.00  0.00    +0.000 A 
ATOM      6  C   UNL     1       6.938   4.230  12.248  0.00  0.00    +0.000 A 
ATOM      7  C   UNL     1       5.821   3.531  12.705  0.00  0.00    +0.000 A 
ATOM      8 CL   UNL     1       4.991   2.494  11.605  0.00  0.00    +0.000 Cl
ATOM      9  C   UNL     1       5.376   3.637  14.037  0.00  0.00    +0.000 A 
ATOM     10  C   UNL     1       6.107   4.429  14.959  0.00  0.00    +0.000 A 
ATOM     11  H   UNL     1       8.557   6.434  15.400  0.00  0.00    +0.000 HD
ENDROOT
BRANCH   2  12
ATOM     12  C   UNL     1       7.546   6.073  17.939  0.00  0.00    +0.000 C 
ATOM     13  N   UNL     1       7.814   5.127  18.885  0.00  0.00    +0.000 N 
ATOM     14  O   UNL     1       7.655   7.256  18.224  0.00  0.00    +0.000 OA
ATOM     15  H   UNL     1       8.105   4.197  18.619  0.00  0.00    +0.000 HD
ATOM     16  H   UNL     1       8.197   5.501  19.740  0.00  0.00    +0.000 HD
ENDBRANCH   2  12
BRANCH   1  17
ATOM     17  P   UNL     1       4.663   4.425  17.503  0.00  0.00    +0.000 P 
ATOM     18  O   UNL     1       5.352   3.575  18.544  0.00  0.00    +0.000 OA
BRANCH  17  24
ATOM     19  C   UNL     1       2.701   8.040  18.023  0.00  0.00    +0.000 A 
ATOM     20  C   UNL     1       1.999   7.780  19.196  0.00  0.00    +0.000 A 
ATOM     21  C   UNL     1       2.211   6.585  19.888  0.00  0.00    +0.000 A 
ATOM     22  C   UNL     1       1.427   6.262  21.118  0.00  0.00    +0.000 C 
ATOM     23  C   UNL     1       3.123   5.653  19.374  0.00  0.00    +0.000 A 
ATOM     24  C   UNL     1       3.795   5.842  18.154  0.00  0.00    +0.000 A 
ATOM     25  C   UNL     1       3.542   7.053  17.474  0.00  0.00    +0.000 A 
BRANCH  19  27
ATOM     26  C   UNL     1       1.780  10.203  18.017  0.00  0.00    +0.000 C 
ATOM     27  O   UNL     1       2.565   9.220  17.329  0.00  0.00    +0.000 OA
ENDBRANCH  19  27
ENDBRANCH  17  24
BRANCH  17  28
ATOM     28  O   UNL     1       3.566   3.552  16.685  0.00  0.00    +0.000 OA
ATOM     29  C   UNL     1       2.705   2.727  17.447  0.00  0.00    +0.000 C 
ENDBRANCH  17  28
ENDBRANCH   1  17
TORSDOF 5
ENDMDL
MODEL 2
REMARK VINA RESULT:      -8.0      3.441      6.898
REMARK  Name = 
REMARK  8 active torsions:
REMARK  status: ('A' for Active; 'I' for Inactive)
REMARK    1  A    between atoms: C_1  and  O_2
REMARK    2  A    between atoms: O_2  and  C_3
REMARK    3  A    between atoms: C_5  and  C_6
REMARK    4  A    between atoms: C_8  and  P_9
REMARK    5  A    between atoms: P_9  and  O_11
REMARK    6  A    between atoms: P_9  and  C_13
REMARK    7  A    between atoms: O_11  and  C_12
REMARK    8  A    between atoms: C_14  and  C_15
REMARK                            x       y       z     vdW  Elec       q    Type
REMARK                         _______ _______ _______ _____ _____    ______ ____
ROOT
ATOM      1  C   UNL     1       2.334   5.218  19.465  0.00  0.00    +0.000 A 
ATOM      2  C   UNL     1       1.856   4.813  20.712  0.00  0.00    +0.000 A 
ATOM      3  N   UNL     1       1.255   5.904  21.283  0.00  0.00    +0.000 N 
ATOM      4  C   UNL     1       1.448   7.034  20.537  0.00  0.00    +0.000 A 
ATOM      5  C   UNL     1       1.058   8.349  20.824  0.00  0.00    +0.000 A 
ATOM      6  C   UNL     1       1.391   9.342  19.909  0.00  0.00    +0.000 A 
ATOM      7  C   UNL     1       2.049   9.002  18.727  0.00  0.00    +0.000 A 
ATOM      8 CL   UNL     1       2.466  10.261  17.625  0.00  0.00    +0.000 Cl
ATOM      9  C   UNL     1       2.394   7.670  18.428  0.00  0.00    +0.000 A 
ATOM     10  C   UNL     1       2.119   6.647  19.372  0.00  0.00    +0.000 A 
ATOM     11  H   UNL     1       0.791   5.892  22.180  0.00  0.00    +0.000 HD
ENDROOT
BRANCH   2  12
ATOM     12  C   UNL     1       1.942   3.530  21.348  0.00  0.00    +0.000 C 
ATOM     13  N   UNL     1       0.901   2.681  21.110  0.00  0.00    +0.000 N 
ATOM     14  O   UNL     1       2.844   3.181  22.095  0.00  0.00    +0.000 OA
ATOM     15  H   UNL     1       0.364   2.747  20.258  0.00  0.00    +0.000 HD
ATOM     16  H   UNL     1       1.025   1.760  21.504  0.00  0.00    +0.000 HD
ENDBRANCH   2  12
BRANCH   1  17
ATOM     17  P   UNL     1       2.885   4.087  18.184  0.00  0.00    +0.000 P 
ATOM     18  O   UNL     1       1.755   4.188  17.185  0.00  0.00    +0.000 OA
BRANCH  17  24
ATOM     19  C   UNL     1       6.961   4.540  17.576  0.00  0.00    +0.000 A 
ATOM     20  C   UNL     1       7.030   4.377  16.195  0.00  0.00    +0.000 A 
ATOM     21  C   UNL     1       5.858   4.260  15.445  0.00  0.00    +0.000 A 
ATOM     22  C   UNL     1       5.912   4.028  13.970  0.00  0.00    +0.000 C 
ATOM     23  C   UNL     1       4.621   4.292  16.104  0.00  0.00    +0.000 A 
ATOM     24  C   UNL     1       4.509   4.379  17.502  0.00  0.00    +0.000 A 
ATOM     25  C   UNL     1       5.715   4.477  18.229  0.00  0.00    +0.000 A 
BRANCH  19  27
ATOM     26  C   UNL     1       8.012   5.842  19.227  0.00  0.00    +0.000 C 
ATOM     27  O   UNL     1       8.082   4.707  18.355  0.00  0.00    +0.000 OA
ENDBRANCH  19  27
ENDBRANCH  17  24
BRANCH  17  28
ATOM     28  O   UNL     1       2.928   2.607  18.851  0.00  0.00    +0.000 OA
ATOM     29  C   UNL     1       3.483   1.566  18.069  0.00  0.00    +0.000 C 
ENDBRANCH  17  28
ENDBRANCH   1  17
TORSDOF 5
ENDMDL
MODEL 3
REMARK VINA RESULT:      -7.9      3.501      6.729
REMARK  Name = 
REMARK  8 active torsions:
REMARK  status: ('A' for Active; 'I' for Inactive)
REMARK    1  A    between atoms: C_1  and  O_2
REMARK    2  A    between atoms: O_2  and  C_3
REMARK    3  A    between atoms: C_5  and  C_6
REMARK    4  A    between atoms: C_8  and  P_9
REMARK    5  A    between atoms: P_9  and  O_11
REMARK    6  A    between atoms: P_9  and  C_13
REMARK    7  A    between atoms: O_11  and  C_12
REMARK    8  A    between atoms: C_14  and  C_15
REMARK                            x       y       z     vdW  Elec       q    Type
REMARK                         _______ _______ _______ _____ _____    ______ ____
ROOT
ATOM      1  C   UNL     1       2.430   5.049  19.468  0.00  0.00    +0.000 A 
ATOM      2  C   UNL     1       1.963   4.649  20.720  0.00  0.00    +0.000 A 
ATOM      3  N   UNL     1       1.348   5.737  21.283  0.00  0.00    +0.000 N 
ATOM      4  C   UNL     1       1.522   6.862  20.524  0.00  0.00    +0.000 A 
ATOM      5  C   UNL     1       1.113   8.174  20.800  0.00  0.00    +0.000 A 
ATOM      6  C   UNL     1       1.428   9.162  19.874  0.00  0.00    +0.000 A 
ATOM      7  C   UNL     1       2.087   8.821  18.693  0.00  0.00    +0.000 A 
ATOM      8 CL   UNL     1       2.482  10.075  17.577  0.00  0.00    +0.000 Cl
ATOM      9  C   UNL     1       2.450   7.491  18.406  0.00  0.00    +0.000 A 
ATOM     10  C   UNL     1       2.194   6.473  19.361  0.00  0.00    +0.000 A 
ATOM     11  H   UNL     1       0.887   5.727  22.182  0.00  0.00    +0.000 HD
ENDROOT
BRANCH   2  12
ATOM     12  C   UNL     1       2.069   3.374  21.369  0.00  0.00    +0.000 C 
ATOM     13  N   UNL     1       0.983   2.557  21.250  0.00  0.00    +0.000 N 
ATOM     14  O   UNL     1       3.029   3.006  22.030  0.00  0.00    +0.000 OA
ATOM     15  H   UNL     1       0.367   2.628  20.453  0.00  0.00    +0.000 HD
ATOM     16  H   UNL     1       1.116   1.639  21.647  0.00  0.00    +0.000 HD
ENDBRANCH   2  12
BRANCH   1  17
ATOM     17  P   UNL     1       2.992   3.913  18.195  0.00  0.00    +0.000 P 
ATOM     18  O   UNL     1       1.935   4.100  17.133  0.00  0.00    +0.000 OA
BRANCH  17  24
ATOM     19  C   UNL     1       6.426   4.399  15.922  0.00  0.00    +0.000 A 
ATOM     20  C   UNL     1       7.283   4.947  16.873  0.00  0.00    +0.000 A 
ATOM     21  C   UNL     1       6.876   5.049  18.205  0.00  0.00    +0.000 A 
ATOM     22  C   UNL     1       7.758   5.685  19.229  0.00  0.00    +0.000 C 
ATOM     23  C   UNL     1       5.593   4.611  18.561  0.00  0.00    +0.000 A 
ATOM     24  C   UNL     1       4.670   4.122  17.621  0.00  0.00    +0.000 A 
ATOM     25  C   UNL     1       5.110   4.050  16.281  0.00  0.00    +0.000 A 
BRANCH  19  27
ATOM     26  C   UNL     1       5.707   3.865  13.749  0.00  0.00    +0.000 C 
ATOM     27  O   UNL     1       6.794   4.232  14.608  0.00  0.00    +0.000 OA
ENDBRANCH  19  27
ENDBRANCH  17  24
BRANCH  17  28
ATOM     28  O   UNL     1       2.909   2.420  18.829  0.00  0.00    +0.000 OA
ATOM     29  C   UNL     1       3.696   1.417  18.215  0.00  0.00    +0.000 C 
ENDBRANCH  17  28
ENDBRANCH   1  17
TORSDOF 5
ENDMDL
MODEL 4
REMARK VINA RESULT:      -7.8      3.046      4.133
REMARK  Name = 
REMARK  8 active torsions:
REMARK  status: ('A' for Active; 'I' for Inactive)
REMARK    1  A    between atoms: C_1  and  O_2
REMARK    2  A    between atoms: O_2  and  C_3
REMARK    3  A    between atoms: C_5  and  C_6
REMARK    4  A    between atoms: C_8  and  P_9
REMARK    5  A    between atoms: P_9  and  O_11
REMARK    6  A    between atoms: P_9  and  C_13
REMARK    7  A    between atoms: O_11  and  C_12
REMARK    8  A    between atoms: C_14  and  C_15
REMARK                            x       y       z     vdW  Elec       q    Type
REMARK                         _______ _______ _______ _____ _____    ______ ____
ROOT
ATOM      1  C   UNL     1       3.894   4.584  18.301  0.00  0.00    +0.000 A 
ATOM      2  C   UNL     1       3.913   3.320  17.710  0.00  0.00    +0.000 A 
ATOM      3  N   UNL     1       5.114   3.200  17.062  0.00  0.00    +0.000 N 
ATOM      4  C   UNL     1       5.814   4.376  17.077  0.00  0.00    +0.000 A 
ATOM      5  C   UNL     1       7.038   4.674  16.462  0.00  0.00    +0.000 A 
ATOM      6  C   UNL     1       7.543   5.961  16.606  0.00  0.00    +0.000 A 
ATOM      7  C   UNL     1       6.856   6.892  17.385  0.00  0.00    +0.000 A 
ATOM      8 CL   UNL     1       7.500   8.486  17.523  0.00  0.00    +0.000 Cl
ATOM      9  C   UNL     1       5.651   6.566  18.037  0.00  0.00    +0.000 A 
ATOM     10  C   UNL     1       5.084   5.278  17.857  0.00  0.00    +0.000 A 
ATOM     11  H   UNL     1       5.415   2.371  16.571  0.00  0.00    +0.000 HD
ENDROOT
BRANCH   2  12
ATOM     12  C   UNL     1       2.913   2.292  17.723  0.00  0.00    +0.000 C 
ATOM     13  N   UNL     1       3.140   1.255  18.580  0.00  0.00    +0.000 N 
ATOM     14  O   UNL     1       1.922   2.273  17.007  0.00  0.00    +0.000 OA
ATOM     15  H   UNL     1       3.688   1.388  19.419  0.00  0.00    +0.000 HD
ATOM     16  H   UNL     1       2.385   0.588  18.627  0.00  0.00    +0.000 HD
ENDBRANCH   2  12
BRANCH   1  17
ATOM     17  P   UNL     1       2.703   5.092  19.547  0.00  0.00    +0.000 P 
ATOM     18  O   UNL     1       3.349   4.574  20.811  0.00  0.00    +0.000 OA
BRANCH  17  24
ATOM     19  C   UNL     1       1.814   9.029  18.598  0.00  0.00    +0.000 A 
ATOM     20  C   UNL     1       1.115   9.412  19.740  0.00  0.00    +0.000 A 
ATOM     21  C   UNL     1       1.024   8.543  20.829  0.00  0.00    +0.000 A 
ATOM     22  C   UNL     1       0.232   8.912  22.041  0.00  0.00    +0.000 C 
ATOM     23  C   UNL     1       1.628   7.280  20.746  0.00  0.00    +0.000 A 
ATOM     24  C   UNL     1       2.277   6.825  19.585  0.00  0.00    +0.000 A 
ATOM     25  C   UNL     1       2.334   7.725  18.499  0.00  0.00    +0.000 A 
BRANCH  19  27
ATOM     26  C   UNL     1       2.316  11.209  17.877  0.00  0.00    +0.000 C 
ATOM     27  O   UNL     1       1.973   9.864  17.518  0.00  0.00    +0.000 OA
ENDBRANCH  19  27
ENDBRANCH  17  24
BRANCH  17  28
ATOM     28  O   UNL     1       1.327   4.289  19.236  0.00  0.00    +0.000 OA
ATOM     29  C   UNL     1       0.784   3.515  20.289  0.00  0.00    +0.000 C 
ENDBRANCH  17  28
ENDBRANCH   1  17
TORSDOF 5
ENDMDL
MODEL 5
REMARK VINA RESULT:      -7.6      3.172      6.655
REMARK  Name = 
REMARK  8 active torsions:
REMARK  status: ('A' for Active; 'I' for Inactive)
REMARK    1  A    between atoms: C_1  and  O_2
REMARK    2  A    between atoms: O_2  and  C_3
REMARK    3  A    between atoms: C_5  and  C_6
REMARK    4  A    between atoms: C_8  and  P_9
REMARK    5  A    between atoms: P_9  and  O_11
REMARK    6  A    between atoms: P_9  and  C_13
REMARK    7  A    between atoms: O_11  and  C_12
REMARK    8  A    between atoms: C_14  and  C_15
REMARK                            x       y       z     vdW  Elec       q    Type
REMARK                         _______ _______ _______ _____ _____    ______ ____
ROOT
ATOM      1  C   UNL     1       2.649   4.894  19.294  0.00  0.00    +0.000 A 
ATOM      2  C   UNL     1       2.179   4.368  20.498  0.00  0.00    +0.000 A 
ATOM      3  N   UNL     1       1.479   5.367  21.123  0.00  0.00    +0.000 N 
ATOM      4  C   UNL     1       1.595   6.557  20.457  0.00  0.00    +0.000 A 
ATOM      5  C   UNL     1       1.093   7.814  20.819  0.00  0.00    +0.000 A 
ATOM      6  C   UNL     1       1.364   8.890  19.981  0.00  0.00    +0.000 A 
ATOM      7  C   UNL     1       2.074   8.684  18.798  0.00  0.00    +0.000 A 
ATOM      8 CL   UNL     1       2.411  10.044  17.792  0.00  0.00    +0.000 Cl
ATOM      9  C   UNL     1       2.532   7.407  18.422  0.00  0.00    +0.000 A 
ATOM     10  C   UNL     1       2.321   6.304  19.289  0.00  0.00    +0.000 A 
ATOM     11  H   UNL     1       0.997   5.258  22.004  0.00  0.00    +0.000 HD
ENDROOT
BRANCH   2  12
ATOM     12  C   UNL     1       2.354   3.056  21.051  0.00  0.00    +0.000 C 
ATOM     13  N   UNL     1       3.636   2.714  21.368  0.00  0.00    +0.000 N 
ATOM     14  O   UNL     1       1.457   2.243  21.213  0.00  0.00    +0.000 OA
ATOM     15  H   UNL     1       4.315   3.421  21.611  0.00  0.00    +0.000 HD
ATOM     16  H   UNL     1       3.719   1.819  21.827  0.00  0.00    +0.000 HD
ENDBRANCH   2  12
BRANCH   1  17
ATOM     17  P   UNL     1       3.318   3.899  17.956  0.00  0.00    +0.000 P 
ATOM     18  O   UNL     1       2.081   3.633  17.130  0.00  0.00    +0.000 OA
BRANCH  17  24
ATOM     19  C   UNL     1       6.864   5.710  16.802  0.00  0.00    +0.000 A 
ATOM     20  C   UNL     1       6.993   5.212  15.509  0.00  0.00    +0.000 A 
ATOM     21  C   UNL     1       5.967   4.447  14.948  0.00  0.00    +0.000 A 
ATOM     22  C   UNL     1       6.110   3.856  13.584  0.00  0.00    +0.000 C 
ATOM     23  C   UNL     1       4.823   4.178  15.712  0.00  0.00    +0.000 A 
ATOM     24  C   UNL     1       4.685   4.597  17.046  0.00  0.00    +0.000 A 
ATOM     25  C   UNL     1       5.750   5.352  17.585  0.00  0.00    +0.000 A 
BRANCH  19  27
ATOM     26  C   UNL     1       7.449   7.888  17.466  0.00  0.00    +0.000 C 
ATOM     27  O   UNL     1       7.822   6.506  17.384  0.00  0.00    +0.000 OA
ENDBRANCH  19  27
ENDBRANCH  17  24
BRANCH  17  28
ATOM     28  O   UNL     1       3.866   2.524  18.624  0.00  0.00    +0.000 OA
ATOM     29  C   UNL     1       3.508   1.313  17.985  0.00  0.00    +0.000 C 
ENDBRANCH  17  28
ENDBRANCH   1  17
TORSDOF 5
ENDMDL
MODEL 6
REMARK VINA RESULT:      -7.4      4.700      7.465
REMARK  Name = 
REMARK  8 active torsions:
REMARK  status: ('A' for Active; 'I' for Inactive)
REMARK    1  A    between atoms: C_1  and  O_2
REMARK    2  A    between atoms: O_2  and  C_3
REMARK    3  A    between atoms: C_5  and  C_6
REMARK    4  A    between atoms: C_8  and  P_9
REMARK    5  A    between atoms: P_9  and  O_11
REMARK    6  A    between atoms: P_9  and  C_13
REMARK    7  A    between atoms: O_11  and  C_12
REMARK    8  A    between atoms: C_14  and  C_15
REMARK                            x       y       z     vdW  Elec       q    Type
REMARK                         _______ _______ _______ _____ _____    ______ ____
ROOT
ATOM      1  C   UNL     1       1.515   8.705  19.522  0.00  0.00    +0.000 A 
ATOM      2  C   UNL     1       1.159   8.115  20.735  0.00  0.00    +0.000 A 
ATOM      3  N   UNL     1       1.958   7.013  20.892  0.00  0.00    +0.000 N 
ATOM      4  C   UNL     1       2.711   6.773  19.774  0.00  0.00    +0.000 A 
ATOM      5  C   UNL     1       3.584   5.706  19.520  0.00  0.00    +0.000 A 
ATOM      6  C   UNL     1       4.226   5.670  18.288  0.00  0.00    +0.000 A 
ATOM      7  C   UNL     1       4.026   6.702  17.371  0.00  0.00    +0.000 A 
ATOM      8 CL   UNL     1       4.820   6.614  15.843  0.00  0.00    +0.000 Cl
ATOM      9  C   UNL     1       3.182   7.793  17.657  0.00  0.00    +0.000 A 
ATOM     10  C   UNL     1       2.469   7.823  18.883  0.00  0.00    +0.000 A 
ATOM     11  H   UNL     1       1.942   6.408  21.701  0.00  0.00    +0.000 HD
ENDROOT
BRANCH   2  12
ATOM     12  C   UNL     1       0.162   8.513  21.686  0.00  0.00    +0.000 C 
ATOM     13  N   UNL     1       0.567   9.415  22.626  0.00  0.00    +0.000 N 
ATOM     14  O   UNL     1      -0.979   8.077  21.725  0.00  0.00    +0.000 OA
ATOM     15  H   UNL     1       1.316  10.065  22.430  0.00  0.00    +0.000 HD
ATOM     16  H   UNL     1      -0.173   9.737  23.231  0.00  0.00    +0.000 HD
ENDBRANCH   2  12
BRANCH   1  17
ATOM     17  P   UNL     1       1.015  10.357  19.025  0.00  0.00    +0.000 P 
ATOM     18  O   UNL     1       1.947  10.618  17.865  0.00  0.00    +0.000 OA
BRANCH  17  24
ATOM     19  C   UNL     1      -2.910  11.683  18.859  0.00  0.00    +0.000 A 
ATOM     20  C   UNL     1      -3.297  11.173  17.623  0.00  0.00    +0.000 A 
ATOM     21  C   UNL     1      -2.434  10.337  16.910  0.00  0.00    +0.000 A 
ATOM     22  C   UNL     1      -2.808   9.825  15.557  0.00  0.00    +0.000 C 
ATOM     23  C   UNL     1      -1.175  10.038  17.449  0.00  0.00    +0.000 A 
ATOM     24  C   UNL     1      -0.716  10.593  18.656  0.00  0.00    +0.000 A 
ATOM     25  C   UNL     1      -1.608  11.447  19.339  0.00  0.00    +0.000 A 
BRANCH  19  27
ATOM     26  C   UNL     1      -5.133  12.224  19.399  0.00  0.00    +0.000 C 
ATOM     27  O   UNL     1      -3.738  12.472  19.622  0.00  0.00    +0.000 OA
ENDBRANCH  19  27
ENDBRANCH  17  24
BRANCH  17  28
ATOM     28  O   UNL     1       1.357  11.344  20.267  0.00  0.00    +0.000 OA
ATOM     29  C   UNL     1       1.763  12.662  19.947  0.00  0.00    +0.000 C 
ENDBRANCH  17  28
ENDBRANCH   1  17
TORSDOF 5
ENDMDL
MODEL 7
REMARK VINA RESULT:      -7.3      4.774      7.419
REMARK  Name = 
REMARK  8 active torsions:
REMARK  status: ('A' for Active; 'I' for Inactive)
REMARK    1  A    between atoms: C_1  and  O_2
REMARK    2  A    between atoms: O_2  and  C_3
REMARK    3  A    between atoms: C_5  and  C_6
REMARK    4  A    between atoms: C_8  and  P_9
REMARK    5  A    between atoms: P_9  and  O_11
REMARK    6  A    between atoms: P_9  and  C_13
REMARK    7  A    between atoms: O_11  and  C_12
REMARK    8  A    between atoms: C_14  and  C_15
REMARK                            x       y       z     vdW  Elec       q    Type
REMARK                         _______ _______ _______ _____ _____    ______ ____
ROOT
ATOM      1  C   UNL     1       1.476   8.828  19.552  0.00  0.00    +0.000 A 
ATOM      2  C   UNL     1       1.093   8.216  20.746  0.00  0.00    +0.000 A 
ATOM      3  N   UNL     1       1.860   7.087  20.879  0.00  0.00    +0.000 N 
ATOM      4  C   UNL     1       2.615   6.856  19.761  0.00  0.00    +0.000 A 
ATOM      5  C   UNL     1       3.460   5.773  19.486  0.00  0.00    +0.000 A 
ATOM      6  C   UNL     1       4.111   5.751  18.258  0.00  0.00    +0.000 A 
ATOM      7  C   UNL     1       3.948   6.813  17.368  0.00  0.00    +0.000 A 
ATOM      8 CL   UNL     1       4.754   6.743  15.845  0.00  0.00    +0.000 Cl
ATOM      9  C   UNL     1       3.133   7.919  17.677  0.00  0.00    +0.000 A 
ATOM     10  C   UNL     1       2.411   7.937  18.898  0.00  0.00    +0.000 A 
ATOM     11  H   UNL     1       1.819   6.462  21.671  0.00  0.00    +0.000 HD
ENDROOT
BRANCH   2  12
ATOM     12  C   UNL     1       0.100   8.617  21.699  0.00  0.00    +0.000 C 
ATOM     13  N   UNL     1       0.522   9.483  22.665  0.00  0.00    +0.000 N 
ATOM     14  O   UNL     1      -1.053   8.212  21.717  0.00  0.00    +0.000 OA
ATOM     15  H   UNL     1       1.290  10.116  22.493  0.00  0.00    +0.000 HD
ATOM     16  H   UNL     1      -0.214   9.809  23.273  0.00  0.00    +0.000 HD
ENDBRANCH   2  12
BRANCH   1  17
ATOM     17  P   UNL     1       1.029  10.507  19.096  0.00  0.00    +0.000 P 
ATOM     18  O   UNL     1       2.143  10.868  18.142  0.00  0.00    +0.000 OA
BRANCH  17  24
ATOM     19  C   UNL     1      -2.578  10.175  17.078  0.00  0.00    +0.000 A 
ATOM     20  C   UNL     1      -3.391  10.970  17.880  0.00  0.00    +0.000 A 
ATOM     21  C   UNL     1      -2.835  11.697  18.936  0.00  0.00    +0.000 A 
ATOM     22  C   UNL     1      -3.698  12.512  19.843  0.00  0.00    +0.000 C 
ATOM     23  C   UNL     1      -1.459  11.597  19.182  0.00  0.00    +0.000 A 
ATOM     24  C   UNL     1      -0.616  10.747  18.445  0.00  0.00    +0.000 A 
ATOM     25  C   UNL     1      -1.216  10.015  17.397  0.00  0.00    +0.000 A 
BRANCH  19  27
ATOM     26  C   UNL     1      -3.260  10.287  14.831  0.00  0.00    +0.000 C 
ATOM     27  O   UNL     1      -3.066   9.477  15.998  0.00  0.00    +0.000 OA
ENDBRANCH  19  27
ENDBRANCH  17  24
BRANCH  17  28
ATOM     28  O   UNL     1       1.120  11.401  20.448  0.00  0.00    +0.000 OA
ATOM     29  C   UNL     1       1.791  12.644  20.351  0.00  0.00    +0.000 C 
ENDBRANCH  17  28
ENDBRANCH   1  17
TORSDOF 5
ENDMDL
MODEL 8
REMARK VINA RESULT:      -7.0      1.121      1.909
REMARK  Name = 
REMARK  8 active torsions:
REMARK  status: ('A' for Active; 'I' for Inactive)
REMARK    1  A    between atoms: C_1  and  O_2
REMARK    2  A    between atoms: O_2  and  C_3
REMARK    3  A    between atoms: C_5  and  C_6
REMARK    4  A    between atoms: C_8  and  P_9
REMARK    5  A    between atoms: P_9  and  O_11
REMARK    6  A    between atoms: P_9  and  C_13
REMARK    7  A    between atoms: O_11  and  C_12
REMARK    8  A    between atoms: C_14  and  C_15
REMARK                            x       y       z     vdW  Elec       q    Type
REMARK                         _______ _______ _______ _____ _____    ______ ____
ROOT
ATOM      1  C   UNL     1       6.055   4.672  16.650  0.00  0.00    +0.000 A 
ATOM      2  C   UNL     1       7.066   5.584  16.953  0.00  0.00    +0.000 A 
ATOM      3  N   UNL     1       7.640   5.952  15.765  0.00  0.00    +0.000 N 
ATOM      4  C   UNL     1       7.154   5.215  14.720  0.00  0.00    +0.000 A 
ATOM      5  C   UNL     1       7.544   5.242  13.374  0.00  0.00    +0.000 A 
ATOM      6  C   UNL     1       6.909   4.373  12.494  0.00  0.00    +0.000 A 
ATOM      7  C   UNL     1       5.884   3.546  12.956  0.00  0.00    +0.000 A 
ATOM      8 CL   UNL     1       5.134   2.464  11.842  0.00  0.00    +0.000 Cl
ATOM      9  C   UNL     1       5.470   3.562  14.301  0.00  0.00    +0.000 A 
ATOM     10  C   UNL     1       6.142   4.396  15.231  0.00  0.00    +0.000 A 
ATOM     11  H   UNL     1       8.384   6.631  15.679  0.00  0.00    +0.000 HD
ENDROOT
BRANCH   2  12
ATOM     12  C   UNL     1       7.490   6.085  18.228  0.00  0.00    +0.000 C 
ATOM     13  N   UNL     1       7.911   5.146  19.124  0.00  0.00    +0.000 N 
ATOM     14  O   UNL     1       7.462   7.261  18.560  0.00  0.00    +0.000 OA
ATOM     15  H   UNL     1       8.304   4.270  18.809  0.00  0.00    +0.000 HD
ATOM     16  H   UNL     1       8.277   5.531  19.981  0.00  0.00    +0.000 HD
ENDBRANCH   2  12
BRANCH   1  17
ATOM     17  P   UNL     1       4.782   4.160  17.810  0.00  0.00    +0.000 P 
ATOM     18  O   UNL     1       5.611   3.565  18.924  0.00  0.00    +0.000 OA
BRANCH  17  24
ATOM     19  C   UNL     1       2.151   6.561  19.932  0.00  0.00    +0.000 A 
ATOM     20  C   UNL     1       2.202   7.726  19.171  0.00  0.00    +0.000 A 
ATOM     21  C   UNL     1       2.914   7.746  17.970  0.00  0.00    +0.000 A 
ATOM     22  C   UNL     1       3.028   9.001  17.167  0.00  0.00    +0.000 C 
ATOM     23  C   UNL     1       3.588   6.587  17.557  0.00  0.00    +0.000 A 
ATOM     24  C   UNL     1       3.625   5.416  18.332  0.00  0.00    +0.000 A 
ATOM     25  C   UNL     1       2.908   5.438  19.548  0.00  0.00    +0.000 A 
BRANCH  19  27
ATOM     26  C   UNL     1       0.892   7.730  21.537  0.00  0.00    +0.000 C 
ATOM     27  O   UNL     1       1.425   6.474  21.097  0.00  0.00    +0.000 OA
ENDBRANCH  19  27
ENDBRANCH  17  24
BRANCH  17  28
ATOM     28  O   UNL     1       3.907   3.011  17.070  0.00  0.00    +0.000 OA
ATOM     29  C   UNL     1       3.281   2.049  17.897  0.00  0.00    +0.000 C 
ENDBRANCH  17  28
ENDBRANCH   1  17
TORSDOF 5
ENDMDL
MODEL 9
REMARK VINA RESULT:      -6.9      3.143      4.491
REMARK  Name = 
REMARK  8 active torsions:
REMARK  status: ('A' for Active; 'I' for Inactive)
REMARK    1  A    between atoms: C_1  and  O_2
REMARK    2  A    between atoms: O_2  and  C_3
REMARK    3  A    between atoms: C_5  and  C_6
REMARK    4  A    between atoms: C_8  and  P_9
REMARK    5  A    between atoms: P_9  and  O_11
REMARK    6  A    between atoms: P_9  and  C_13
REMARK    7  A    between atoms: O_11  and  C_12
REMARK    8  A    between atoms: C_14  and  C_15
REMARK                            x       y       z     vdW  Elec       q    Type
REMARK                         _______ _______ _______ _____ _____    ______ ____
ROOT
ATOM      1  C   UNL     1       3.909   4.389  18.396  0.00  0.00    +0.000 A 
ATOM      2  C   UNL     1       3.852   3.194  17.678  0.00  0.00    +0.000 A 
ATOM      3  N   UNL     1       4.965   3.154  16.880  0.00  0.00    +0.000 N 
ATOM      4  C   UNL     1       5.665   4.329  16.933  0.00  0.00    +0.000 A 
ATOM      5  C   UNL     1       6.806   4.701  16.209  0.00  0.00    +0.000 A 
ATOM      6  C   UNL     1       7.329   5.970  16.424  0.00  0.00    +0.000 A 
ATOM      7  C   UNL     1       6.745   6.808  17.375  0.00  0.00    +0.000 A 
ATOM      8 CL   UNL     1       7.406   8.385  17.601  0.00  0.00    +0.000 Cl
ATOM      9  C   UNL     1       5.628   6.405  18.130  0.00  0.00    +0.000 A 
ATOM     10  C   UNL     1       5.038   5.137  17.887  0.00  0.00    +0.000 A 
ATOM     11  H   UNL     1       5.201   2.384  16.271  0.00  0.00    +0.000 HD
ENDROOT
BRANCH   2  12
ATOM     12  C   UNL     1       2.857   2.160  17.704  0.00  0.00    +0.000 C 
ATOM     13  N   UNL     1       3.118   1.109  18.532  0.00  0.00    +0.000 N 
ATOM     14  O   UNL     1       1.843   2.151  17.021  0.00  0.00    +0.000 OA
ATOM     15  H   UNL     1       3.693   1.227  19.354  0.00  0.00    +0.000 HD
ATOM     16  H   UNL     1       2.367   0.437  18.590  0.00  0.00    +0.000 HD
ENDBRANCH   2  12
BRANCH   1  17
ATOM     17  P   UNL     1       2.881   4.753  19.823  0.00  0.00    +0.000 P 
ATOM     18  O   UNL     1       3.832   4.468  20.962  0.00  0.00    +0.000 OA
BRANCH  17  24
ATOM     19  C   UNL     1       1.171   8.351  20.970  0.00  0.00    +0.000 A 
ATOM     20  C   UNL     1       1.396   9.114  19.828  0.00  0.00    +0.000 A 
ATOM     21  C   UNL     1       1.937   8.519  18.685  0.00  0.00    +0.000 A 
ATOM     22  C   UNL     1       2.238   9.331  17.468  0.00  0.00    +0.000 C 
ATOM     23  C   UNL     1       2.264   7.156  18.717  0.00  0.00    +0.000 A 
ATOM     24  C   UNL     1       2.124   6.369  19.872  0.00  0.00    +0.000 A 
ATOM     25  C   UNL     1       1.591   7.008  21.012  0.00  0.00    +0.000 A 
BRANCH  19  27
ATOM     26  C   UNL     1      -0.277   9.983  21.847  0.00  0.00    +0.000 C 
ATOM     27  O   UNL     1       0.598   8.877  22.105  0.00  0.00    +0.000 OA
ENDBRANCH  19  27
ENDBRANCH  17  24
BRANCH  17  28
ATOM     28  O   UNL     1       1.664   3.678  19.811  0.00  0.00    +0.000 OA
ATOM     29  C   UNL     1       1.345   3.055  21.042  0.00  0.00    +0.000 C 
ENDBRANCH  17  28
ENDBRANCH   1  17
TORSDOF 5
ENDMDL
