MODEL 1
REMARK VINA RESULT:      -7.6      0.000      0.000
REMARK  Name = 
REMARK  6 active torsions:
REMARK  status: ('A' for Active; 'I' for Inactive)
REMARK    1  A    between atoms: C_1  and  C_2
REMARK    2  A    between atoms: C_2  and  N_3
REMARK    3  A    between atoms: C_2  and  C_17
REMARK    4  A    between atoms: N_7  and  C_8
REMARK    5  A    between atoms: C_8  and  C_9
REMARK    6  A    between atoms: C_9  and  C_10
REMARK                            x       y       z     vdW  Elec       q    Type
REMARK                         _______ _______ _______ _____ _____    ______ ____
ROOT
ATOM      1  N   UNL     1       5.399   3.506  16.538  0.00  0.00    +0.000 N 
ATOM      2  C   UNL     1       4.264   3.685  17.239  0.00  0.00    +0.000 A 
ATOM      3  C   UNL     1       3.212   2.744  17.207  0.00  0.00    +0.000 A 
ATOM      4  C   UNL     1       2.243   3.251  18.040  0.00  0.00    +0.000 A 
ATOM      5  N   UNL     1       2.753   4.416  18.535  0.00  0.00    +0.000 N 
ATOM      6  N   UNL     1       3.966   4.715  18.030  0.00  0.00    +0.000 NA
ATOM      7  H   UNL     1       5.443   2.767  15.842  0.00  0.00    +0.000 HD
ENDROOT
BRANCH   1   9
ATOM      8  C   UNL     1       7.517   4.569  17.073  0.00  0.00    +0.000 C 
ATOM      9  C   UNL     1       6.264   4.632  16.192  0.00  0.00    +0.000 C 
BRANCH   9  10
ATOM     10  C   UNL     1       6.616   4.575  14.704  0.00  0.00    +0.000 A 
ATOM     11  C   UNL     1       5.941   3.679  13.875  0.00  0.00    +0.000 A 
ATOM     12  C   UNL     1       6.288   3.611  12.527  0.00  0.00    +0.000 A 
ATOM     13  C   UNL     1       7.301   4.426  12.040  0.00  0.00    +0.000 A 
ATOM     14  C   UNL     1       7.939   5.272  12.929  0.00  0.00    +0.000 A 
ATOM     15  N   UNL     1       7.632   5.356  14.242  0.00  0.00    +0.000 NA
ENDBRANCH   9  10
ENDBRANCH   1   9
BRANCH   5  16
ATOM     16  C   UNL     1       2.113   5.361  19.434  0.00  0.00    +0.000 C 
BRANCH  16  17
ATOM     17  C   UNL     1       2.892   6.657  19.668  0.00  0.00    +0.000 C 
BRANCH  17  18
ATOM     18  C   UNL     1       2.012   7.871  19.494  0.00  0.00    +0.000 A 
ATOM     19  C   UNL     1       1.951   8.534  18.264  0.00  0.00    +0.000 A 
ATOM     20  C   UNL     1       1.154   9.663  18.157  0.00  0.00    +0.000 A 
ATOM     21  N   UNL     1       0.430  10.169  19.176  0.00  0.00    +0.000 NA
ATOM     22  C   UNL     1       0.503   9.516  20.355  0.00  0.00    +0.000 A 
ATOM     23  C   UNL     1       1.270   8.378  20.561  0.00  0.00    +0.000 A 
ENDBRANCH  17  18
ENDBRANCH  16  17
ENDBRANCH   5  16
TORSDOF 5
ENDMDL
MODEL 2
REMARK VINA RESULT:      -7.5      0.630      1.175
REMARK  Name = 
REMARK  6 active torsions:
REMARK  status: ('A' for Active; 'I' for Inactive)
REMARK    1  A    between atoms: C_1  and  C_2
REMARK    2  A    between atoms: C_2  and  N_3
REMARK    3  A    between atoms: C_2  and  C_17
REMARK    4  A    between atoms: N_7  and  C_8
REMARK    5  A    between atoms: C_8  and  C_9
REMARK    6  A    between atoms: C_9  and  C_10
REMARK                            x       y       z     vdW  Elec       q    Type
REMARK                         _______ _______ _______ _____ _____    ______ ____
ROOT
ATOM      1  N   UNL     1       5.176   3.696  16.497  0.00  0.00    +0.000 N 
ATOM      2  C   UNL     1       4.089   3.951  17.250  0.00  0.00    +0.000 A 
ATOM      3  C   UNL     1       2.940   3.132  17.202  0.00  0.00    +0.000 A 
ATOM      4  C   UNL     1       2.059   3.687  18.099  0.00  0.00    +0.000 A 
ATOM      5  N   UNL     1       2.708   4.757  18.642  0.00  0.00    +0.000 N 
ATOM      6  N   UNL     1       3.930   4.956  18.110  0.00  0.00    +0.000 NA
ATOM      7  H   UNL     1       5.117   3.001  15.758  0.00  0.00    +0.000 HD
ENDROOT
BRANCH   1   9
ATOM      8  C   UNL     1       7.353   4.576  17.118  0.00  0.00    +0.000 C 
ATOM      9  C   UNL     1       6.147   4.742  16.186  0.00  0.00    +0.000 C 
BRANCH   9  10
ATOM     10  C   UNL     1       6.554   4.648  14.714  0.00  0.00    +0.000 A 
ATOM     11  C   UNL     1       5.899   3.743  13.879  0.00  0.00    +0.000 A 
ATOM     12  C   UNL     1       6.295   3.640  12.547  0.00  0.00    +0.000 A 
ATOM     13  C   UNL     1       7.336   4.432  12.082  0.00  0.00    +0.000 A 
ATOM     14  C   UNL     1       7.952   5.289  12.975  0.00  0.00    +0.000 A 
ATOM     15  N   UNL     1       7.597   5.406  14.274  0.00  0.00    +0.000 NA
ENDBRANCH   9  10
ENDBRANCH   1   9
BRANCH   5  16
ATOM     16  C   UNL     1       2.203   5.708  19.619  0.00  0.00    +0.000 C 
BRANCH  16  17
ATOM     17  C   UNL     1       2.729   7.136  19.461  0.00  0.00    +0.000 C 
BRANCH  17  18
ATOM     18  C   UNL     1       1.702   8.155  19.889  0.00  0.00    +0.000 A 
ATOM     19  C   UNL     1       1.104   8.076  21.150  0.00  0.00    +0.000 A 
ATOM     20  C   UNL     1       0.142   9.014  21.490  0.00  0.00    +0.000 A 
ATOM     21  N   UNL     1      -0.260  10.007  20.669  0.00  0.00    +0.000 NA
ATOM     22  C   UNL     1       0.328  10.066  19.455  0.00  0.00    +0.000 A 
ATOM     23  C   UNL     1       1.300   9.175  19.024  0.00  0.00    +0.000 A 
ENDBRANCH  17  18
ENDBRANCH  16  17
ENDBRANCH   5  16
TORSDOF 5
ENDMDL
MODEL 3
REMARK VINA RESULT:      -7.5      4.979      7.072
REMARK  Name = 
REMARK  6 active torsions:
REMARK  status: ('A' for Active; 'I' for Inactive)
REMARK    1  A    between atoms: C_1  and  C_2
REMARK    2  A    between atoms: C_2  and  N_3
REMARK    3  A    between atoms: C_2  and  C_17
REMARK    4  A    between atoms: N_7  and  C_8
REMARK    5  A    between atoms: C_8  and  C_9
REMARK    6  A    between atoms: C_9  and  C_10
REMARK                            x       y       z     vdW  Elec       q    Type
REMARK                         _______ _______ _______ _____ _____    ______ ____
ROOT
ATOM      1  N   UNL     1       6.339   4.953  17.121  0.00  0.00    +0.000 N 
ATOM      2  C   UNL     1       7.032   5.984  17.639  0.00  0.00    +0.000 A 
ATOM      3  C   UNL     1       7.871   5.828  18.763  0.00  0.00    +0.000 A 
ATOM      4  C   UNL     1       8.412   7.071  18.990  0.00  0.00    +0.000 A 
ATOM      5  N   UNL     1       7.910   7.878  18.011  0.00  0.00    +0.000 N 
ATOM      6  N   UNL     1       7.040   7.243  17.202  0.00  0.00    +0.000 NA
ATOM      7  H   UNL     1       6.283   4.081  17.639  0.00  0.00    +0.000 HD
ENDROOT
BRANCH   1   9
ATOM      8  C   UNL     1       5.324   4.391  14.987  0.00  0.00    +0.000 C 
ATOM      9  C   UNL     1       5.154   5.173  16.295  0.00  0.00    +0.000 C 
BRANCH   9  10
ATOM     10  C   UNL     1       3.903   4.732  17.058  0.00  0.00    +0.000 A 
ATOM     11  C   UNL     1       3.500   3.398  16.999  0.00  0.00    +0.000 A 
ATOM     12  C   UNL     1       2.343   3.009  17.672  0.00  0.00    +0.000 A 
ATOM     13  C   UNL     1       1.612   3.957  18.377  0.00  0.00    +0.000 A 
ATOM     14  C   UNL     1       2.064   5.264  18.370  0.00  0.00    +0.000 A 
ATOM     15  N   UNL     1       3.176   5.673  17.722  0.00  0.00    +0.000 NA
ENDBRANCH   9  10
ENDBRANCH   1   9
BRANCH   5  16
ATOM     16  C   UNL     1       8.139   9.300  17.819  0.00  0.00    +0.000 C 
BRANCH  16  17
ATOM     17  C   UNL     1       9.043   9.956  18.865  0.00  0.00    +0.000 C 
BRANCH  17  18
ATOM     18  C   UNL     1       9.665  11.226  18.341  0.00  0.00    +0.000 A 
ATOM     19  C   UNL     1      11.054  11.346  18.231  0.00  0.00    +0.000 A 
ATOM     20  C   UNL     1      11.585  12.542  17.775  0.00  0.00    +0.000 A 
ATOM     21  N   UNL     1      10.837  13.611  17.431  0.00  0.00    +0.000 NA
ATOM     22  C   UNL     1       9.498  13.477  17.545  0.00  0.00    +0.000 A 
ATOM     23  C   UNL     1       8.873  12.321  17.989  0.00  0.00    +0.000 A 
ENDBRANCH  17  18
ENDBRANCH  16  17
ENDBRANCH   5  16
TORSDOF 5
ENDMDL
MODEL 4
REMARK VINA RESULT:      -7.4      4.933      7.004
REMARK  Name = 
REMARK  6 active torsions:
REMARK  status: ('A' for Active; 'I' for Inactive)
REMARK    1  A    between atoms: C_1  and  C_2
REMARK    2  A    between atoms: C_2  and  N_3
REMARK    3  A    between atoms: C_2  and  C_17
REMARK    4  A    between atoms: N_7  and  C_8
REMARK    5  A    between atoms: C_8  and  C_9
REMARK    6  A    between atoms: C_9  and  C_10
REMARK                            x       y       z     vdW  Elec       q    Type
REMARK                         _______ _______ _______ _____ _____    ______ ____
ROOT
ATOM      1  N   UNL     1       6.144   4.853  17.298  0.00  0.00    +0.000 N 
ATOM      2  C   UNL     1       6.905   5.871  17.743  0.00  0.00    +0.000 A 
ATOM      3  C   UNL     1       7.815   5.710  18.810  0.00  0.00    +0.000 A 
ATOM      4  C   UNL     1       8.410   6.938  18.969  0.00  0.00    +0.000 A 
ATOM      5  N   UNL     1       7.869   7.740  18.008  0.00  0.00    +0.000 N 
ATOM      6  N   UNL     1       6.924   7.118  17.276  0.00  0.00    +0.000 NA
ATOM      7  H   UNL     1       6.096   3.994  17.840  0.00  0.00    +0.000 HD
ENDROOT
BRANCH   1   9
ATOM      8  C   UNL     1       5.149   4.701  15.088  0.00  0.00    +0.000 C 
ATOM      9  C   UNL     1       4.912   5.095  16.550  0.00  0.00    +0.000 C 
BRANCH   9  10
ATOM     10  C   UNL     1       3.765   4.297  17.172  0.00  0.00    +0.000 A 
ATOM     11  C   UNL     1       2.653   4.973  17.675  0.00  0.00    +0.000 A 
ATOM     12  C   UNL     1       1.625   4.242  18.267  0.00  0.00    +0.000 A 
ATOM     13  C   UNL     1       1.732   2.860  18.353  0.00  0.00    +0.000 A 
ATOM     14  C   UNL     1       2.875   2.263  17.852  0.00  0.00    +0.000 A 
ATOM     15  N   UNL     1       3.892   2.945  17.279  0.00  0.00    +0.000 NA
ENDBRANCH   9  10
ENDBRANCH   1   9
BRANCH   5  16
ATOM     16  C   UNL     1       8.130   9.149  17.766  0.00  0.00    +0.000 C 
BRANCH  16  17
ATOM     17  C   UNL     1       8.987   9.839  18.831  0.00  0.00    +0.000 C 
BRANCH  17  18
ATOM     18  C   UNL     1       9.491  11.178  18.354  0.00  0.00    +0.000 A 
ATOM     19  C   UNL     1      10.844  11.509  18.465  0.00  0.00    +0.000 A 
ATOM     20  C   UNL     1      11.260  12.763  18.044  0.00  0.00    +0.000 A 
ATOM     21  N   UNL     1      10.429  13.695  17.532  0.00  0.00    +0.000 NA
ATOM     22  C   UNL     1       9.125  13.357  17.434  0.00  0.00    +0.000 A 
ATOM     23  C   UNL     1       8.614  12.128  17.827  0.00  0.00    +0.000 A 
ENDBRANCH  17  18
ENDBRANCH  16  17
ENDBRANCH   5  16
TORSDOF 5
ENDMDL
MODEL 5
REMARK VINA RESULT:      -7.2      1.540      3.061
REMARK  Name = 
REMARK  6 active torsions:
REMARK  status: ('A' for Active; 'I' for Inactive)
REMARK    1  A    between atoms: C_1  and  C_2
REMARK    2  A    between atoms: C_2  and  N_3
REMARK    3  A    between atoms: C_2  and  C_17
REMARK    4  A    between atoms: N_7  and  C_8
REMARK    5  A    between atoms: C_8  and  C_9
REMARK    6  A    between atoms: C_9  and  C_10
REMARK                            x       y       z     vdW  Elec       q    Type
REMARK                         _______ _______ _______ _____ _____    ______ ____
ROOT
ATOM      1  N   UNL     1       5.472   3.221  16.557  0.00  0.00    +0.000 N 
ATOM      2  C   UNL     1       4.354   3.648  17.173  0.00  0.00    +0.000 A 
ATOM      3  C   UNL     1       3.256   2.792  17.402  0.00  0.00    +0.000 A 
ATOM      4  C   UNL     1       2.322   3.562  18.053  0.00  0.00    +0.000 A 
ATOM      5  N   UNL     1       2.894   4.791  18.202  0.00  0.00    +0.000 N 
ATOM      6  N   UNL     1       4.116   4.874  17.640  0.00  0.00    +0.000 NA
ATOM      7  H   UNL     1       5.472   2.315  16.099  0.00  0.00    +0.000 HD
ENDROOT
BRANCH   1   9
ATOM      8  C   UNL     1       5.621   4.916  14.824  0.00  0.00    +0.000 C 
ATOM      9  C   UNL     1       6.390   4.158  15.912  0.00  0.00    +0.000 C 
BRANCH   9  10
ATOM     10  C   UNL     1       6.976   5.110  16.957  0.00  0.00    +0.000 A 
ATOM     11  C   UNL     1       7.033   6.476  16.684  0.00  0.00    +0.000 A 
ATOM     12  C   UNL     1       7.595   7.333  17.628  0.00  0.00    +0.000 A 
ATOM     13  C   UNL     1       8.094   6.810  18.813  0.00  0.00    +0.000 A 
ATOM     14  C   UNL     1       8.022   5.442  19.002  0.00  0.00    +0.000 A 
ATOM     15  N   UNL     1       7.490   4.584  18.104  0.00  0.00    +0.000 NA
ENDBRANCH   9  10
ENDBRANCH   1   9
BRANCH   5  16
ATOM     16  C   UNL     1       2.312   5.983  18.796  0.00  0.00    +0.000 C 
BRANCH  16  17
ATOM     17  C   UNL     1       2.703   7.298  18.119  0.00  0.00    +0.000 C 
BRANCH  17  18
ATOM     18  C   UNL     1       1.978   8.472  18.727  0.00  0.00    +0.000 A 
ATOM     19  C   UNL     1       1.522   8.420  20.048  0.00  0.00    +0.000 A 
ATOM     20  C   UNL     1       0.832   9.509  20.557  0.00  0.00    +0.000 A 
ATOM     21  N   UNL     1       0.567  10.627  19.849  0.00  0.00    +0.000 NA
ATOM     22  C   UNL     1       1.014  10.658  18.575  0.00  0.00    +0.000 A 
ATOM     23  C   UNL     1       1.714   9.620  17.977  0.00  0.00    +0.000 A 
ENDBRANCH  17  18
ENDBRANCH  16  17
ENDBRANCH   5  16
TORSDOF 5
ENDMDL
MODEL 6
REMARK VINA RESULT:      -7.2      5.090      6.977
REMARK  Name = 
REMARK  6 active torsions:
REMARK  status: ('A' for Active; 'I' for Inactive)
REMARK    1  A    between atoms: C_1  and  C_2
REMARK    2  A    between atoms: C_2  and  N_3
REMARK    3  A    between atoms: C_2  and  C_17
REMARK    4  A    between atoms: N_7  and  C_8
REMARK    5  A    between atoms: C_8  and  C_9
REMARK    6  A    between atoms: C_9  and  C_10
REMARK                            x       y       z     vdW  Elec       q    Type
REMARK                         _______ _______ _______ _____ _____    ______ ____
ROOT
ATOM      1  N   UNL     1       6.447   4.969  17.063  0.00  0.00    +0.000 N 
ATOM      2  C   UNL     1       7.137   5.962  17.656  0.00  0.00    +0.000 A 
ATOM      3  C   UNL     1       7.933   5.737  18.799  0.00  0.00    +0.000 A 
ATOM      4  C   UNL     1       8.483   6.958  19.107  0.00  0.00    +0.000 A 
ATOM      5  N   UNL     1       8.030   7.820  18.151  0.00  0.00    +0.000 N 
ATOM      6  N   UNL     1       7.180   7.240  17.281  0.00  0.00    +0.000 NA
ATOM      7  H   UNL     1       6.359   4.074  17.535  0.00  0.00    +0.000 HD
ENDROOT
BRANCH   1   9
ATOM      8  C   UNL     1       5.455   4.451  14.908  0.00  0.00    +0.000 C 
ATOM      9  C   UNL     1       5.296   5.249  16.207  0.00  0.00    +0.000 C 
BRANCH   9  10
ATOM     10  C   UNL     1       4.005   4.882  16.941  0.00  0.00    +0.000 A 
ATOM     11  C   UNL     1       3.366   5.844  17.724  0.00  0.00    +0.000 A 
ATOM     12  C   UNL     1       2.207   5.495  18.414  0.00  0.00    +0.000 A 
ATOM     13  C   UNL     1       1.719   4.199  18.316  0.00  0.00    +0.000 A 
ATOM     14  C   UNL     1       2.420   3.295  17.539  0.00  0.00    +0.000 A 
ATOM     15  N   UNL     1       3.550   3.601  16.864  0.00  0.00    +0.000 NA
ENDBRANCH   9  10
ENDBRANCH   1   9
BRANCH   5  16
ATOM     16  C   UNL     1       8.288   9.246  18.037  0.00  0.00    +0.000 C 
BRANCH  16  17
ATOM     17  C   UNL     1       9.132   9.841  19.166  0.00  0.00    +0.000 C 
BRANCH  17  18
ATOM     18  C   UNL     1       9.557  11.254  18.853  0.00  0.00    +0.000 A 
ATOM     19  C   UNL     1       8.910  11.987  17.854  0.00  0.00    +0.000 A 
ATOM     20  C   UNL     1       9.354  13.271  17.578  0.00  0.00    +0.000 A 
ATOM     21  N   UNL     1      10.384  13.862  18.218  0.00  0.00    +0.000 NA
ATOM     22  C   UNL     1      10.996  13.139  19.179  0.00  0.00    +0.000 A 
ATOM     23  C   UNL     1      10.626  11.848  19.528  0.00  0.00    +0.000 A 
ENDBRANCH  17  18
ENDBRANCH  16  17
ENDBRANCH   5  16
TORSDOF 5
ENDMDL
MODEL 7
REMARK VINA RESULT:      -7.2      3.725      6.216
REMARK  Name = 
REMARK  6 active torsions:
REMARK  status: ('A' for Active; 'I' for Inactive)
REMARK    1  A    between atoms: C_1  and  C_2
REMARK    2  A    between atoms: C_2  and  N_3
REMARK    3  A    between atoms: C_2  and  C_17
REMARK    4  A    between atoms: N_7  and  C_8
REMARK    5  A    between atoms: C_8  and  C_9
REMARK    6  A    between atoms: C_9  and  C_10
REMARK                            x       y       z     vdW  Elec       q    Type
REMARK                         _______ _______ _______ _____ _____    ______ ____
ROOT
ATOM      1  N   UNL     1       2.527   6.940  19.803  0.00  0.00    +0.000 N 
ATOM      2  C   UNL     1       1.769   8.038  19.981  0.00  0.00    +0.000 A 
ATOM      3  C   UNL     1       1.330   8.442  21.260  0.00  0.00    +0.000 A 
ATOM      4  C   UNL     1       0.604   9.590  21.051  0.00  0.00    +0.000 A 
ATOM      5  N   UNL     1       0.663   9.827  19.709  0.00  0.00    +0.000 N 
ATOM      6  N   UNL     1       1.335   8.872  19.036  0.00  0.00    +0.000 NA
ATOM      7  H   UNL     1       2.654   6.293  20.576  0.00  0.00    +0.000 HD
ENDROOT
BRANCH   1   9
ATOM      8  C   UNL     1       3.892   6.685  17.811  0.00  0.00    +0.000 C 
ATOM      9  C   UNL     1       2.594   6.264  18.510  0.00  0.00    +0.000 C 
BRANCH   9  10
ATOM     10  C   UNL     1       2.529   4.749  18.715  0.00  0.00    +0.000 A 
ATOM     11  C   UNL     1       1.545   4.011  18.056  0.00  0.00    +0.000 A 
ATOM     12  C   UNL     1       1.472   2.636  18.271  0.00  0.00    +0.000 A 
ATOM     13  C   UNL     1       2.371   2.032  19.140  0.00  0.00    +0.000 A 
ATOM     14  C   UNL     1       3.303   2.834  19.773  0.00  0.00    +0.000 A 
ATOM     15  N   UNL     1       3.395   4.170  19.592  0.00  0.00    +0.000 NA
ENDBRANCH   9  10
ENDBRANCH   1   9
BRANCH   5  16
ATOM     16  C   UNL     1       0.029  10.899  18.960  0.00  0.00    +0.000 C 
BRANCH  16  17
ATOM     17  C   UNL     1      -1.453  11.115  19.273  0.00  0.00    +0.000 C 
BRANCH  17  18
ATOM     18  C   UNL     1      -2.313  10.908  18.051  0.00  0.00    +0.000 A 
ATOM     19  C   UNL     1      -1.895  10.059  17.022  0.00  0.00    +0.000 A 
ATOM     20  C   UNL     1      -2.701   9.922  15.903  0.00  0.00    +0.000 A 
ATOM     21  N   UNL     1      -3.875  10.566  15.741  0.00  0.00    +0.000 NA
ATOM     22  C   UNL     1      -4.262  11.383  16.745  0.00  0.00    +0.000 A 
ATOM     23  C   UNL     1      -3.526  11.585  17.903  0.00  0.00    +0.000 A 
ENDBRANCH  17  18
ENDBRANCH  16  17
ENDBRANCH   5  16
TORSDOF 5
ENDMDL
MODEL 8
REMARK VINA RESULT:      -7.2      3.034      4.646
REMARK  Name = 
REMARK  6 active torsions:
REMARK  status: ('A' for Active; 'I' for Inactive)
REMARK    1  A    between atoms: C_1  and  C_2
REMARK    2  A    between atoms: C_2  and  N_3
REMARK    3  A    between atoms: C_2  and  C_17
REMARK    4  A    between atoms: N_7  and  C_8
REMARK    5  A    between atoms: C_8  and  C_9
REMARK    6  A    between atoms: C_9  and  C_10
REMARK                            x       y       z     vdW  Elec       q    Type
REMARK                         _______ _______ _______ _____ _____    ______ ____
ROOT
ATOM      1  N   UNL     1       3.213   6.025  17.763  0.00  0.00    +0.000 N 
ATOM      2  C   UNL     1       2.612   7.000  18.471  0.00  0.00    +0.000 A 
ATOM      3  C   UNL     1       2.149   8.186  17.861  0.00  0.00    +0.000 A 
ATOM      4  C   UNL     1       1.592   8.925  18.877  0.00  0.00    +0.000 A 
ATOM      5  N   UNL     1       1.719   8.163  20.002  0.00  0.00    +0.000 N 
ATOM      6  N   UNL     1       2.371   7.005  19.781  0.00  0.00    +0.000 NA
ATOM      7  H   UNL     1       3.490   6.206  16.802  0.00  0.00    +0.000 HD
ENDROOT
BRANCH   1   9
ATOM      8  C   UNL     1       4.036   3.746  17.598  0.00  0.00    +0.000 C 
ATOM      9  C   UNL     1       4.087   5.046  18.407  0.00  0.00    +0.000 C 
BRANCH   9  10
ATOM     10  C   UNL     1       5.509   5.603  18.494  0.00  0.00    +0.000 A 
ATOM     11  C   UNL     1       5.986   6.428  17.476  0.00  0.00    +0.000 A 
ATOM     12  C   UNL     1       7.292   6.907  17.547  0.00  0.00    +0.000 A 
ATOM     13  C   UNL     1       8.094   6.546  18.621  0.00  0.00    +0.000 A 
ATOM     14  C   UNL     1       7.558   5.706  19.581  0.00  0.00    +0.000 A 
ATOM     15  N   UNL     1       6.298   5.219  19.537  0.00  0.00    +0.000 NA
ENDBRANCH   9  10
ENDBRANCH   1   9
BRANCH   5  16
ATOM     16  C   UNL     1       1.324   8.499  21.359  0.00  0.00    +0.000 C 
BRANCH  16  17
ATOM     17  C   UNL     1      -0.185   8.634  21.577  0.00  0.00    +0.000 C 
BRANCH  17  18
ATOM     18  C   UNL     1      -0.595  10.076  21.739  0.00  0.00    +0.000 A 
ATOM     19  C   UNL     1      -0.605  10.941  20.641  0.00  0.00    +0.000 A 
ATOM     20  C   UNL     1      -0.958  12.266  20.840  0.00  0.00    +0.000 A 
ATOM     21  N   UNL     1      -1.293  12.780  22.042  0.00  0.00    +0.000 NA
ATOM     22  C   UNL     1      -1.277  11.930  23.091  0.00  0.00    +0.000 A 
ATOM     23  C   UNL     1      -0.939  10.588  22.992  0.00  0.00    +0.000 A 
ENDBRANCH  17  18
ENDBRANCH  16  17
ENDBRANCH   5  16
TORSDOF 5
ENDMDL
MODEL 9
REMARK VINA RESULT:      -7.1      0.804      1.147
REMARK  Name = 
REMARK  6 active torsions:
REMARK  status: ('A' for Active; 'I' for Inactive)
REMARK    1  A    between atoms: C_1  and  C_2
REMARK    2  A    between atoms: C_2  and  N_3
REMARK    3  A    between atoms: C_2  and  C_17
REMARK    4  A    between atoms: N_7  and  C_8
REMARK    5  A    between atoms: C_8  and  C_9
REMARK    6  A    between atoms: C_9  and  C_10
REMARK                            x       y       z     vdW  Elec       q    Type
REMARK                         _______ _______ _______ _____ _____    ______ ____
ROOT
ATOM      1  N   UNL     1       5.339   3.280  16.608  0.00  0.00    +0.000 N 
ATOM      2  C   UNL     1       4.217   3.356  17.349  0.00  0.00    +0.000 A 
ATOM      3  C   UNL     1       3.289   2.294  17.407  0.00  0.00    +0.000 A 
ATOM      4  C   UNL     1       2.297   2.723  18.257  0.00  0.00    +0.000 A 
ATOM      5  N   UNL     1       2.678   3.965  18.674  0.00  0.00    +0.000 N 
ATOM      6  N   UNL     1       3.825   4.383  18.103  0.00  0.00    +0.000 NA
ATOM      7  H   UNL     1       5.448   2.516  15.947  0.00  0.00    +0.000 HD
ENDROOT
BRANCH   1   9
ATOM      8  C   UNL     1       7.286   4.662  17.054  0.00  0.00    +0.000 C 
ATOM      9  C   UNL     1       6.045   4.483  16.172  0.00  0.00    +0.000 C 
BRANCH   9  10
ATOM     10  C   UNL     1       6.416   4.357  14.693  0.00  0.00    +0.000 A 
ATOM     11  C   UNL     1       7.420   5.170  14.167  0.00  0.00    +0.000 A 
ATOM     12  C   UNL     1       7.732   5.071  12.813  0.00  0.00    +0.000 A 
ATOM     13  C   UNL     1       7.033   4.174  12.015  0.00  0.00    +0.000 A 
ATOM     14  C   UNL     1       6.036   3.418  12.604  0.00  0.00    +0.000 A 
ATOM     15  N   UNL     1       5.705   3.496  13.912  0.00  0.00    +0.000 NA
ENDBRANCH   9  10
ENDBRANCH   1   9
BRANCH   5  16
ATOM     16  C   UNL     1       1.961   4.871  19.555  0.00  0.00    +0.000 C 
BRANCH  16  17
ATOM     17  C   UNL     1       2.778   6.063  20.058  0.00  0.00    +0.000 C 
BRANCH  17  18
ATOM     18  C   UNL     1       2.199   7.372  19.580  0.00  0.00    +0.000 A 
ATOM     19  C   UNL     1       2.434   7.821  18.277  0.00  0.00    +0.000 A 
ATOM     20  C   UNL     1       1.909   9.044  17.890  0.00  0.00    +0.000 A 
ATOM     21  N   UNL     1       1.181   9.839  18.703  0.00  0.00    +0.000 NA
ATOM     22  C   UNL     1       0.966   9.389  19.957  0.00  0.00    +0.000 A 
ATOM     23  C   UNL     1       1.448   8.179  20.437  0.00  0.00    +0.000 A 
ENDBRANCH  17  18
ENDBRANCH  16  17
ENDBRANCH   5  16
TORSDOF 5
ENDMDL
