MODEL 1
REMARK VINA RESULT:      -8.4      0.000      0.000
REMARK  Name = 
REMARK  8 active torsions:
REMARK  status: ('A' for Active; 'I' for Inactive)
REMARK    1  A    between atoms: C_1  and  O_2
REMARK    2  A    between atoms: O_2  and  C_3
REMARK    3  A    between atoms: C_8  and  N_9
REMARK    4  A    between atoms: N_12  and  C_13
REMARK    5  A    between atoms: C_13  and  C_14
REMARK    6  A    between atoms: C_17  and  C_18
REMARK    7  A    between atoms: C_17  and  C_27
REMARK    8  A    between atoms: C_18  and  N_19
REMARK                            x       y       z     vdW  Elec       q    Type
REMARK                         _______ _______ _______ _____ _____    ______ ____
ROOT
ATOM      1  C   UNL     1       1.979   7.778  18.249  0.00  0.00    +0.000 C 
ATOM      2  C   UNL     1       2.099   7.344  19.690  0.00  0.00    +0.000 C 
ATOM      3  O   UNL     1       3.355   6.678  19.774  0.00  0.00    +0.000 OA
ATOM      4  C   UNL     1       3.609   6.117  18.473  0.00  0.00    +0.000 C 
ATOM      5  O   UNL     1       2.746   6.788  17.522  0.00  0.00    +0.000 OA
ENDROOT
BRANCH   4   6
ATOM      6  C   UNL     1       3.359   4.578  18.504  0.00  0.00    +0.000 A 
ATOM      7  C   UNL     1       3.945   3.747  19.476  0.00  0.00    +0.000 A 
ATOM      8  C   UNL     1       3.939   2.340  19.344  0.00  0.00    +0.000 A 
ATOM      9  C   UNL     1       3.373   1.731  18.251  0.00  0.00    +0.000 A 
ATOM     10  C   UNL     1       2.735   2.523  17.301  0.00  0.00    +0.000 A 
ATOM     11  C   UNL     1       2.673   3.917  17.464  0.00  0.00    +0.000 A 
ENDBRANCH   4   6
BRANCH   1  12
ATOM     12  C   UNL     1       2.430   9.263  17.976  0.00  0.00    +0.000 C 
BRANCH  12  16
ATOM     13  N   UNL     1      -0.509  11.368  20.090  0.00  0.00    +0.000 N 
ATOM     14  C   UNL     1      -0.710  10.005  19.568  0.00  0.00    +0.000 C 
ATOM     15  C   UNL     1      -0.029   9.857  18.170  0.00  0.00    +0.000 C 
ATOM     16  N   UNL     1       1.379  10.297  18.034  0.00  0.00    +0.000 NA
ATOM     17  C   UNL     1       1.640  11.527  18.794  0.00  0.00    +0.000 C 
ATOM     18  C   UNL     1       0.887  11.805  20.118  0.00  0.00    +0.000 C 
BRANCH  13  24
ATOM     19  C   UNL     1      -1.281  11.753  22.409  0.00  0.00    +0.000 A 
ATOM     20  C   UNL     1      -2.303  12.162  23.291  0.00  0.00    +0.000 A 
ATOM     21  C   UNL     1      -3.446  12.803  22.819  0.00  0.00    +0.000 A 
ATOM     22  C   UNL     1      -3.570  13.052  21.463  0.00  0.00    +0.000 A 
ATOM     23  C   UNL     1      -2.567  12.621  20.578  0.00  0.00    +0.000 A 
ATOM     24  C   UNL     1      -1.408  11.933  21.008  0.00  0.00    +0.000 A 
BRANCH  19  26
ATOM     25  C   UNL     1      -0.474   9.696  23.236  0.00  0.00    +0.000 C 
ATOM     26  O   UNL     1      -0.193  11.043  22.870  0.00  0.00    +0.000 OA
ENDBRANCH  19  26
ENDBRANCH  13  24
ENDBRANCH  12  16
ENDBRANCH   1  12
BRANCH   4  27
ATOM     27  C   UNL     1       5.098   6.444  18.059  0.00  0.00    +0.000 C 
BRANCH  27  28
ATOM     28  N   UNL     1       5.597   5.651  16.917  0.00  0.00    +0.000 N 
ATOM     29  C   UNL     1       5.344   6.108  15.638  0.00  0.00    +0.000 C 
ATOM     30  O   UNL     1       4.986   7.263  15.395  0.00  0.00    +0.000 OA
ATOM     31  C   UNL     1       5.450   5.117  14.506  0.00  0.00    +0.000 C 
ATOM     32  C   UNL     1       5.955   3.736  14.860  0.00  0.00    +0.000 C 
ATOM     33  C   UNL     1       6.818   3.664  16.099  0.00  0.00    +0.000 C 
ATOM     34  C   UNL     1       6.535   4.667  17.188  0.00  0.00    +0.000 C 
ATOM     35  O   UNL     1       7.175   4.617  18.243  0.00  0.00    +0.000 OA
ENDBRANCH  27  28
ENDBRANCH   4  27
TORSDOF 7
ENDMDL
MODEL 2
REMARK VINA RESULT:      -8.0      2.057      3.927
REMARK  Name = 
REMARK  8 active torsions:
REMARK  status: ('A' for Active; 'I' for Inactive)
REMARK    1  A    between atoms: C_1  and  O_2
REMARK    2  A    between atoms: O_2  and  C_3
REMARK    3  A    between atoms: C_8  and  N_9
REMARK    4  A    between atoms: N_12  and  C_13
REMARK    5  A    between atoms: C_13  and  C_14
REMARK    6  A    between atoms: C_17  and  C_18
REMARK    7  A    between atoms: C_17  and  C_27
REMARK    8  A    between atoms: C_18  and  N_19
REMARK                            x       y       z     vdW  Elec       q    Type
REMARK                         _______ _______ _______ _____ _____    ______ ____
ROOT
ATOM      1  C   UNL     1       2.358   8.291  19.743  0.00  0.00    +0.000 C 
ATOM      2  C   UNL     1       2.219   8.426  18.247  0.00  0.00    +0.000 C 
ATOM      3  O   UNL     1       2.027   7.097  17.770  0.00  0.00    +0.000 OA
ATOM      4  C   UNL     1       2.701   6.228  18.698  0.00  0.00    +0.000 C 
ATOM      5  O   UNL     1       2.922   6.970  19.924  0.00  0.00    +0.000 OA
ENDROOT
BRANCH   4   6
ATOM      6  C   UNL     1       4.037   5.722  18.074  0.00  0.00    +0.000 A 
ATOM      7  C   UNL     1       4.139   5.369  16.716  0.00  0.00    +0.000 A 
ATOM      8  C   UNL     1       5.258   4.664  16.218  0.00  0.00    +0.000 A 
ATOM      9  C   UNL     1       6.283   4.283  17.048  0.00  0.00    +0.000 A 
ATOM     10  C   UNL     1       6.239   4.667  18.385  0.00  0.00    +0.000 A 
ATOM     11  C   UNL     1       5.165   5.432  18.869  0.00  0.00    +0.000 A 
ENDBRANCH   4   6
BRANCH   1  12
ATOM     12  C   UNL     1       1.023   8.532  20.546  0.00  0.00    +0.000 C 
BRANCH  12  16
ATOM     13  N   UNL     1      -0.986  11.591  22.582  0.00  0.00    +0.000 N 
ATOM     14  C   UNL     1      -0.559  11.700  21.176  0.00  0.00    +0.000 C 
ATOM     15  C   UNL     1       0.835  11.024  20.981  0.00  0.00    +0.000 C 
ATOM     16  N   UNL     1       1.019   9.651  21.507  0.00  0.00    +0.000 NA
ATOM     17  C   UNL     1       0.347   9.469  22.800  0.00  0.00    +0.000 C 
ATOM     18  C   UNL     1      -0.966  10.227  23.115  0.00  0.00    +0.000 C 
BRANCH  13  24
ATOM     19  C   UNL     1      -1.488  13.837  23.489  0.00  0.00    +0.000 A 
ATOM     20  C   UNL     1      -2.345  14.678  24.231  0.00  0.00    +0.000 A 
ATOM     21  C   UNL     1      -3.619  14.257  24.603  0.00  0.00    +0.000 A 
ATOM     22  C   UNL     1      -4.053  12.998  24.225  0.00  0.00    +0.000 A 
ATOM     23  C   UNL     1      -3.193  12.147  23.511  0.00  0.00    +0.000 A 
ATOM     24  C   UNL     1      -1.877  12.518  23.144  0.00  0.00    +0.000 A 
BRANCH  19  26
ATOM     25  C   UNL     1      -0.094  15.279  22.246  0.00  0.00    +0.000 C 
ATOM     26  O   UNL     1      -0.198  14.224  23.197  0.00  0.00    +0.000 OA
ENDBRANCH  19  26
ENDBRANCH  13  24
ENDBRANCH  12  16
ENDBRANCH   1  12
BRANCH   4  27
ATOM     27  C   UNL     1       1.745   5.022  19.053  0.00  0.00    +0.000 C 
BRANCH  27  28
ATOM     28  N   UNL     1       2.447   3.748  19.311  0.00  0.00    +0.000 N 
ATOM     29  C   UNL     1       2.751   3.417  20.618  0.00  0.00    +0.000 C 
ATOM     30  O   UNL     1       2.227   3.966  21.589  0.00  0.00    +0.000 OA
ATOM     31  C   UNL     1       3.823   2.382  20.847  0.00  0.00    +0.000 C 
ATOM     32  C   UNL     1       4.380   1.699  19.618  0.00  0.00    +0.000 C 
ATOM     33  C   UNL     1       3.456   1.675  18.421  0.00  0.00    +0.000 C 
ATOM     34  C   UNL     1       2.496   2.828  18.276  0.00  0.00    +0.000 C 
ATOM     35  O   UNL     1       1.759   2.884  17.287  0.00  0.00    +0.000 OA
ENDBRANCH  27  28
ENDBRANCH   4  27
TORSDOF 7
ENDMDL
MODEL 3
REMARK VINA RESULT:      -7.7      1.906      3.932
REMARK  Name = 
REMARK  8 active torsions:
REMARK  status: ('A' for Active; 'I' for Inactive)
REMARK    1  A    between atoms: C_1  and  O_2
REMARK    2  A    between atoms: O_2  and  C_3
REMARK    3  A    between atoms: C_8  and  N_9
REMARK    4  A    between atoms: N_12  and  C_13
REMARK    5  A    between atoms: C_13  and  C_14
REMARK    6  A    between atoms: C_17  and  C_18
REMARK    7  A    between atoms: C_17  and  C_27
REMARK    8  A    between atoms: C_18  and  N_19
REMARK                            x       y       z     vdW  Elec       q    Type
REMARK                         _______ _______ _______ _____ _____    ______ ____
ROOT
ATOM      1  C   UNL     1       2.257   8.210  19.111  0.00  0.00    +0.000 C 
ATOM      2  C   UNL     1       1.811   7.474  17.871  0.00  0.00    +0.000 C 
ATOM      3  O   UNL     1       2.253   6.132  18.055  0.00  0.00    +0.000 OA
ATOM      4  C   UNL     1       3.428   6.199  18.884  0.00  0.00    +0.000 C 
ATOM      5  O   UNL     1       3.443   7.494  19.533  0.00  0.00    +0.000 OA
ENDROOT
BRANCH   4   6
ATOM      6  C   UNL     1       4.702   5.967  18.015  0.00  0.00    +0.000 A 
ATOM      7  C   UNL     1       4.623   5.656  16.645  0.00  0.00    +0.000 A 
ATOM      8  C   UNL     1       5.747   5.186  15.929  0.00  0.00    +0.000 A 
ATOM      9  C   UNL     1       6.957   4.998  16.550  0.00  0.00    +0.000 A 
ATOM     10  C   UNL     1       7.081   5.350  17.891  0.00  0.00    +0.000 A 
ATOM     11  C   UNL     1       5.987   5.889  18.588  0.00  0.00    +0.000 A 
ENDBRANCH   4   6
BRANCH   1  12
ATOM     12  C   UNL     1       1.153   8.332  20.228  0.00  0.00    +0.000 C 
BRANCH  12  16
ATOM     13  N   UNL     1      -0.722  11.443  22.313  0.00  0.00    +0.000 N 
ATOM     14  C   UNL     1      -0.501  11.464  20.856  0.00  0.00    +0.000 C 
ATOM     15  C   UNL     1       0.888  10.839  20.512  0.00  0.00    +0.000 C 
ATOM     16  N   UNL     1       1.219   9.521  21.100  0.00  0.00    +0.000 NA
ATOM     17  C   UNL     1       0.744   9.408  22.485  0.00  0.00    +0.000 C 
ATOM     18  C   UNL     1      -0.552  10.127  22.931  0.00  0.00    +0.000 C 
BRANCH  13  24
ATOM     19  C   UNL     1      -1.161  13.680  23.274  0.00  0.00    +0.000 A 
ATOM     20  C   UNL     1      -1.973  14.516  24.069  0.00  0.00    +0.000 A 
ATOM     21  C   UNL     1      -3.231  14.100  24.497  0.00  0.00    +0.000 A 
ATOM     22  C   UNL     1      -3.693  12.850  24.123  0.00  0.00    +0.000 A 
ATOM     23  C   UNL     1      -2.877  12.003  23.355  0.00  0.00    +0.000 A 
ATOM     24  C   UNL     1      -1.577  12.369  22.931  0.00  0.00    +0.000 A 
BRANCH  19  26
ATOM     25  C   UNL     1       0.183  15.125  21.981  0.00  0.00    +0.000 C 
ATOM     26  O   UNL     1       0.117  14.061  22.926  0.00  0.00    +0.000 OA
ENDBRANCH  19  26
ENDBRANCH  13  24
ENDBRANCH  12  16
ENDBRANCH   1  12
BRANCH   4  27
ATOM     27  C   UNL     1       3.310   5.111  20.023  0.00  0.00    +0.000 C 
BRANCH  27  28
ATOM     28  N   UNL     1       2.852   3.788  19.553  0.00  0.00    +0.000 N 
ATOM     29  C   UNL     1       3.797   2.802  19.338  0.00  0.00    +0.000 C 
ATOM     30  O   UNL     1       4.945   2.864  19.781  0.00  0.00    +0.000 OA
ATOM     31  C   UNL     1       3.407   1.638  18.462  0.00  0.00    +0.000 C 
ATOM     32  C   UNL     1       1.967   1.587  18.003  0.00  0.00    +0.000 C 
ATOM     33  C   UNL     1       0.983   2.314  18.891  0.00  0.00    +0.000 C 
ATOM     34  C   UNL     1       1.496   3.518  19.638  0.00  0.00    +0.000 C 
ATOM     35  O   UNL     1       0.719   4.178  20.334  0.00  0.00    +0.000 OA
ENDBRANCH  27  28
ENDBRANCH   4  27
TORSDOF 7
ENDMDL
MODEL 4
REMARK VINA RESULT:      -7.7      0.993      1.551
REMARK  Name = 
REMARK  8 active torsions:
REMARK  status: ('A' for Active; 'I' for Inactive)
REMARK    1  A    between atoms: C_1  and  O_2
REMARK    2  A    between atoms: O_2  and  C_3
REMARK    3  A    between atoms: C_8  and  N_9
REMARK    4  A    between atoms: N_12  and  C_13
REMARK    5  A    between atoms: C_13  and  C_14
REMARK    6  A    between atoms: C_17  and  C_18
REMARK    7  A    between atoms: C_17  and  C_27
REMARK    8  A    between atoms: C_18  and  N_19
REMARK                            x       y       z     vdW  Elec       q    Type
REMARK                         _______ _______ _______ _____ _____    ______ ____
ROOT
ATOM      1  C   UNL     1       2.009   7.774  18.249  0.00  0.00    +0.000 C 
ATOM      2  C   UNL     1       2.121   7.348  19.692  0.00  0.00    +0.000 C 
ATOM      3  O   UNL     1       3.371   6.672  19.785  0.00  0.00    +0.000 OA
ATOM      4  C   UNL     1       3.625   6.101  18.488  0.00  0.00    +0.000 C 
ATOM      5  O   UNL     1       2.770   6.773  17.530  0.00  0.00    +0.000 OA
ENDROOT
BRANCH   4   6
ATOM      6  C   UNL     1       3.362   4.564  18.527  0.00  0.00    +0.000 A 
ATOM      7  C   UNL     1       3.964   3.729  19.486  0.00  0.00    +0.000 A 
ATOM      8  C   UNL     1       3.942   2.322  19.357  0.00  0.00    +0.000 A 
ATOM      9  C   UNL     1       3.345   1.717  18.279  0.00  0.00    +0.000 A 
ATOM     10  C   UNL     1       2.691   2.513  17.343  0.00  0.00    +0.000 A 
ATOM     11  C   UNL     1       2.645   3.908  17.505  0.00  0.00    +0.000 A 
ENDBRANCH   4   6
BRANCH   1  12
ATOM     12  C   UNL     1       2.473   9.253  17.968  0.00  0.00    +0.000 C 
BRANCH  12  16
ATOM     13  N   UNL     1      -0.329  11.402  20.220  0.00  0.00    +0.000 N 
ATOM     14  C   UNL     1      -0.575  10.043  19.708  0.00  0.00    +0.000 C 
ATOM     15  C   UNL     1       0.036   9.886  18.279  0.00  0.00    +0.000 C 
ATOM     16  N   UNL     1       1.443  10.304  18.077  0.00  0.00    +0.000 NA
ATOM     17  C   UNL     1       1.759  11.528  18.824  0.00  0.00    +0.000 C 
ATOM     18  C   UNL     1       1.075  11.817  20.182  0.00  0.00    +0.000 C 
BRANCH  13  24
ATOM     19  C   UNL     1      -1.761  13.259  21.009  0.00  0.00    +0.000 A 
ATOM     20  C   UNL     1      -2.440  13.896  22.069  0.00  0.00    +0.000 A 
ATOM     21  C   UNL     1      -2.600  13.267  23.301  0.00  0.00    +0.000 A 
ATOM     22  C   UNL     1      -2.094  11.991  23.479  0.00  0.00    +0.000 A 
ATOM     23  C   UNL     1      -1.393  11.364  22.435  0.00  0.00    +0.000 A 
ATOM     24  C   UNL     1      -1.174  11.980  21.181  0.00  0.00    +0.000 A 
BRANCH  19  26
ATOM     25  C   UNL     1      -0.827  15.150  19.951  0.00  0.00    +0.000 C 
ATOM     26  O   UNL     1      -1.530  13.919  19.821  0.00  0.00    +0.000 OA
ENDBRANCH  19  26
ENDBRANCH  13  24
ENDBRANCH  12  16
ENDBRANCH   1  12
BRANCH   4  27
ATOM     27  C   UNL     1       5.117   6.413  18.077  0.00  0.00    +0.000 C 
BRANCH  27  28
ATOM     28  N   UNL     1       5.604   5.632  16.921  0.00  0.00    +0.000 N 
ATOM     29  C   UNL     1       5.337   6.104  15.649  0.00  0.00    +0.000 C 
ATOM     30  O   UNL     1       4.978   7.261  15.423  0.00  0.00    +0.000 OA
ATOM     31  C   UNL     1       5.429   5.125  14.506  0.00  0.00    +0.000 C 
ATOM     32  C   UNL     1       5.937   3.740  14.839  0.00  0.00    +0.000 C 
ATOM     33  C   UNL     1       6.813   3.653  16.068  0.00  0.00    +0.000 C 
ATOM     34  C   UNL     1       6.543   4.645  17.171  0.00  0.00    +0.000 C 
ATOM     35  O   UNL     1       7.194   4.582  18.218  0.00  0.00    +0.000 OA
ENDBRANCH  27  28
ENDBRANCH   4  27
TORSDOF 7
ENDMDL
MODEL 5
REMARK VINA RESULT:      -7.7      0.979      1.577
REMARK  Name = 
REMARK  8 active torsions:
REMARK  status: ('A' for Active; 'I' for Inactive)
REMARK    1  A    between atoms: C_1  and  O_2
REMARK    2  A    between atoms: O_2  and  C_3
REMARK    3  A    between atoms: C_8  and  N_9
REMARK    4  A    between atoms: N_12  and  C_13
REMARK    5  A    between atoms: C_13  and  C_14
REMARK    6  A    between atoms: C_17  and  C_18
REMARK    7  A    between atoms: C_17  and  C_27
REMARK    8  A    between atoms: C_18  and  N_19
REMARK                            x       y       z     vdW  Elec       q    Type
REMARK                         _______ _______ _______ _____ _____    ______ ____
ROOT
ATOM      1  C   UNL     1       1.859   8.008  18.268  0.00  0.00    +0.000 C 
ATOM      2  C   UNL     1       2.031   7.565  19.700  0.00  0.00    +0.000 C 
ATOM      3  O   UNL     1       3.315   6.949  19.747  0.00  0.00    +0.000 OA
ATOM      4  C   UNL     1       3.559   6.412  18.434  0.00  0.00    +0.000 C 
ATOM      5  O   UNL     1       2.647   7.058  17.512  0.00  0.00    +0.000 OA
ENDROOT
BRANCH   4   6
ATOM      6  C   UNL     1       3.372   4.864  18.453  0.00  0.00    +0.000 A 
ATOM      7  C   UNL     1       4.054   4.042  19.369  0.00  0.00    +0.000 A 
ATOM      8  C   UNL     1       4.093   2.638  19.213  0.00  0.00    +0.000 A 
ATOM      9  C   UNL     1       3.480   2.025  18.149  0.00  0.00    +0.000 A 
ATOM     10  C   UNL     1       2.750   2.805  17.258  0.00  0.00    +0.000 A 
ATOM     11  C   UNL     1       2.644   4.193  17.450  0.00  0.00    +0.000 A 
ENDBRANCH   4   6
BRANCH   1  12
ATOM     12  C   UNL     1       2.243   9.513  18.001  0.00  0.00    +0.000 C 
BRANCH  12  16
ATOM     13  N   UNL     1      -0.658  11.497  20.279  0.00  0.00    +0.000 N 
ATOM     14  C   UNL     1      -0.833  10.129  19.760  0.00  0.00    +0.000 C 
ATOM     15  C   UNL     1      -0.223  10.012  18.328  0.00  0.00    +0.000 C 
ATOM     16  N   UNL     1       1.158  10.506  18.121  0.00  0.00    +0.000 NA
ATOM     17  C   UNL     1       1.413  11.742  18.873  0.00  0.00    +0.000 C 
ATOM     18  C   UNL     1       0.721  11.987  20.236  0.00  0.00    +0.000 C 
BRANCH  13  24
ATOM     19  C   UNL     1      -2.770  12.618  20.912  0.00  0.00    +0.000 A 
ATOM     20  C   UNL     1      -3.527  13.314  21.879  0.00  0.00    +0.000 A 
ATOM     21  C   UNL     1      -3.103  13.393  23.203  0.00  0.00    +0.000 A 
ATOM     22  C   UNL     1      -1.926  12.768  23.575  0.00  0.00    +0.000 A 
ATOM     23  C   UNL     1      -1.155  12.098  22.610  0.00  0.00    +0.000 A 
ATOM     24  C   UNL     1      -1.527  12.024  21.247  0.00  0.00    +0.000 A 
BRANCH  19  26
ATOM     25  C   UNL     1      -4.496  12.216  19.355  0.00  0.00    +0.000 C 
ATOM     26  O   UNL     1      -3.149  12.615  19.587  0.00  0.00    +0.000 OA
ENDBRANCH  19  26
ENDBRANCH  13  24
ENDBRANCH  12  16
ENDBRANCH   1  12
BRANCH   4  27
ATOM     27  C   UNL     1       5.023   6.803  17.988  0.00  0.00    +0.000 C 
BRANCH  27  28
ATOM     28  N   UNL     1       5.610   5.902  16.976  0.00  0.00    +0.000 N 
ATOM     29  C   UNL     1       5.298   6.114  15.646  0.00  0.00    +0.000 C 
ATOM     30  O   UNL     1       4.803   7.163  15.231  0.00  0.00    +0.000 OA
ATOM     31  C   UNL     1       5.517   4.972  14.685  0.00  0.00    +0.000 C 
ATOM     32  C   UNL     1       6.187   3.736  15.242  0.00  0.00    +0.000 C 
ATOM     33  C   UNL     1       7.058   3.968  16.457  0.00  0.00    +0.000 C 
ATOM     34  C   UNL     1       6.660   5.092  17.378  0.00  0.00    +0.000 C 
ATOM     35  O   UNL     1       7.306   5.289  18.412  0.00  0.00    +0.000 OA
ENDBRANCH  27  28
ENDBRANCH   4  27
TORSDOF 7
ENDMDL
MODEL 6
REMARK VINA RESULT:      -7.6      2.462      4.511
REMARK  Name = 
REMARK  8 active torsions:
REMARK  status: ('A' for Active; 'I' for Inactive)
REMARK    1  A    between atoms: C_1  and  O_2
REMARK    2  A    between atoms: O_2  and  C_3
REMARK    3  A    between atoms: C_8  and  N_9
REMARK    4  A    between atoms: N_12  and  C_13
REMARK    5  A    between atoms: C_13  and  C_14
REMARK    6  A    between atoms: C_17  and  C_18
REMARK    7  A    between atoms: C_17  and  C_27
REMARK    8  A    between atoms: C_18  and  N_19
REMARK                            x       y       z     vdW  Elec       q    Type
REMARK                         _______ _______ _______ _____ _____    ______ ____
ROOT
ATOM      1  C   UNL     1       1.866   8.474  19.684  0.00  0.00    +0.000 C 
ATOM      2  C   UNL     1       2.105   8.799  18.230  0.00  0.00    +0.000 C 
ATOM      3  O   UNL     1       2.110   7.540  17.563  0.00  0.00    +0.000 OA
ATOM      4  C   UNL     1       2.570   6.571  18.523  0.00  0.00    +0.000 C 
ATOM      5  O   UNL     1       2.433   7.151  19.843  0.00  0.00    +0.000 OA
ENDROOT
BRANCH   4   6
ATOM      6  C   UNL     1       4.045   6.175  18.208  0.00  0.00    +0.000 A 
ATOM      7  C   UNL     1       4.513   6.033  16.890  0.00  0.00    +0.000 A 
ATOM      8  C   UNL     1       5.756   5.420  16.610  0.00  0.00    +0.000 A 
ATOM      9  C   UNL     1       6.546   4.925  17.618  0.00  0.00    +0.000 A 
ATOM     10  C   UNL     1       6.137   5.102  18.936  0.00  0.00    +0.000 A 
ATOM     11  C   UNL     1       4.939   5.777  19.224  0.00  0.00    +0.000 A 
ENDBRANCH   4   6
BRANCH   1  12
ATOM     12  C   UNL     1       0.361   8.583  20.137  0.00  0.00    +0.000 C 
BRANCH  12  16
ATOM     13  N   UNL     1       0.602  12.740  19.691  0.00  0.00    +0.000 N 
ATOM     14  C   UNL     1       1.464  11.974  20.609  0.00  0.00    +0.000 C 
ATOM     15  C   UNL     1       0.647  10.828  21.285  0.00  0.00    +0.000 C 
ATOM     16  N   UNL     1      -0.153   9.939  20.411  0.00  0.00    +0.000 NA
ATOM     17  C   UNL     1      -0.797  10.683  19.321  0.00  0.00    +0.000 C 
ATOM     18  C   UNL     1      -0.105  11.923  18.704  0.00  0.00    +0.000 C 
BRANCH  13  24
ATOM     19  C   UNL     1      -0.042  15.127  19.600  0.00  0.00    +0.000 A 
ATOM     20  C   UNL     1       0.189  16.423  19.093  0.00  0.00    +0.000 A 
ATOM     21  C   UNL     1       1.361  16.727  18.404  0.00  0.00    +0.000 A 
ATOM     22  C   UNL     1       2.315  15.740  18.226  0.00  0.00    +0.000 A 
ATOM     23  C   UNL     1       2.076  14.441  18.704  0.00  0.00    +0.000 A 
ATOM     24  C   UNL     1       0.885  14.078  19.376  0.00  0.00    +0.000 A 
BRANCH  19  26
ATOM     25  C   UNL     1      -2.030  15.931  20.583  0.00  0.00    +0.000 C 
ATOM     26  O   UNL     1      -1.239  14.809  20.205  0.00  0.00    +0.000 OA
ENDBRANCH  19  26
ENDBRANCH  13  24
ENDBRANCH  12  16
ENDBRANCH   1  12
BRANCH   4  27
ATOM     27  C   UNL     1       1.619   5.310  18.470  0.00  0.00    +0.000 C 
BRANCH  27  28
ATOM     28  N   UNL     1       2.262   4.048  18.887  0.00  0.00    +0.000 N 
ATOM     29  C   UNL     1       2.193   3.682  20.218  0.00  0.00    +0.000 C 
ATOM     30  O   UNL     1       1.396   4.186  21.013  0.00  0.00    +0.000 OA
ATOM     31  C   UNL     1       3.191   2.669  20.719  0.00  0.00    +0.000 C 
ATOM     32  C   UNL     1       4.097   2.041  19.684  0.00  0.00    +0.000 C 
ATOM     33  C   UNL     1       3.554   2.033  18.273  0.00  0.00    +0.000 C 
ATOM     34  C   UNL     1       2.635   3.164  17.887  0.00  0.00    +0.000 C 
ATOM     35  O   UNL     1       2.208   3.233  16.731  0.00  0.00    +0.000 OA
ENDBRANCH  27  28
ENDBRANCH   4  27
TORSDOF 7
ENDMDL
MODEL 7
REMARK VINA RESULT:      -7.6      1.984      3.007
REMARK  Name = 
REMARK  8 active torsions:
REMARK  status: ('A' for Active; 'I' for Inactive)
REMARK    1  A    between atoms: C_1  and  O_2
REMARK    2  A    between atoms: O_2  and  C_3
REMARK    3  A    between atoms: C_8  and  N_9
REMARK    4  A    between atoms: N_12  and  C_13
REMARK    5  A    between atoms: C_13  and  C_14
REMARK    6  A    between atoms: C_17  and  C_18
REMARK    7  A    between atoms: C_17  and  C_27
REMARK    8  A    between atoms: C_18  and  N_19
REMARK                            x       y       z     vdW  Elec       q    Type
REMARK                         _______ _______ _______ _____ _____    ______ ____
ROOT
ATOM      1  C   UNL     1       1.972   7.619  18.552  0.00  0.00    +0.000 C 
ATOM      2  C   UNL     1       2.758   7.323  19.806  0.00  0.00    +0.000 C 
ATOM      3  O   UNL     1       3.659   6.281  19.443  0.00  0.00    +0.000 OA
ATOM      4  C   UNL     1       3.020   5.535  18.391  0.00  0.00    +0.000 C 
ATOM      5  O   UNL     1       1.961   6.356  17.842  0.00  0.00    +0.000 OA
ENDROOT
BRANCH   4   6
ATOM      6  C   UNL     1       2.480   4.185  18.955  0.00  0.00    +0.000 A 
ATOM      7  C   UNL     1       1.678   3.323  18.184  0.00  0.00    +0.000 A 
ATOM      8  C   UNL     1       0.974   2.248  18.772  0.00  0.00    +0.000 A 
ATOM      9  C   UNL     1       1.034   2.014  20.124  0.00  0.00    +0.000 A 
ATOM     10  C   UNL     1       1.864   2.814  20.904  0.00  0.00    +0.000 A 
ATOM     11  C   UNL     1       2.624   3.837  20.313  0.00  0.00    +0.000 A 
ENDBRANCH   4   6
BRANCH   1  12
ATOM     12  C   UNL     1       2.529   8.824  17.703  0.00  0.00    +0.000 C 
BRANCH  12  16
ATOM     13  N   UNL     1       0.371  11.836  19.656  0.00  0.00    +0.000 N 
ATOM     14  C   UNL     1      -0.148  10.473  19.452  0.00  0.00    +0.000 C 
ATOM     15  C   UNL     1       0.275   9.938  18.048  0.00  0.00    +0.000 C 
ATOM     16  N   UNL     1       1.702  10.046  17.666  0.00  0.00    +0.000 NA
ATOM     17  C   UNL     1       2.293  11.312  18.121  0.00  0.00    +0.000 C 
ATOM     18  C   UNL     1       1.812  11.973  19.435  0.00  0.00    +0.000 C 
BRANCH  13  24
ATOM     19  C   UNL     1      -0.577  14.063  20.167  0.00  0.00    +0.000 A 
ATOM     20  C   UNL     1      -1.028  14.994  21.127  0.00  0.00    +0.000 A 
ATOM     21  C   UNL     1      -1.227  14.620  22.453  0.00  0.00    +0.000 A 
ATOM     22  C   UNL     1      -0.989  13.309  22.829  0.00  0.00    +0.000 A 
ATOM     23  C   UNL     1      -0.513  12.385  21.882  0.00  0.00    +0.000 A 
ATOM     24  C   UNL     1      -0.261  12.731  20.534  0.00  0.00    +0.000 A 
BRANCH  19  26
ATOM     25  C   UNL     1      -0.324  15.867  18.668  0.00  0.00    +0.000 C 
ATOM     26  O   UNL     1      -0.300  14.459  18.876  0.00  0.00    +0.000 OA
ENDBRANCH  19  26
ENDBRANCH  13  24
ENDBRANCH  12  16
ENDBRANCH   1  12
BRANCH   4  27
ATOM     27  C   UNL     1       4.065   5.290  17.232  0.00  0.00    +0.000 C 
BRANCH  27  28
ATOM     28  N   UNL     1       5.451   5.670  17.575  0.00  0.00    +0.000 N 
ATOM     29  C   UNL     1       6.154   4.869  18.455  0.00  0.00    +0.000 C 
ATOM     30  O   UNL     1       5.809   3.722  18.743  0.00  0.00    +0.000 OA
ATOM     31  C   UNL     1       7.359   5.468  19.136  0.00  0.00    +0.000 C 
ATOM     32  C   UNL     1       7.770   6.854  18.692  0.00  0.00    +0.000 C 
ATOM     33  C   UNL     1       7.342   7.235  17.293  0.00  0.00    +0.000 C 
ATOM     34  C   UNL     1       6.063   6.625  16.779  0.00  0.00    +0.000 C 
ATOM     35  O   UNL     1       5.641   6.945  15.664  0.00  0.00    +0.000 OA
ENDBRANCH  27  28
ENDBRANCH   4  27
TORSDOF 7
ENDMDL
MODEL 8
REMARK VINA RESULT:      -7.5      2.130      4.015
REMARK  Name = 
REMARK  8 active torsions:
REMARK  status: ('A' for Active; 'I' for Inactive)
REMARK    1  A    between atoms: C_1  and  O_2
REMARK    2  A    between atoms: O_2  and  C_3
REMARK    3  A    between atoms: C_8  and  N_9
REMARK    4  A    between atoms: N_12  and  C_13
REMARK    5  A    between atoms: C_13  and  C_14
REMARK    6  A    between atoms: C_17  and  C_18
REMARK    7  A    between atoms: C_17  and  C_27
REMARK    8  A    between atoms: C_18  and  N_19
REMARK                            x       y       z     vdW  Elec       q    Type
REMARK                         _______ _______ _______ _____ _____    ______ ____
ROOT
ATOM      1  C   UNL     1       2.051   8.823  19.468  0.00  0.00    +0.000 C 
ATOM      2  C   UNL     1       1.898   8.585  17.986  0.00  0.00    +0.000 C 
ATOM      3  O   UNL     1       1.778   7.172  17.846  0.00  0.00    +0.000 OA
ATOM      4  C   UNL     1       2.503   6.590  18.945  0.00  0.00    +0.000 C 
ATOM      5  O   UNL     1       2.688   7.615  19.951  0.00  0.00    +0.000 OA
ENDROOT
BRANCH   4   6
ATOM      6  C   UNL     1       3.862   6.018  18.437  0.00  0.00    +0.000 A 
ATOM      7  C   UNL     1       4.882   5.623  19.322  0.00  0.00    +0.000 A 
ATOM      8  C   UNL     1       6.194   5.364  18.867  0.00  0.00    +0.000 A 
ATOM      9  C   UNL     1       6.528   5.506  17.543  0.00  0.00    +0.000 A 
ATOM     10  C   UNL     1       5.528   5.841  16.634  0.00  0.00    +0.000 A 
ATOM     11  C   UNL     1       4.205   6.026  17.069  0.00  0.00    +0.000 A 
ENDBRANCH   4   6
BRANCH   1  12
ATOM     12  C   UNL     1       0.708   9.179  20.213  0.00  0.00    +0.000 C 
BRANCH  12  16
ATOM     13  N   UNL     1      -1.051  12.187  22.536  0.00  0.00    +0.000 N 
ATOM     14  C   UNL     1      -0.602  12.396  21.149  0.00  0.00    +0.000 C 
ATOM     15  C   UNL     1       0.730  11.624  20.891  0.00  0.00    +0.000 C 
ATOM     16  N   UNL     1       0.791  10.196  21.279  0.00  0.00    +0.000 NA
ATOM     17  C   UNL     1       0.093   9.947  22.547  0.00  0.00    +0.000 C 
ATOM     18  C   UNL     1      -1.153  10.781  22.933  0.00  0.00    +0.000 C 
BRANCH  13  24
ATOM     19  C   UNL     1      -3.272  13.165  23.016  0.00  0.00    +0.000 A 
ATOM     20  C   UNL     1      -4.038  14.238  23.520  0.00  0.00    +0.000 A 
ATOM     21  C   UNL     1      -3.443  15.268  24.245  0.00  0.00    +0.000 A 
ATOM     22  C   UNL     1      -2.080  15.226  24.483  0.00  0.00    +0.000 A 
ATOM     23  C   UNL     1      -1.309  14.175  23.959  0.00  0.00    +0.000 A 
ATOM     24  C   UNL     1      -1.865  13.128  23.186  0.00  0.00    +0.000 A 
BRANCH  19  26
ATOM     25  C   UNL     1      -4.565  12.691  21.100  0.00  0.00    +0.000 C 
ATOM     26  O   UNL     1      -3.851  12.194  22.228  0.00  0.00    +0.000 OA
ENDBRANCH  19  26
ENDBRANCH  13  24
ENDBRANCH  12  16
ENDBRANCH   1  12
BRANCH   4  27
ATOM     27  C   UNL     1       1.617   5.456  19.596  0.00  0.00    +0.000 C 
BRANCH  27  28
ATOM     28  N   UNL     1       2.089   4.084  19.320  0.00  0.00    +0.000 N 
ATOM     29  C   UNL     1       2.540   3.318  20.379  0.00  0.00    +0.000 C 
ATOM     30  O   UNL     1       2.308   3.597  21.557  0.00  0.00    +0.000 OA
ATOM     31  C   UNL     1       3.413   2.130  20.062  0.00  0.00    +0.000 C 
ATOM     32  C   UNL     1       3.607   1.802  18.599  0.00  0.00    +0.000 C 
ATOM     33  C   UNL     1       2.507   2.283  17.680  0.00  0.00    +0.000 C 
ATOM     34  C   UNL     1       1.780   3.541  18.084  0.00  0.00    +0.000 C 
ATOM     35  O   UNL     1       0.910   4.006  17.341  0.00  0.00    +0.000 OA
ENDBRANCH  27  28
ENDBRANCH   4  27
TORSDOF 7
ENDMDL
MODEL 9
REMARK VINA RESULT:      -7.5      1.634      2.712
REMARK  Name = 
REMARK  8 active torsions:
REMARK  status: ('A' for Active; 'I' for Inactive)
REMARK    1  A    between atoms: C_1  and  O_2
REMARK    2  A    between atoms: O_2  and  C_3
REMARK    3  A    between atoms: C_8  and  N_9
REMARK    4  A    between atoms: N_12  and  C_13
REMARK    5  A    between atoms: C_13  and  C_14
REMARK    6  A    between atoms: C_17  and  C_18
REMARK    7  A    between atoms: C_17  and  C_27
REMARK    8  A    between atoms: C_18  and  N_19
REMARK                            x       y       z     vdW  Elec       q    Type
REMARK                         _______ _______ _______ _____ _____    ______ ____
ROOT
ATOM      1  C   UNL     1       1.860   7.582  18.649  0.00  0.00    +0.000 C 
ATOM      2  C   UNL     1       2.704   7.310  19.870  0.00  0.00    +0.000 C 
ATOM      3  O   UNL     1       3.651   6.330  19.456  0.00  0.00    +0.000 OA
ATOM      4  C   UNL     1       3.021   5.567  18.411  0.00  0.00    +0.000 C 
ATOM      5  O   UNL     1       1.897   6.334  17.914  0.00  0.00    +0.000 OA
ENDROOT
BRANCH   4   6
ATOM      6  C   UNL     1       2.579   4.177  18.965  0.00  0.00    +0.000 A 
ATOM      7  C   UNL     1       1.788   3.292  18.211  0.00  0.00    +0.000 A 
ATOM      8  C   UNL     1       1.170   2.167  18.804  0.00  0.00    +0.000 A 
ATOM      9  C   UNL     1       1.307   1.907  20.145  0.00  0.00    +0.000 A 
ATOM     10  C   UNL     1       2.129   2.732  20.906  0.00  0.00    +0.000 A 
ATOM     11  C   UNL     1       2.806   3.808  20.307  0.00  0.00    +0.000 A 
ENDBRANCH   4   6
BRANCH   1  12
ATOM     12  C   UNL     1       2.316   8.834  17.807  0.00  0.00    +0.000 C 
BRANCH  12  16
ATOM     13  N   UNL     1      -0.243  11.387  19.922  0.00  0.00    +0.000 N 
ATOM     14  C   UNL     1      -0.663  10.076  19.397  0.00  0.00    +0.000 C 
ATOM     15  C   UNL     1      -0.014   9.821  18.000  0.00  0.00    +0.000 C 
ATOM     16  N   UNL     1       1.447  10.025  17.866  0.00  0.00    +0.000 NA
ATOM     17  C   UNL     1       1.905  11.194  18.628  0.00  0.00    +0.000 C 
ATOM     18  C   UNL     1       1.206  11.590  19.952  0.00  0.00    +0.000 C 
BRANCH  13  24
ATOM     19  C   UNL     1      -2.246  12.732  20.468  0.00  0.00    +0.000 A 
ATOM     20  C   UNL     1      -2.917  13.593  21.363  0.00  0.00    +0.000 A 
ATOM     21  C   UNL     1      -2.444  13.797  22.656  0.00  0.00    +0.000 A 
ATOM     22  C   UNL     1      -1.302  13.133  23.071  0.00  0.00    +0.000 A 
ATOM     23  C   UNL     1      -0.615  12.296  22.175  0.00  0.00    +0.000 A 
ATOM     24  C   UNL     1      -1.038  12.090  20.841  0.00  0.00    +0.000 A 
BRANCH  19  26
ATOM     25  C   UNL     1      -3.936  11.967  19.011  0.00  0.00    +0.000 C 
ATOM     26  O   UNL     1      -2.670  12.600  19.163  0.00  0.00    +0.000 OA
ENDBRANCH  19  26
ENDBRANCH  13  24
ENDBRANCH  12  16
ENDBRANCH   1  12
BRANCH   4  27
ATOM     27  C   UNL     1       4.037   5.405  17.213  0.00  0.00    +0.000 C 
BRANCH  27  28
ATOM     28  N   UNL     1       5.432   5.756  17.550  0.00  0.00    +0.000 N 
ATOM     29  C   UNL     1       6.148   4.899  18.364  0.00  0.00    +0.000 C 
ATOM     30  O   UNL     1       5.800   3.738  18.589  0.00  0.00    +0.000 OA
ATOM     31  C   UNL     1       7.370   5.448  19.056  0.00  0.00    +0.000 C 
ATOM     32  C   UNL     1       7.781   6.856  18.689  0.00  0.00    +0.000 C 
ATOM     33  C   UNL     1       7.327   7.325  17.325  0.00  0.00    +0.000 C 
ATOM     34  C   UNL     1       6.034   6.754  16.801  0.00  0.00    +0.000 C 
ATOM     35  O   UNL     1       5.592   7.144  15.717  0.00  0.00    +0.000 OA
ENDBRANCH  27  28
ENDBRANCH   4  27
TORSDOF 7
ENDMDL
