MODEL 1
REMARK VINA RESULT:      -8.0      0.000      0.000
REMARK  Name = 
REMARK  3 active torsions:
REMARK  status: ('A' for Active; 'I' for Inactive)
REMARK    1  A    between atoms: C_2  and  C_11
REMARK    2  A    between atoms: N_3  and  N_4
REMARK    3  A    between atoms: C_16  and  N_17
REMARK                            x       y       z     vdW  Elec       q    Type
REMARK                         _______ _______ _______ _____ _____    ______ ____
ROOT
ATOM      1  O   UNL     1       4.075   5.069  17.636  0.00  0.00    +0.000 OA
ATOM      2  C   UNL     1       4.988   4.266  17.521  0.00  0.00    +0.000 C 
ATOM      3  N   UNL     1       5.249   3.270  18.462  0.00  0.00    +0.000 N 
ATOM      4  H   UNL     1       6.200   2.916  18.504  0.00  0.00    +0.000 HD
ENDROOT
BRANCH   3   5
ATOM      5  N   UNL     1       4.611   3.216  19.680  0.00  0.00    +0.000 NA
ATOM      6  C   UNL     1       3.413   2.720  19.828  0.00  0.00    +0.000 C 
ATOM      7  C   UNL     1       2.770   2.855  21.198  0.00  0.00    +0.000 C 
ATOM      8  C   UNL     1       1.436   3.583  21.052  0.00  0.00    +0.000 C 
ATOM      9  C   UNL     1       0.523   2.928  20.010  0.00  0.00    +0.000 C 
ATOM     10  C   UNL     1       1.232   2.765  18.666  0.00  0.00    +0.000 C 
ATOM     11  C   UNL     1       2.540   1.980  18.830  0.00  0.00    +0.000 C 
ENDBRANCH   3   5
BRANCH   2  12
ATOM     12  C   UNL     1       5.822   4.317  16.283  0.00  0.00    +0.000 A 
ATOM     13  C   UNL     1       5.417   3.541  15.176  0.00  0.00    +0.000 A 
ATOM     14  C   UNL     1       5.988   3.737  13.916  0.00  0.00    +0.000 A 
ATOM     15  C   UNL     1       6.952   4.720  13.734  0.00  0.00    +0.000 A 
ATOM     16  C   UNL     1       7.371   5.499  14.814  0.00  0.00    +0.000 A 
ATOM     17  C   UNL     1       6.828   5.303  16.094  0.00  0.00    +0.000 A 
BRANCH  17  18
ATOM     18  N   UNL     1       7.298   6.159  17.145  0.00  0.00    +0.000 N 
ATOM     19  C   UNL     1       7.401   7.538  17.132  0.00  0.00    +0.000 A 
ATOM     20  C   UNL     1       8.096   7.949  18.250  0.00  0.00    +0.000 A 
ATOM     21  C   UNL     1       8.292   6.810  19.056  0.00  0.00    +0.000 A 
ATOM     22  C   UNL     1       7.738   5.738  18.389  0.00  0.00    +0.000 A 
ENDBRANCH  17  18
ENDBRANCH   2  12
TORSDOF 3
ENDMDL
MODEL 2
REMARK VINA RESULT:      -7.6      1.326      1.647
REMARK  Name = 
REMARK  3 active torsions:
REMARK  status: ('A' for Active; 'I' for Inactive)
REMARK    1  A    between atoms: C_2  and  C_11
REMARK    2  A    between atoms: N_3  and  N_4
REMARK    3  A    between atoms: C_16  and  N_17
REMARK                            x       y       z     vdW  Elec       q    Type
REMARK                         _______ _______ _______ _____ _____    ______ ____
ROOT
ATOM      1  O   UNL     1       4.194   6.250  17.107  0.00  0.00    +0.000 OA
ATOM      2  C   UNL     1       4.207   5.101  16.694  0.00  0.00    +0.000 C 
ATOM      3  N   UNL     1       3.233   4.160  17.030  0.00  0.00    +0.000 N 
ATOM      4  H   UNL     1       3.503   3.183  16.980  0.00  0.00    +0.000 HD
ENDROOT
BRANCH   3   5
ATOM      5  N   UNL     1       2.275   4.396  17.989  0.00  0.00    +0.000 NA
ATOM      6  C   UNL     1       2.482   4.184  19.260  0.00  0.00    +0.000 C 
ATOM      7  C   UNL     1       1.293   4.347  20.194  0.00  0.00    +0.000 C 
ATOM      8  C   UNL     1       1.088   3.046  20.968  0.00  0.00    +0.000 C 
ATOM      9  C   UNL     1       2.363   2.580  21.677  0.00  0.00    +0.000 C 
ATOM     10  C   UNL     1       3.541   2.485  20.708  0.00  0.00    +0.000 C 
ATOM     11  C   UNL     1       3.764   3.820  19.986  0.00  0.00    +0.000 C 
ENDBRANCH   3   5
BRANCH   2  12
ATOM     12  C   UNL     1       5.281   4.707  15.735  0.00  0.00    +0.000 A 
ATOM     13  C   UNL     1       4.897   4.144  14.500  0.00  0.00    +0.000 A 
ATOM     14  C   UNL     1       5.819   3.998  13.461  0.00  0.00    +0.000 A 
ATOM     15  C   UNL     1       7.129   4.428  13.627  0.00  0.00    +0.000 A 
ATOM     16  C   UNL     1       7.534   4.986  14.840  0.00  0.00    +0.000 A 
ATOM     17  C   UNL     1       6.630   5.121  15.906  0.00  0.00    +0.000 A 
BRANCH  17  18
ATOM     18  N   UNL     1       7.122   5.723  17.112  0.00  0.00    +0.000 N 
ATOM     19  C   UNL     1       7.453   7.049  17.323  0.00  0.00    +0.000 A 
ATOM     20  C   UNL     1       8.084   7.168  18.543  0.00  0.00    +0.000 A 
ATOM     21  C   UNL     1       8.002   5.911  19.174  0.00  0.00    +0.000 A 
ATOM     22  C   UNL     1       7.351   5.060  18.306  0.00  0.00    +0.000 A 
ENDBRANCH  17  18
ENDBRANCH   2  12
TORSDOF 3
ENDMDL
MODEL 3
REMARK VINA RESULT:      -7.4      4.255      6.195
REMARK  Name = 
REMARK  3 active torsions:
REMARK  status: ('A' for Active; 'I' for Inactive)
REMARK    1  A    between atoms: C_2  and  C_11
REMARK    2  A    between atoms: N_3  and  N_4
REMARK    3  A    between atoms: C_16  and  N_17
REMARK                            x       y       z     vdW  Elec       q    Type
REMARK                         _______ _______ _______ _____ _____    ______ ____
ROOT
ATOM      1  O   UNL     1       2.196   6.441  18.425  0.00  0.00    +0.000 OA
ATOM      2  C   UNL     1       2.316   6.270  19.629  0.00  0.00    +0.000 C 
ATOM      3  N   UNL     1       1.925   7.217  20.575  0.00  0.00    +0.000 N 
ATOM      4  H   UNL     1       2.389   7.183  21.477  0.00  0.00    +0.000 HD
ENDROOT
BRANCH   3   5
ATOM      5  N   UNL     1       1.531   8.490  20.230  0.00  0.00    +0.000 NA
ATOM      6  C   UNL     1       1.157   9.376  21.112  0.00  0.00    +0.000 C 
ATOM      7  C   UNL     1       0.610  10.693  20.586  0.00  0.00    +0.000 C 
ATOM      8  C   UNL     1      -0.792  10.910  21.151  0.00  0.00    +0.000 C 
ATOM      9  C   UNL     1      -0.830  10.800  22.679  0.00  0.00    +0.000 C 
ATOM     10  C   UNL     1      -0.219   9.485  23.162  0.00  0.00    +0.000 C 
ATOM     11  C   UNL     1       1.209   9.317  22.629  0.00  0.00    +0.000 C 
ENDBRANCH   3   5
BRANCH   2  12
ATOM     12  C   UNL     1       2.849   4.959  20.107  0.00  0.00    +0.000 A 
ATOM     13  C   UNL     1       2.148   4.290  21.132  0.00  0.00    +0.000 A 
ATOM     14  C   UNL     1       2.431   2.958  21.442  0.00  0.00    +0.000 A 
ATOM     15  C   UNL     1       3.399   2.267  20.725  0.00  0.00    +0.000 A 
ATOM     16  C   UNL     1       4.107   2.907  19.707  0.00  0.00    +0.000 A 
ATOM     17  C   UNL     1       3.855   4.253  19.395  0.00  0.00    +0.000 A 
BRANCH  17  18
ATOM     18  N   UNL     1       4.614   4.830  18.322  0.00  0.00    +0.000 N 
ATOM     19  C   UNL     1       5.650   5.742  18.411  0.00  0.00    +0.000 A 
ATOM     20  C   UNL     1       5.958   6.200  17.147  0.00  0.00    +0.000 A 
ATOM     21  C   UNL     1       5.202   5.436  16.236  0.00  0.00    +0.000 A 
ATOM     22  C   UNL     1       4.436   4.560  16.975  0.00  0.00    +0.000 A 
ENDBRANCH  17  18
ENDBRANCH   2  12
TORSDOF 3
ENDMDL
MODEL 4
REMARK VINA RESULT:      -7.3      4.286      5.961
REMARK  Name = 
REMARK  3 active torsions:
REMARK  status: ('A' for Active; 'I' for Inactive)
REMARK    1  A    between atoms: C_2  and  C_11
REMARK    2  A    between atoms: N_3  and  N_4
REMARK    3  A    between atoms: C_16  and  N_17
REMARK                            x       y       z     vdW  Elec       q    Type
REMARK                         _______ _______ _______ _____ _____    ______ ____
ROOT
ATOM      1  O   UNL     1       3.652   5.812  19.863  0.00  0.00    +0.000 OA
ATOM      2  C   UNL     1       3.400   6.326  18.783  0.00  0.00    +0.000 C 
ATOM      3  N   UNL     1       2.590   7.454  18.648  0.00  0.00    +0.000 N 
ATOM      4  H   UNL     1       2.128   7.581  17.754  0.00  0.00    +0.000 HD
ENDROOT
BRANCH   3   5
ATOM      5  N   UNL     1       1.869   7.979  19.696  0.00  0.00    +0.000 NA
ATOM      6  C   UNL     1       1.164   9.071  19.590  0.00  0.00    +0.000 C 
ATOM      7  C   UNL     1       0.534   9.618  20.861  0.00  0.00    +0.000 C 
ATOM      8  C   UNL     1       1.006  11.056  21.070  0.00  0.00    +0.000 C 
ATOM      9  C   UNL     1       0.763  11.936  19.839  0.00  0.00    +0.000 C 
ATOM     10  C   UNL     1       1.366  11.317  18.578  0.00  0.00    +0.000 C 
ATOM     11  C   UNL     1       0.833   9.896  18.359  0.00  0.00    +0.000 C 
ENDBRANCH   3   5
BRANCH   2  12
ATOM     12  C   UNL     1       4.042   5.755  17.562  0.00  0.00    +0.000 A 
ATOM     13  C   UNL     1       5.038   6.516  16.916  0.00  0.00    +0.000 A 
ATOM     14  C   UNL     1       5.857   5.944  15.939  0.00  0.00    +0.000 A 
ATOM     15  C   UNL     1       5.710   4.604  15.605  0.00  0.00    +0.000 A 
ATOM     16  C   UNL     1       4.730   3.831  16.229  0.00  0.00    +0.000 A 
ATOM     17  C   UNL     1       3.881   4.391  17.197  0.00  0.00    +0.000 A 
BRANCH  17  18
ATOM     18  N   UNL     1       2.913   3.522  17.803  0.00  0.00    +0.000 N 
ATOM     19  C   UNL     1       1.540   3.683  17.848  0.00  0.00    +0.000 A 
ATOM     20  C   UNL     1       1.004   2.744  18.704  0.00  0.00    +0.000 A 
ATOM     21  C   UNL     1       2.052   1.879  19.076  0.00  0.00    +0.000 A 
ATOM     22  C   UNL     1       3.198   2.336  18.461  0.00  0.00    +0.000 A 
ENDBRANCH  17  18
ENDBRANCH   2  12
TORSDOF 3
ENDMDL
MODEL 5
REMARK VINA RESULT:      -7.3      4.053      6.089
REMARK  Name = 
REMARK  3 active torsions:
REMARK  status: ('A' for Active; 'I' for Inactive)
REMARK    1  A    between atoms: C_2  and  C_11
REMARK    2  A    between atoms: N_3  and  N_4
REMARK    3  A    between atoms: C_16  and  N_17
REMARK                            x       y       z     vdW  Elec       q    Type
REMARK                         _______ _______ _______ _____ _____    ______ ____
ROOT
ATOM      1  O   UNL     1       1.772   5.392  17.971  0.00  0.00    +0.000 OA
ATOM      2  C   UNL     1       2.323   5.658  19.028  0.00  0.00    +0.000 C 
ATOM      3  N   UNL     1       2.471   6.962  19.501  0.00  0.00    +0.000 N 
ATOM      4  H   UNL     1       3.238   7.132  20.145  0.00  0.00    +0.000 HD
ENDROOT
BRANCH   3   5
ATOM      5  N   UNL     1       2.166   8.067  18.739  0.00  0.00    +0.000 NA
ATOM      6  C   UNL     1       1.516   9.094  19.213  0.00  0.00    +0.000 C 
ATOM      7  C   UNL     1       1.119  10.180  18.227  0.00  0.00    +0.000 C 
ATOM      8  C   UNL     1      -0.395  10.378  18.289  0.00  0.00    +0.000 C 
ATOM      9  C   UNL     1      -0.893  10.634  19.715  0.00  0.00    +0.000 C 
ATOM     10  C   UNL     1      -0.423   9.546  20.678  0.00  0.00    +0.000 C 
ATOM     11  C   UNL     1       1.105   9.406  20.641  0.00  0.00    +0.000 C 
ENDBRANCH   3   5
BRANCH   2  12
ATOM     12  C   UNL     1       2.801   4.529  19.881  0.00  0.00    +0.000 A 
ATOM     13  C   UNL     1       1.998   4.132  20.970  0.00  0.00    +0.000 A 
ATOM     14  C   UNL     1       2.244   2.932  21.642  0.00  0.00    +0.000 A 
ATOM     15  C   UNL     1       3.279   2.103  21.229  0.00  0.00    +0.000 A 
ATOM     16  C   UNL     1       4.088   2.475  20.155  0.00  0.00    +0.000 A 
ATOM     17  C   UNL     1       3.873   3.687  19.480  0.00  0.00    +0.000 A 
BRANCH  17  18
ATOM     18  N   UNL     1       4.738   3.985  18.374  0.00  0.00    +0.000 N 
ATOM     19  C   UNL     1       5.901   4.734  18.386  0.00  0.00    +0.000 A 
ATOM     20  C   UNL     1       6.308   4.956  17.087  0.00  0.00    +0.000 A 
ATOM     21  C   UNL     1       5.464   4.194  16.255  0.00  0.00    +0.000 A 
ATOM     22  C   UNL     1       4.553   3.557  17.070  0.00  0.00    +0.000 A 
ENDBRANCH  17  18
ENDBRANCH   2  12
TORSDOF 3
ENDMDL
MODEL 6
REMARK VINA RESULT:      -7.1      4.347      6.324
REMARK  Name = 
REMARK  3 active torsions:
REMARK  status: ('A' for Active; 'I' for Inactive)
REMARK    1  A    between atoms: C_2  and  C_11
REMARK    2  A    between atoms: N_3  and  N_4
REMARK    3  A    between atoms: C_16  and  N_17
REMARK                            x       y       z     vdW  Elec       q    Type
REMARK                         _______ _______ _______ _____ _____    ______ ____
ROOT
ATOM      1  O   UNL     1       2.150   6.648  18.500  0.00  0.00    +0.000 OA
ATOM      2  C   UNL     1       2.090   6.366  19.687  0.00  0.00    +0.000 C 
ATOM      3  N   UNL     1       1.727   7.287  20.670  0.00  0.00    +0.000 N 
ATOM      4  H   UNL     1       2.062   7.108  21.611  0.00  0.00    +0.000 HD
ENDROOT
BRANCH   3   5
ATOM      5  N   UNL     1       1.574   8.629  20.409  0.00  0.00    +0.000 NA
ATOM      6  C   UNL     1       1.143   9.477  21.302  0.00  0.00    +0.000 C 
ATOM      7  C   UNL     1       0.884  10.901  20.839  0.00  0.00    +0.000 C 
ATOM      8  C   UNL     1      -0.565  11.269  21.151  0.00  0.00    +0.000 C 
ATOM      9  C   UNL     1      -0.925  11.029  22.621  0.00  0.00    +0.000 C 
ATOM     10  C   UNL     1      -0.596   9.601  23.054  0.00  0.00    +0.000 C 
ATOM     11  C   UNL     1       0.879   9.275  22.783  0.00  0.00    +0.000 C 
ENDBRANCH   3   5
BRANCH   2  12
ATOM     12  C   UNL     1       2.357   4.954  20.092  0.00  0.00    +0.000 A 
ATOM     13  C   UNL     1       1.366   4.277  20.835  0.00  0.00    +0.000 A 
ATOM     14  C   UNL     1       1.430   2.893  21.020  0.00  0.00    +0.000 A 
ATOM     15  C   UNL     1       2.465   2.162  20.452  0.00  0.00    +0.000 A 
ATOM     16  C   UNL     1       3.458   2.809  19.715  0.00  0.00    +0.000 A 
ATOM     17  C   UNL     1       3.427   4.202  19.537  0.00  0.00    +0.000 A 
BRANCH  17  18
ATOM     18  N   UNL     1       4.474   4.786  18.749  0.00  0.00    +0.000 N 
ATOM     19  C   UNL     1       4.551   4.874  17.371  0.00  0.00    +0.000 A 
ATOM     20  C   UNL     1       5.810   5.309  17.015  0.00  0.00    +0.000 A 
ATOM     21  C   UNL     1       6.479   5.652  18.207  0.00  0.00    +0.000 A 
ATOM     22  C   UNL     1       5.619   5.385  19.251  0.00  0.00    +0.000 A 
ENDBRANCH  17  18
ENDBRANCH   2  12
TORSDOF 3
ENDMDL
MODEL 7
REMARK VINA RESULT:      -7.1      0.910      1.305
REMARK  Name = 
REMARK  3 active torsions:
REMARK  status: ('A' for Active; 'I' for Inactive)
REMARK    1  A    between atoms: C_2  and  C_11
REMARK    2  A    between atoms: N_3  and  N_4
REMARK    3  A    between atoms: C_16  and  N_17
REMARK                            x       y       z     vdW  Elec       q    Type
REMARK                         _______ _______ _______ _____ _____    ______ ____
ROOT
ATOM      1  O   UNL     1       4.578   4.748  17.941  0.00  0.00    +0.000 OA
ATOM      2  C   UNL     1       4.872   3.761  17.285  0.00  0.00    +0.000 C 
ATOM      3  N   UNL     1       4.460   2.471  17.625  0.00  0.00    +0.000 N 
ATOM      4  H   UNL     1       5.033   1.704  17.288  0.00  0.00    +0.000 HD
ENDROOT
BRANCH   3   5
ATOM      5  N   UNL     1       3.836   2.182  18.816  0.00  0.00    +0.000 NA
ATOM      6  C   UNL     1       2.643   2.620  19.112  0.00  0.00    +0.000 C 
ATOM      7  C   UNL     1       2.132   2.348  20.517  0.00  0.00    +0.000 C 
ATOM      8  C   UNL     1       1.764   3.675  21.179  0.00  0.00    +0.000 C 
ATOM      9  C   UNL     1       0.798   4.504  20.327  0.00  0.00    +0.000 C 
ATOM     10  C   UNL     1       1.330   4.704  18.908  0.00  0.00    +0.000 C 
ATOM     11  C   UNL     1       1.637   3.355  18.245  0.00  0.00    +0.000 C 
ENDBRANCH   3   5
BRANCH   2  12
ATOM     12  C   UNL     1       5.656   3.954  16.030  0.00  0.00    +0.000 A 
ATOM     13  C   UNL     1       5.129   3.431  14.830  0.00  0.00    +0.000 A 
ATOM     14  C   UNL     1       5.665   3.796  13.592  0.00  0.00    +0.000 A 
ATOM     15  C   UNL     1       6.718   4.701  13.529  0.00  0.00    +0.000 A 
ATOM     16  C   UNL     1       7.257   5.230  14.702  0.00  0.00    +0.000 A 
ATOM     17  C   UNL     1       6.749   4.859  15.958  0.00  0.00    +0.000 A 
BRANCH  17  18
ATOM     18  N   UNL     1       7.348   5.464  17.113  0.00  0.00    +0.000 N 
ATOM     19  C   UNL     1       7.876   4.831  18.224  0.00  0.00    +0.000 A 
ATOM     20  C   UNL     1       8.152   5.774  19.192  0.00  0.00    +0.000 A 
ATOM     21  C   UNL     1       7.937   7.038  18.609  0.00  0.00    +0.000 A 
ATOM     22  C   UNL     1       7.508   6.825  17.316  0.00  0.00    +0.000 A 
ENDBRANCH  17  18
ENDBRANCH   2  12
TORSDOF 3
ENDMDL
MODEL 8
REMARK VINA RESULT:      -6.9      4.241      5.504
REMARK  Name = 
REMARK  3 active torsions:
REMARK  status: ('A' for Active; 'I' for Inactive)
REMARK    1  A    between atoms: C_2  and  C_11
REMARK    2  A    between atoms: N_3  and  N_4
REMARK    3  A    between atoms: C_16  and  N_17
REMARK                            x       y       z     vdW  Elec       q    Type
REMARK                         _______ _______ _______ _____ _____    ______ ____
ROOT
ATOM      1  O   UNL     1       3.955   6.738  17.080  0.00  0.00    +0.000 OA
ATOM      2  C   UNL     1       3.059   6.360  17.819  0.00  0.00    +0.000 C 
ATOM      3  N   UNL     1       2.055   7.206  18.291  0.00  0.00    +0.000 N 
ATOM      4  H   UNL     1       1.604   6.941  19.161  0.00  0.00    +0.000 HD
ENDROOT
BRANCH   3   5
ATOM      5  N   UNL     1       2.086   8.570  18.106  0.00  0.00    +0.000 NA
ATOM      6  C   UNL     1       1.588   9.411  18.971  0.00  0.00    +0.000 C 
ATOM      7  C   UNL     1       1.559  10.878  18.575  0.00  0.00    +0.000 C 
ATOM      8  C   UNL     1       0.121  11.386  18.658  0.00  0.00    +0.000 C 
ATOM      9  C   UNL     1      -0.520  11.108  20.021  0.00  0.00    +0.000 C 
ATOM     10  C   UNL     1      -0.417   9.631  20.400  0.00  0.00    +0.000 C 
ATOM     11  C   UNL     1       1.043   9.159  20.365  0.00  0.00    +0.000 C 
ENDBRANCH   3   5
BRANCH   2  12
ATOM     12  C   UNL     1       3.004   4.913  18.180  0.00  0.00    +0.000 A 
ATOM     13  C   UNL     1       1.748   4.270  18.161  0.00  0.00    +0.000 A 
ATOM     14  C   UNL     1       1.654   2.878  18.229  0.00  0.00    +0.000 A 
ATOM     15  C   UNL     1       2.807   2.105  18.294  0.00  0.00    +0.000 A 
ATOM     16  C   UNL     1       4.060   2.717  18.315  0.00  0.00    +0.000 A 
ATOM     17  C   UNL     1       4.177   4.116  18.273  0.00  0.00    +0.000 A 
BRANCH  17  18
ATOM     18  N   UNL     1       5.503   4.665  18.280  0.00  0.00    +0.000 N 
ATOM     19  C   UNL     1       6.155   5.294  19.325  0.00  0.00    +0.000 A 
ATOM     20  C   UNL     1       7.322   5.859  18.854  0.00  0.00    +0.000 A 
ATOM     21  C   UNL     1       7.476   5.435  17.519  0.00  0.00    +0.000 A 
ATOM     22  C   UNL     1       6.384   4.652  17.210  0.00  0.00    +0.000 A 
ENDBRANCH  17  18
ENDBRANCH   2  12
TORSDOF 3
ENDMDL
MODEL 9
REMARK VINA RESULT:      -6.9      4.197      5.664
REMARK  Name = 
REMARK  3 active torsions:
REMARK  status: ('A' for Active; 'I' for Inactive)
REMARK    1  A    between atoms: C_2  and  C_11
REMARK    2  A    between atoms: N_3  and  N_4
REMARK    3  A    between atoms: C_16  and  N_17
REMARK                            x       y       z     vdW  Elec       q    Type
REMARK                         _______ _______ _______ _____ _____    ______ ____
ROOT
ATOM      1  O   UNL     1       4.188   6.832  18.042  0.00  0.00    +0.000 OA
ATOM      2  C   UNL     1       3.054   6.378  18.078  0.00  0.00    +0.000 C 
ATOM      3  N   UNL     1       1.915   7.158  17.877  0.00  0.00    +0.000 N 
ATOM      4  H   UNL     1       1.051   6.821  18.289  0.00  0.00    +0.000 HD
ENDROOT
BRANCH   3   5
ATOM      5  N   UNL     1       1.962   8.530  17.794  0.00  0.00    +0.000 NA
ATOM      6  C   UNL     1       1.590   9.310  18.772  0.00  0.00    +0.000 C 
ATOM      7  C   UNL     1       1.555  10.804  18.496  0.00  0.00    +0.000 C 
ATOM      8  C   UNL     1       0.151  11.330  18.786  0.00  0.00    +0.000 C 
ATOM      9  C   UNL     1      -0.335  10.957  20.190  0.00  0.00    +0.000 C 
ATOM     10  C   UNL     1      -0.229   9.453  20.440  0.00  0.00    +0.000 C 
ATOM     11  C   UNL     1       1.203   8.959  20.198  0.00  0.00    +0.000 C 
ENDBRANCH   3   5
BRANCH   2  12
ATOM     12  C   UNL     1       2.888   4.908  18.284  0.00  0.00    +0.000 A 
ATOM     13  C   UNL     1       1.682   4.448  18.853  0.00  0.00    +0.000 A 
ATOM     14  C   UNL     1       1.351   3.091  18.832  0.00  0.00    +0.000 A 
ATOM     15  C   UNL     1       2.204   2.176  18.228  0.00  0.00    +0.000 A 
ATOM     16  C   UNL     1       3.404   2.606  17.661  0.00  0.00    +0.000 A 
ATOM     17  C   UNL     1       3.767   3.963  17.691  0.00  0.00    +0.000 A 
BRANCH  17  18
ATOM     18  N   UNL     1       5.008   4.323  17.068  0.00  0.00    +0.000 N 
ATOM     19  C   UNL     1       5.240   4.586  15.729  0.00  0.00    +0.000 A 
ATOM     20  C   UNL     1       6.599   4.682  15.516  0.00  0.00    +0.000 A 
ATOM     21  C   UNL     1       7.218   4.634  16.781  0.00  0.00    +0.000 A 
ATOM     22  C   UNL     1       6.220   4.480  17.720  0.00  0.00    +0.000 A 
ENDBRANCH  17  18
ENDBRANCH   2  12
TORSDOF 3
ENDMDL
