MODEL 1
REMARK VINA RESULT:      -8.8      0.000      0.000
REMARK  Name = 
REMARK  6 active torsions:
REMARK  status: ('A' for Active; 'I' for Inactive)
REMARK    1  A    between atoms: C_1  and  O_2
REMARK    2  A    between atoms: O_2  and  C_3
REMARK    3  A    between atoms: C_6  and  N_7
REMARK    4  A    between atoms: N_7  and  C_8
REMARK    5  A    between atoms: C_13  and  C_14
REMARK    6  A    between atoms: C_16  and  C_17
REMARK                            x       y       z     vdW  Elec       q    Type
REMARK                         _______ _______ _______ _____ _____    ______ ____
ROOT
ATOM      1  C   UNL     1       2.801   4.787  19.144  0.00  0.00    +0.000 A 
ATOM      2  N   UNL     1       1.631   4.390  19.713  0.00  0.00    +0.000 NA
ATOM      3  C   UNL     1       1.099   3.201  19.384  0.00  0.00    +0.000 A 
ATOM      4  C   UNL     1       1.658   2.361  18.452  0.00  0.00    +0.000 A 
ATOM      5  C   UNL     1       2.845   2.766  17.853  0.00  0.00    +0.000 A 
ATOM      6  C   UNL     1       3.471   3.985  18.195  0.00  0.00    +0.000 A 
ENDROOT
BRANCH   6   7
ATOM      7  C   UNL     1       4.751   4.317  17.553  0.00  0.00    +0.000 A 
ATOM      8  N   UNL     1       4.901   4.047  16.218  0.00  0.00    +0.000 NA
ATOM      9  C   UNL     1       6.099   4.261  15.620  0.00  0.00    +0.000 A 
ATOM     10  C   UNL     1       6.198   3.940  14.160  0.00  0.00    +0.000 C 
ATOM     11  N   UNL     1       7.225   4.709  16.218  0.00  0.00    +0.000 NA
ATOM     12  C   UNL     1       7.034   4.941  17.522  0.00  0.00    +0.000 A 
ATOM     13  N   UNL     1       7.968   5.368  18.418  0.00  0.00    +0.000 N 
ATOM     14  C   UNL     1       7.361   5.456  19.640  0.00  0.00    +0.000 A 
ATOM     15  N   UNL     1       6.089   5.120  19.579  0.00  0.00    +0.000 NA
ATOM     16  C   UNL     1       5.870   4.781  18.255  0.00  0.00    +0.000 A 
ATOM     17  H   UNL     1       8.936   5.565  18.206  0.00  0.00    +0.000 HD
ENDBRANCH   6   7
BRANCH   1  18
ATOM     18  N   UNL     1       3.252   6.100  19.450  0.00  0.00    +0.000 N 
ATOM     19  H   UNL     1       3.583   6.107  20.422  0.00  0.00    +0.000 HD
BRANCH  18  23
ATOM     20  C   UNL     1       1.177   9.578  18.648  0.00  0.00    +0.000 A 
ATOM     21  N   UNL     1       1.095   9.112  19.897  0.00  0.00    +0.000 NA
ATOM     22  C   UNL     1       1.789   7.980  20.146  0.00  0.00    +0.000 A 
ATOM     23  C   UNL     1       2.524   7.282  19.203  0.00  0.00    +0.000 A 
ATOM     24  C   UNL     1       2.579   7.911  17.973  0.00  0.00    +0.000 A 
ATOM     25  N   UNL     1       1.917   9.047  17.659  0.00  0.00    +0.000 NA
BRANCH  20  27
ATOM     26  C   UNL     1      -0.968  10.273  18.119  0.00  0.00    +0.000 C 
ATOM     27  O   UNL     1       0.369  10.663  18.389  0.00  0.00    +0.000 OA
ENDBRANCH  20  27
ENDBRANCH  18  23
ENDBRANCH   1  18
TORSDOF 4
ENDMDL
MODEL 2
REMARK VINA RESULT:      -8.7      0.718      2.282
REMARK  Name = 
REMARK  6 active torsions:
REMARK  status: ('A' for Active; 'I' for Inactive)
REMARK    1  A    between atoms: C_1  and  O_2
REMARK    2  A    between atoms: O_2  and  C_3
REMARK    3  A    between atoms: C_6  and  N_7
REMARK    4  A    between atoms: N_7  and  C_8
REMARK    5  A    between atoms: C_13  and  C_14
REMARK    6  A    between atoms: C_16  and  C_17
REMARK                            x       y       z     vdW  Elec       q    Type
REMARK                         _______ _______ _______ _____ _____    ______ ____
ROOT
ATOM      1  C   UNL     1       3.006   4.564  19.150  0.00  0.00    +0.000 A 
ATOM      2  N   UNL     1       1.778   4.051  19.432  0.00  0.00    +0.000 NA
ATOM      3  C   UNL     1       1.403   2.880  18.889  0.00  0.00    +0.000 A 
ATOM      4  C   UNL     1       2.189   2.175  18.011  0.00  0.00    +0.000 A 
ATOM      5  C   UNL     1       3.439   2.700  17.703  0.00  0.00    +0.000 A 
ATOM      6  C   UNL     1       3.901   3.903  18.281  0.00  0.00    +0.000 A 
ENDROOT
BRANCH   6   7
ATOM      7  C   UNL     1       5.256   4.364  17.944  0.00  0.00    +0.000 A 
ATOM      8  N   UNL     1       6.081   4.762  18.962  0.00  0.00    +0.000 NA
ATOM      9  C   UNL     1       7.303   5.275  18.674  0.00  0.00    +0.000 A 
ATOM     10  C   UNL     1       8.155   5.696  19.832  0.00  0.00    +0.000 C 
ATOM     11  N   UNL     1       7.820   5.470  17.441  0.00  0.00    +0.000 NA
ATOM     12  C   UNL     1       6.972   5.084  16.481  0.00  0.00    +0.000 A 
ATOM     13  N   UNL     1       7.169   5.173  15.135  0.00  0.00    +0.000 N 
ATOM     14  C   UNL     1       6.050   4.686  14.518  0.00  0.00    +0.000 A 
ATOM     15  N   UNL     1       5.150   4.280  15.390  0.00  0.00    +0.000 NA
ATOM     16  C   UNL     1       5.709   4.535  16.630  0.00  0.00    +0.000 A 
ATOM     17  H   UNL     1       7.994   5.547  14.688  0.00  0.00    +0.000 HD
ENDBRANCH   6   7
BRANCH   1  18
ATOM     18  N   UNL     1       3.297   5.856  19.666  0.00  0.00    +0.000 N 
ATOM     19  H   UNL     1       3.331   5.791  20.691  0.00  0.00    +0.000 HD
BRANCH  18  23
ATOM     20  C   UNL     1       1.399   9.338  18.521  0.00  0.00    +0.000 A 
ATOM     21  N   UNL     1       1.209   8.946  19.784  0.00  0.00    +0.000 NA
ATOM     22  C   UNL     1       1.847   7.811  20.145  0.00  0.00    +0.000 A 
ATOM     23  C   UNL     1       2.628   7.041  19.301  0.00  0.00    +0.000 A 
ATOM     24  C   UNL     1       2.794   7.598  18.046  0.00  0.00    +0.000 A 
ATOM     25  N   UNL     1       2.193   8.732  17.621  0.00  0.00    +0.000 NA
BRANCH  20  27
ATOM     26  C   UNL     1      -0.429  10.664  19.037  0.00  0.00    +0.000 C 
ATOM     27  O   UNL     1       0.646  10.428  18.142  0.00  0.00    +0.000 OA
ENDBRANCH  20  27
ENDBRANCH  18  23
ENDBRANCH   1  18
TORSDOF 4
ENDMDL
MODEL 3
REMARK VINA RESULT:      -8.5      0.559      1.115
REMARK  Name = 
REMARK  6 active torsions:
REMARK  status: ('A' for Active; 'I' for Inactive)
REMARK    1  A    between atoms: C_1  and  O_2
REMARK    2  A    between atoms: O_2  and  C_3
REMARK    3  A    between atoms: C_6  and  N_7
REMARK    4  A    between atoms: N_7  and  C_8
REMARK    5  A    between atoms: C_13  and  C_14
REMARK    6  A    between atoms: C_16  and  C_17
REMARK                            x       y       z     vdW  Elec       q    Type
REMARK                         _______ _______ _______ _____ _____    ______ ____
ROOT
ATOM      1  C   UNL     1       2.844   4.882  18.931  0.00  0.00    +0.000 A 
ATOM      2  N   UNL     1       1.672   4.510  19.512  0.00  0.00    +0.000 NA
ATOM      3  C   UNL     1       1.131   3.315  19.221  0.00  0.00    +0.000 A 
ATOM      4  C   UNL     1       1.684   2.443  18.315  0.00  0.00    +0.000 A 
ATOM      5  C   UNL     1       2.873   2.821  17.703  0.00  0.00    +0.000 A 
ATOM      6  C   UNL     1       3.508   4.046  18.007  0.00  0.00    +0.000 A 
ENDROOT
BRANCH   6   7
ATOM      7  C   UNL     1       4.790   4.349  17.354  0.00  0.00    +0.000 A 
ATOM      8  N   UNL     1       4.921   4.082  16.017  0.00  0.00    +0.000 NA
ATOM      9  C   UNL     1       6.118   4.269  15.409  0.00  0.00    +0.000 A 
ATOM     10  C   UNL     1       6.195   3.953  13.946  0.00  0.00    +0.000 C 
ATOM     11  N   UNL     1       7.260   4.686  15.998  0.00  0.00    +0.000 NA
ATOM     12  C   UNL     1       7.087   4.916  17.305  0.00  0.00    +0.000 A 
ATOM     13  N   UNL     1       8.040   5.316  18.194  0.00  0.00    +0.000 N 
ATOM     14  C   UNL     1       7.447   5.413  19.422  0.00  0.00    +0.000 A 
ATOM     15  N   UNL     1       6.166   5.109  19.371  0.00  0.00    +0.000 NA
ATOM     16  C   UNL     1       5.927   4.782  18.048  0.00  0.00    +0.000 A 
ATOM     17  H   UNL     1       9.011   5.491  17.973  0.00  0.00    +0.000 HD
ENDBRANCH   6   7
BRANCH   1  18
ATOM     18  N   UNL     1       3.304   6.200  19.196  0.00  0.00    +0.000 N 
ATOM     19  H   UNL     1       3.770   6.199  20.111  0.00  0.00    +0.000 HD
BRANCH  18  23
ATOM     20  C   UNL     1       0.970   9.596  18.941  0.00  0.00    +0.000 A 
ATOM     21  N   UNL     1       1.504   9.155  17.799  0.00  0.00    +0.000 NA
ATOM     22  C   UNL     1       2.254   8.036  17.898  0.00  0.00    +0.000 A 
ATOM     23  C   UNL     1       2.522   7.367  19.080  0.00  0.00    +0.000 A 
ATOM     24  C   UNL     1       1.853   7.891  20.171  0.00  0.00    +0.000 A 
ATOM     25  N   UNL     1       1.081   9.000  20.141  0.00  0.00    +0.000 NA
BRANCH  20  27
ATOM     26  C   UNL     1       0.701  11.709  19.851  0.00  0.00    +0.000 C 
ATOM     27  O   UNL     1       0.309  10.800  18.835  0.00  0.00    +0.000 OA
ENDBRANCH  20  27
ENDBRANCH  18  23
ENDBRANCH   1  18
TORSDOF 4
ENDMDL
MODEL 4
REMARK VINA RESULT:      -8.5      1.310      2.616
REMARK  Name = 
REMARK  6 active torsions:
REMARK  status: ('A' for Active; 'I' for Inactive)
REMARK    1  A    between atoms: C_1  and  O_2
REMARK    2  A    between atoms: O_2  and  C_3
REMARK    3  A    between atoms: C_6  and  N_7
REMARK    4  A    between atoms: N_7  and  C_8
REMARK    5  A    between atoms: C_13  and  C_14
REMARK    6  A    between atoms: C_16  and  C_17
REMARK                            x       y       z     vdW  Elec       q    Type
REMARK                         _______ _______ _______ _____ _____    ______ ____
ROOT
ATOM      1  C   UNL     1       2.759   4.880  18.005  0.00  0.00    +0.000 A 
ATOM      2  N   UNL     1       1.505   4.417  18.253  0.00  0.00    +0.000 NA
ATOM      3  C   UNL     1       1.277   3.093  18.295  0.00  0.00    +0.000 A 
ATOM      4  C   UNL     1       2.253   2.157  18.053  0.00  0.00    +0.000 A 
ATOM      5  C   UNL     1       3.535   2.620  17.780  0.00  0.00    +0.000 A 
ATOM      6  C   UNL     1       3.838   4.000  17.769  0.00  0.00    +0.000 A 
ENDROOT
BRANCH   6   7
ATOM      7  C   UNL     1       5.229   4.407  17.524  0.00  0.00    +0.000 A 
ATOM      8  N   UNL     1       5.979   4.842  18.585  0.00  0.00    +0.000 NA
ATOM      9  C   UNL     1       7.235   5.307  18.374  0.00  0.00    +0.000 A 
ATOM     10  C   UNL     1       7.999   5.773  19.576  0.00  0.00    +0.000 C 
ATOM     11  N   UNL     1       7.859   5.418  17.181  0.00  0.00    +0.000 NA
ATOM     12  C   UNL     1       7.083   4.998  16.176  0.00  0.00    +0.000 A 
ATOM     13  N   UNL     1       7.395   5.004  14.849  0.00  0.00    +0.000 N 
ATOM     14  C   UNL     1       6.317   4.510  14.166  0.00  0.00    +0.000 A 
ATOM     15  N   UNL     1       5.335   4.178  14.979  0.00  0.00    +0.000 NA
ATOM     16  C   UNL     1       5.796   4.490  16.246  0.00  0.00    +0.000 A 
ATOM     17  H   UNL     1       8.265   5.332  14.453  0.00  0.00    +0.000 HD
ENDBRANCH   6   7
BRANCH   1  18
ATOM     18  N   UNL     1       2.910   6.286  17.864  0.00  0.00    +0.000 N 
ATOM     19  H   UNL     1       3.913   6.495  17.799  0.00  0.00    +0.000 HD
BRANCH  18  23
ATOM     20  C   UNL     1       1.113   9.181  20.196  0.00  0.00    +0.000 A 
ATOM     21  N   UNL     1       1.509   8.072  20.826  0.00  0.00    +0.000 NA
ATOM     22  C   UNL     1       2.106   7.140  20.051  0.00  0.00    +0.000 A 
ATOM     23  C   UNL     1       2.290   7.251  18.683  0.00  0.00    +0.000 A 
ATOM     24  C   UNL     1       1.897   8.475  18.174  0.00  0.00    +0.000 A 
ATOM     25  N   UNL     1       1.302   9.453  18.893  0.00  0.00    +0.000 NA
BRANCH  20  27
ATOM     26  C   UNL     1      -0.129   9.431  22.134  0.00  0.00    +0.000 C 
ATOM     27  O   UNL     1       0.404  10.062  20.981  0.00  0.00    +0.000 OA
ENDBRANCH  20  27
ENDBRANCH  18  23
ENDBRANCH   1  18
TORSDOF 4
ENDMDL
MODEL 5
REMARK VINA RESULT:      -8.3      1.230      2.635
REMARK  Name = 
REMARK  6 active torsions:
REMARK  status: ('A' for Active; 'I' for Inactive)
REMARK    1  A    between atoms: C_1  and  O_2
REMARK    2  A    between atoms: O_2  and  C_3
REMARK    3  A    between atoms: C_6  and  N_7
REMARK    4  A    between atoms: N_7  and  C_8
REMARK    5  A    between atoms: C_13  and  C_14
REMARK    6  A    between atoms: C_16  and  C_17
REMARK                            x       y       z     vdW  Elec       q    Type
REMARK                         _______ _______ _______ _____ _____    ______ ____
ROOT
ATOM      1  C   UNL     1       2.765   4.895  17.977  0.00  0.00    +0.000 A 
ATOM      2  N   UNL     1       1.497   4.476  18.232  0.00  0.00    +0.000 NA
ATOM      3  C   UNL     1       1.232   3.161  18.317  0.00  0.00    +0.000 A 
ATOM      4  C   UNL     1       2.183   2.191  18.111  0.00  0.00    +0.000 A 
ATOM      5  C   UNL     1       3.478   2.609  17.832  0.00  0.00    +0.000 A 
ATOM      6  C   UNL     1       3.820   3.978  17.778  0.00  0.00    +0.000 A 
ENDROOT
BRANCH   6   7
ATOM      7  C   UNL     1       5.224   4.337  17.528  0.00  0.00    +0.000 A 
ATOM      8  N   UNL     1       5.976   4.798  18.576  0.00  0.00    +0.000 NA
ATOM      9  C   UNL     1       7.246   5.220  18.357  0.00  0.00    +0.000 A 
ATOM     10  C   UNL     1       8.012   5.719  19.545  0.00  0.00    +0.000 C 
ATOM     11  N   UNL     1       7.883   5.264  17.166  0.00  0.00    +0.000 NA
ATOM     12  C   UNL     1       7.103   4.821  16.173  0.00  0.00    +0.000 A 
ATOM     13  N   UNL     1       7.426   4.761  14.850  0.00  0.00    +0.000 N 
ATOM     14  C   UNL     1       6.342   4.267  14.179  0.00  0.00    +0.000 A 
ATOM     15  N   UNL     1       5.345   3.996  14.996  0.00  0.00    +0.000 NA
ATOM     16  C   UNL     1       5.803   4.351  16.253  0.00  0.00    +0.000 A 
ATOM     17  H   UNL     1       8.308   5.049  14.449  0.00  0.00    +0.000 HD
ENDBRANCH   6   7
BRANCH   1  18
ATOM     18  N   UNL     1       2.957   6.291  17.791  0.00  0.00    +0.000 N 
ATOM     19  H   UNL     1       3.966   6.471  17.730  0.00  0.00    +0.000 HD
BRANCH  18  23
ATOM     20  C   UNL     1       1.179   9.178  20.147  0.00  0.00    +0.000 A 
ATOM     21  N   UNL     1       1.266   9.447  18.841  0.00  0.00    +0.000 NA
ATOM     22  C   UNL     1       1.839   8.487  18.083  0.00  0.00    +0.000 A 
ATOM     23  C   UNL     1       2.356   7.299  18.571  0.00  0.00    +0.000 A 
ATOM     24  C   UNL     1       2.138   7.121  19.925  0.00  0.00    +0.000 A 
ATOM     25  N   UNL     1       1.564   8.035  20.740  0.00  0.00    +0.000 NA
BRANCH  20  27
ATOM     26  C   UNL     1      -0.370  10.895  20.276  0.00  0.00    +0.000 C 
ATOM     27  O   UNL     1       0.701  10.218  20.913  0.00  0.00    +0.000 OA
ENDBRANCH  20  27
ENDBRANCH  18  23
ENDBRANCH   1  18
TORSDOF 4
ENDMDL
MODEL 6
REMARK VINA RESULT:      -8.3      0.883      2.546
REMARK  Name = 
REMARK  6 active torsions:
REMARK  status: ('A' for Active; 'I' for Inactive)
REMARK    1  A    between atoms: C_1  and  O_2
REMARK    2  A    between atoms: O_2  and  C_3
REMARK    3  A    between atoms: C_6  and  N_7
REMARK    4  A    between atoms: N_7  and  C_8
REMARK    5  A    between atoms: C_13  and  C_14
REMARK    6  A    between atoms: C_16  and  C_17
REMARK                            x       y       z     vdW  Elec       q    Type
REMARK                         _______ _______ _______ _____ _____    ______ ____
ROOT
ATOM      1  C   UNL     1       3.264   4.685  19.032  0.00  0.00    +0.000 A 
ATOM      2  N   UNL     1       2.142   4.075  19.497  0.00  0.00    +0.000 NA
ATOM      3  C   UNL     1       1.775   2.882  18.999  0.00  0.00    +0.000 A 
ATOM      4  C   UNL     1       2.459   2.248  17.991  0.00  0.00    +0.000 A 
ATOM      5  C   UNL     1       3.598   2.872  17.496  0.00  0.00    +0.000 A 
ATOM      6  C   UNL     1       4.054   4.104  18.015  0.00  0.00    +0.000 A 
ENDROOT
BRANCH   6   7
ATOM      7  C   UNL     1       5.296   4.674  17.473  0.00  0.00    +0.000 A 
ATOM      8  N   UNL     1       6.100   5.402  18.310  0.00  0.00    +0.000 NA
ATOM      9  C   UNL     1       7.205   6.013  17.816  0.00  0.00    +0.000 A 
ATOM     10  C   UNL     1       8.038   6.799  18.783  0.00  0.00    +0.000 C 
ATOM     11  N   UNL     1       7.617   6.007  16.529  0.00  0.00    +0.000 NA
ATOM     12  C   UNL     1       6.792   5.299  15.749  0.00  0.00    +0.000 A 
ATOM     13  N   UNL     1       6.900   5.119  14.402  0.00  0.00    +0.000 N 
ATOM     14  C   UNL     1       5.844   4.349  14.000  0.00  0.00    +0.000 A 
ATOM     15  N   UNL     1       5.069   4.017  15.011  0.00  0.00    +0.000 NA
ATOM     16  C   UNL     1       5.645   4.617  16.118  0.00  0.00    +0.000 A 
ATOM     17  H   UNL     1       7.629   5.503  13.816  0.00  0.00    +0.000 HD
ENDBRANCH   6   7
BRANCH   1  18
ATOM     18  N   UNL     1       3.536   5.992  19.520  0.00  0.00    +0.000 N 
ATOM     19  H   UNL     1       3.626   5.940  20.542  0.00  0.00    +0.000 HD
BRANCH  18  23
ATOM     20  C   UNL     1       1.336   9.363  18.604  0.00  0.00    +0.000 A 
ATOM     21  N   UNL     1       2.082   8.855  17.619  0.00  0.00    +0.000 NA
ATOM     22  C   UNL     1       2.786   7.745  17.932  0.00  0.00    +0.000 A 
ATOM     23  C   UNL     1       2.805   7.148  19.181  0.00  0.00    +0.000 A 
ATOM     24  C   UNL     1       1.937   7.736  20.084  0.00  0.00    +0.000 A 
ATOM     25  N   UNL     1       1.199   8.841  19.834  0.00  0.00    +0.000 NA
BRANCH  20  27
ATOM     26  C   UNL     1      -0.691  10.450  18.330  0.00  0.00    +0.000 C 
ATOM     27  O   UNL     1       0.723  10.558  18.297  0.00  0.00    +0.000 OA
ENDBRANCH  20  27
ENDBRANCH  18  23
ENDBRANCH   1  18
TORSDOF 4
ENDMDL
MODEL 7
REMARK VINA RESULT:      -8.1      1.222      1.664
REMARK  Name = 
REMARK  6 active torsions:
REMARK  status: ('A' for Active; 'I' for Inactive)
REMARK    1  A    between atoms: C_1  and  O_2
REMARK    2  A    between atoms: O_2  and  C_3
REMARK    3  A    between atoms: C_6  and  N_7
REMARK    4  A    between atoms: N_7  and  C_8
REMARK    5  A    between atoms: C_13  and  C_14
REMARK    6  A    between atoms: C_16  and  C_17
REMARK                            x       y       z     vdW  Elec       q    Type
REMARK                         _______ _______ _______ _____ _____    ______ ____
ROOT
ATOM      1  C   UNL     1       2.649   4.781  18.112  0.00  0.00    +0.000 A 
ATOM      2  N   UNL     1       1.478   4.338  18.643  0.00  0.00    +0.000 NA
ATOM      3  C   UNL     1       1.236   3.018  18.718  0.00  0.00    +0.000 A 
ATOM      4  C   UNL     1       2.103   2.068  18.236  0.00  0.00    +0.000 A 
ATOM      5  C   UNL     1       3.295   2.512  17.675  0.00  0.00    +0.000 A 
ATOM      6  C   UNL     1       3.620   3.885  17.614  0.00  0.00    +0.000 A 
ENDROOT
BRANCH   6   7
ATOM      7  C   UNL     1       4.923   4.270  17.052  0.00  0.00    +0.000 A 
ATOM      8  N   UNL     1       5.151   4.045  15.720  0.00  0.00    +0.000 NA
ATOM      9  C   UNL     1       6.373   4.308  15.194  0.00  0.00    +0.000 A 
ATOM     10  C   UNL     1       6.558   4.034  13.732  0.00  0.00    +0.000 C 
ATOM     11  N   UNL     1       7.453   4.766  15.864  0.00  0.00    +0.000 NA
ATOM     12  C   UNL     1       7.186   4.954  17.162  0.00  0.00    +0.000 A 
ATOM     13  N   UNL     1       8.059   5.378  18.119  0.00  0.00    +0.000 N 
ATOM     14  C   UNL     1       7.386   5.413  19.309  0.00  0.00    +0.000 A 
ATOM     15  N   UNL     1       6.129   5.046  19.169  0.00  0.00    +0.000 NA
ATOM     16  C   UNL     1       5.990   4.742  17.826  0.00  0.00    +0.000 A 
ATOM     17  H   UNL     1       9.031   5.607  17.965  0.00  0.00    +0.000 HD
ENDBRANCH   6   7
BRANCH   1  18
ATOM     18  N   UNL     1       2.796   6.186  17.961  0.00  0.00    +0.000 N 
ATOM     19  H   UNL     1       3.793   6.391  17.823  0.00  0.00    +0.000 HD
BRANCH  18  23
ATOM     20  C   UNL     1       1.150   8.948  20.552  0.00  0.00    +0.000 A 
ATOM     21  N   UNL     1       1.295   9.337  19.282  0.00  0.00    +0.000 NA
ATOM     22  C   UNL     1       1.823   8.418  18.445  0.00  0.00    +0.000 A 
ATOM     23  C   UNL     1       2.242   7.154  18.824  0.00  0.00    +0.000 A 
ATOM     24  C   UNL     1       1.972   6.859  20.148  0.00  0.00    +0.000 A 
ATOM     25  N   UNL     1       1.438   7.728  21.036  0.00  0.00    +0.000 NA
BRANCH  20  27
ATOM     26  C   UNL     1       0.452   9.435  22.706  0.00  0.00    +0.000 C 
ATOM     27  O   UNL     1       0.721   9.938  21.407  0.00  0.00    +0.000 OA
ENDBRANCH  20  27
ENDBRANCH  18  23
ENDBRANCH   1  18
TORSDOF 4
ENDMDL
MODEL 8
REMARK VINA RESULT:      -8.0      1.460      2.644
REMARK  Name = 
REMARK  6 active torsions:
REMARK  status: ('A' for Active; 'I' for Inactive)
REMARK    1  A    between atoms: C_1  and  O_2
REMARK    2  A    between atoms: O_2  and  C_3
REMARK    3  A    between atoms: C_6  and  N_7
REMARK    4  A    between atoms: N_7  and  C_8
REMARK    5  A    between atoms: C_13  and  C_14
REMARK    6  A    between atoms: C_16  and  C_17
REMARK                            x       y       z     vdW  Elec       q    Type
REMARK                         _______ _______ _______ _____ _____    ______ ____
ROOT
ATOM      1  C   UNL     1       2.951   5.570  18.082  0.00  0.00    +0.000 A 
ATOM      2  N   UNL     1       1.755   5.093  18.519  0.00  0.00    +0.000 NA
ATOM      3  C   UNL     1       1.440   3.801  18.324  0.00  0.00    +0.000 A 
ATOM      4  C   UNL     1       2.257   2.924  17.653  0.00  0.00    +0.000 A 
ATOM      5  C   UNL     1       3.474   3.407  17.187  0.00  0.00    +0.000 A 
ATOM      6  C   UNL     1       3.874   4.743  17.405  0.00  0.00    +0.000 A 
ENDROOT
BRANCH   6   7
ATOM      7  C   UNL     1       5.200   5.163  16.926  0.00  0.00    +0.000 A 
ATOM      8  N   UNL     1       5.928   6.029  17.697  0.00  0.00    +0.000 NA
ATOM      9  C   UNL     1       7.114   6.502  17.239  0.00  0.00    +0.000 A 
ATOM     10  C   UNL     1       7.858   7.450  18.129  0.00  0.00    +0.000 C 
ATOM     11  N   UNL     1       7.680   6.224  16.044  0.00  0.00    +0.000 NA
ATOM     12  C   UNL     1       6.924   5.390  15.321  0.00  0.00    +0.000 A 
ATOM     13  N   UNL     1       7.188   4.935  14.063  0.00  0.00    +0.000 N 
ATOM     14  C   UNL     1       6.153   4.123  13.689  0.00  0.00    +0.000 A 
ATOM     15  N   UNL     1       5.245   4.022  14.637  0.00  0.00    +0.000 NA
ATOM     16  C   UNL     1       5.709   4.823  15.667  0.00  0.00    +0.000 A 
ATOM     17  H   UNL     1       8.000   5.176  13.512  0.00  0.00    +0.000 HD
ENDBRANCH   6   7
BRANCH   1  18
ATOM     18  N   UNL     1       3.176   6.967  18.220  0.00  0.00    +0.000 N 
ATOM     19  H   UNL     1       4.072   7.101  18.703  0.00  0.00    +0.000 HD
BRANCH  18  23
ATOM     20  C   UNL     1       0.442   9.725  19.622  0.00  0.00    +0.000 A 
ATOM     21  N   UNL     1       0.978   8.905  20.531  0.00  0.00    +0.000 NA
ATOM     22  C   UNL     1       1.879   8.017  20.057  0.00  0.00    +0.000 A 
ATOM     23  C   UNL     1       2.238   7.889  18.726  0.00  0.00    +0.000 A 
ATOM     24  C   UNL     1       1.660   8.843  17.908  0.00  0.00    +0.000 A 
ATOM     25  N   UNL     1       0.758   9.764  18.316  0.00  0.00    +0.000 NA
BRANCH  20  27
ATOM     26  C   UNL     1      -0.357  11.896  19.746  0.00  0.00    +0.000 C 
ATOM     27  O   UNL     1      -0.558  10.539  20.107  0.00  0.00    +0.000 OA
ENDBRANCH  20  27
ENDBRANCH  18  23
ENDBRANCH   1  18
TORSDOF 4
ENDMDL
MODEL 9
REMARK VINA RESULT:      -8.0      2.460      6.440
REMARK  Name = 
REMARK  6 active torsions:
REMARK  status: ('A' for Active; 'I' for Inactive)
REMARK    1  A    between atoms: C_1  and  O_2
REMARK    2  A    between atoms: O_2  and  C_3
REMARK    3  A    between atoms: C_6  and  N_7
REMARK    4  A    between atoms: N_7  and  C_8
REMARK    5  A    between atoms: C_13  and  C_14
REMARK    6  A    between atoms: C_16  and  C_17
REMARK                            x       y       z     vdW  Elec       q    Type
REMARK                         _______ _______ _______ _____ _____    ______ ____
ROOT
ATOM      1  C   UNL     1       3.228   5.045  19.788  0.00  0.00    +0.000 A 
ATOM      2  N   UNL     1       3.393   3.700  19.676  0.00  0.00    +0.000 NA
ATOM      3  C   UNL     1       2.376   2.875  19.980  0.00  0.00    +0.000 A 
ATOM      4  C   UNL     1       1.166   3.320  20.451  0.00  0.00    +0.000 A 
ATOM      5  C   UNL     1       0.993   4.692  20.587  0.00  0.00    +0.000 A 
ATOM      6  C   UNL     1       2.012   5.605  20.237  0.00  0.00    +0.000 A 
ENDROOT
BRANCH   6   7
ATOM      7  C   UNL     1       1.733   7.044  20.361  0.00  0.00    +0.000 A 
ATOM      8  N   UNL     1       1.239   7.513  21.550  0.00  0.00    +0.000 NA
ATOM      9  C   UNL     1       0.889   8.818  21.663  0.00  0.00    +0.000 A 
ATOM     10  C   UNL     1       0.350   9.265  22.988  0.00  0.00    +0.000 C 
ATOM     11  N   UNL     1       0.953   9.753  20.690  0.00  0.00    +0.000 NA
ATOM     12  C   UNL     1       1.424   9.244  19.546  0.00  0.00    +0.000 A 
ATOM     13  N   UNL     1       1.584   9.907  18.365  0.00  0.00    +0.000 N 
ATOM     14  C   UNL     1       2.072   9.014  17.451  0.00  0.00    +0.000 A 
ATOM     15  N   UNL     1       2.244   7.820  17.978  0.00  0.00    +0.000 NA
ATOM     16  C   UNL     1       1.829   7.944  19.293  0.00  0.00    +0.000 A 
ATOM     17  H   UNL     1       1.364  10.880  18.205  0.00  0.00    +0.000 HD
ENDBRANCH   6   7
BRANCH   1  18
ATOM     18  N   UNL     1       4.373   5.855  19.558  0.00  0.00    +0.000 N 
ATOM     19  H   UNL     1       4.103   6.837  19.692  0.00  0.00    +0.000 HD
BRANCH  18  23
ATOM     20  C   UNL     1       6.917   5.535  16.322  0.00  0.00    +0.000 A 
ATOM     21  N   UNL     1       5.912   6.407  16.204  0.00  0.00    +0.000 NA
ATOM     22  C   UNL     1       5.096   6.508  17.276  0.00  0.00    +0.000 A 
ATOM     23  C   UNL     1       5.217   5.759  18.434  0.00  0.00    +0.000 A 
ATOM     24  C   UNL     1       6.337   4.948  18.448  0.00  0.00    +0.000 A 
ATOM     25  N   UNL     1       7.199   4.805  17.416  0.00  0.00    +0.000 NA
BRANCH  20  27
ATOM     26  C   UNL     1       6.916   4.727  14.152  0.00  0.00    +0.000 C 
ATOM     27  O   UNL     1       7.662   5.363  15.177  0.00  0.00    +0.000 OA
ENDBRANCH  20  27
ENDBRANCH  18  23
ENDBRANCH   1  18
TORSDOF 4
ENDMDL
