MODEL 1
REMARK VINA RESULT:      -7.8      0.000      0.000
REMARK  Name = 
REMARK  4 active torsions:
REMARK  status: ('A' for Active; 'I' for Inactive)
REMARK    1  A    between atoms: C_8  and  C_9
REMARK    2  A    between atoms: C_9  and  C_11
REMARK    3  A    between atoms: C_11  and  N_12
REMARK    4  A    between atoms: C_16  and  O_17
REMARK                            x       y       z     vdW  Elec       q    Type
REMARK                         _______ _______ _______ _____ _____    ______ ____
ROOT
ATOM      1  O   UNL     1       0.085   9.951  23.551  0.00  0.00    +0.000 OA
ATOM      2  C   UNL     1       0.409   9.895  22.370  0.00  0.00    +0.000 C 
ATOM      3  C   UNL     1       0.317  11.074  21.405  0.00  0.00    +0.000 C 
ATOM      4  O   UNL     1       0.284  10.812  20.009  0.00  0.00    +0.000 OA
ATOM      5  C   UNL     1       0.975   9.695  19.630  0.00  0.00    +0.000 A 
ATOM      6  C   UNL     1       1.291   9.594  18.280  0.00  0.00    +0.000 A 
ATOM      7  C   UNL     1       1.974   8.473  17.809  0.00  0.00    +0.000 A 
ATOM      8  C   UNL     1       2.327   7.427  18.679  0.00  0.00    +0.000 A 
ATOM      9  C   UNL     1       1.993   7.522  20.037  0.00  0.00    +0.000 A 
ATOM     10  C   UNL     1       1.321   8.662  20.504  0.00  0.00    +0.000 A 
ATOM     11  N   UNL     1       0.974   8.758  21.853  0.00  0.00    +0.000 N 
ATOM     12  H   UNL     1       1.117   8.004  22.511  0.00  0.00    +0.000 HD
ENDROOT
BRANCH   8  13
ATOM     13  C   UNL     1       3.073   6.279  18.085  0.00  0.00    +0.000 C 
ATOM     14  O   UNL     1       4.249   6.446  17.757  0.00  0.00    +0.000 OA
BRANCH  13  15
ATOM     15  C   UNL     1       2.397   4.947  17.848  0.00  0.00    +0.000 C 
BRANCH  15  16
ATOM     16  N   UNL     1       2.469   4.091  19.062  0.00  0.00    +0.000 N 
ATOM     17  C   UNL     1       1.417   4.013  19.917  0.00  0.00    +0.000 A 
ATOM     18  C   UNL     1       1.496   3.239  21.074  0.00  0.00    +0.000 A 
ATOM     19  C   UNL     1       2.657   2.525  21.352  0.00  0.00    +0.000 A 
ATOM     20  C   UNL     1       3.707   2.600  20.455  0.00  0.00    +0.000 A 
ATOM     21  C   UNL     1       3.595   3.380  19.309  0.00  0.00    +0.000 A 
BRANCH  20  22
ATOM     22  O   UNL     1       4.872   1.927  20.656  0.00  0.00    +0.000 OA
ATOM     23  H   UNL     1       4.764   0.981  20.440  0.00  0.00    +0.000 HD
ENDBRANCH  20  22
ENDBRANCH  15  16
ENDBRANCH  13  15
ENDBRANCH   8  13
TORSDOF 4
ENDMDL
MODEL 2
REMARK VINA RESULT:      -7.5      2.496      3.647
REMARK  Name = 
REMARK  4 active torsions:
REMARK  status: ('A' for Active; 'I' for Inactive)
REMARK    1  A    between atoms: C_8  and  C_9
REMARK    2  A    between atoms: C_9  and  C_11
REMARK    3  A    between atoms: C_11  and  N_12
REMARK    4  A    between atoms: C_16  and  O_17
REMARK                            x       y       z     vdW  Elec       q    Type
REMARK                         _______ _______ _______ _____ _____    ______ ____
ROOT
ATOM      1  O   UNL     1       0.564   9.898  23.230  0.00  0.00    +0.000 OA
ATOM      2  C   UNL     1       0.897   9.669  22.072  0.00  0.00    +0.000 C 
ATOM      3  C   UNL     1       0.974  10.735  20.983  0.00  0.00    +0.000 C 
ATOM      4  O   UNL     1       0.931  10.324  19.624  0.00  0.00    +0.000 OA
ATOM      5  C   UNL     1       1.479   9.093  19.390  0.00  0.00    +0.000 A 
ATOM      6  C   UNL     1       1.801   8.804  18.069  0.00  0.00    +0.000 A 
ATOM      7  C   UNL     1       2.341   7.559  17.744  0.00  0.00    +0.000 A 
ATOM      8  C   UNL     1       2.542   6.581  18.733  0.00  0.00    +0.000 A 
ATOM      9  C   UNL     1       2.200   6.869  20.061  0.00  0.00    +0.000 A 
ATOM     10  C   UNL     1       1.673   8.129  20.381  0.00  0.00    +0.000 A 
ATOM     11  N   UNL     1       1.320   8.419  21.700  0.00  0.00    +0.000 N 
ATOM     12  H   UNL     1       1.353   7.732  22.440  0.00  0.00    +0.000 HD
ENDROOT
BRANCH   8  13
ATOM     13  C   UNL     1       3.143   5.289  18.290  0.00  0.00    +0.000 C 
ATOM     14  O   UNL     1       2.779   4.249  18.842  0.00  0.00    +0.000 OA
BRANCH  13  15
ATOM     15  C   UNL     1       4.208   5.249  17.217  0.00  0.00    +0.000 C 
BRANCH  15  16
ATOM     16  N   UNL     1       5.518   5.710  17.751  0.00  0.00    +0.000 N 
ATOM     17  C   UNL     1       6.103   5.071  18.796  0.00  0.00    +0.000 A 
ATOM     18  C   UNL     1       7.313   5.525  19.320  0.00  0.00    +0.000 A 
ATOM     19  C   UNL     1       7.939   6.633  18.758  0.00  0.00    +0.000 A 
ATOM     20  C   UNL     1       7.337   7.252  17.679  0.00  0.00    +0.000 A 
ATOM     21  C   UNL     1       6.131   6.774  17.180  0.00  0.00    +0.000 A 
BRANCH  20  22
ATOM     22  O   UNL     1       7.892   8.338  17.074  0.00  0.00    +0.000 OA
ATOM     23  H   UNL     1       8.811   8.149  16.804  0.00  0.00    +0.000 HD
ENDBRANCH  20  22
ENDBRANCH  15  16
ENDBRANCH  13  15
ENDBRANCH   8  13
TORSDOF 4
ENDMDL
MODEL 3
REMARK VINA RESULT:      -7.4      4.390      7.448
REMARK  Name = 
REMARK  4 active torsions:
REMARK  status: ('A' for Active; 'I' for Inactive)
REMARK    1  A    between atoms: C_8  and  C_9
REMARK    2  A    between atoms: C_9  and  C_11
REMARK    3  A    between atoms: C_11  and  N_12
REMARK    4  A    between atoms: C_16  and  O_17
REMARK                            x       y       z     vdW  Elec       q    Type
REMARK                         _______ _______ _______ _____ _____    ______ ____
ROOT
ATOM      1  O   UNL     1       6.572   3.032  11.800  0.00  0.00    +0.000 OA
ATOM      2  C   UNL     1       6.719   3.734  12.795  0.00  0.00    +0.000 C 
ATOM      3  C   UNL     1       7.442   5.078  12.788  0.00  0.00    +0.000 C 
ATOM      4  O   UNL     1       7.941   5.589  14.017  0.00  0.00    +0.000 OA
ATOM      5  C   UNL     1       7.208   5.233  15.114  0.00  0.00    +0.000 A 
ATOM      6  C   UNL     1       7.416   5.986  16.264  0.00  0.00    +0.000 A 
ATOM      7  C   UNL     1       6.723   5.671  17.434  0.00  0.00    +0.000 A 
ATOM      8  C   UNL     1       5.834   4.584  17.473  0.00  0.00    +0.000 A 
ATOM      9  C   UNL     1       5.638   3.816  16.317  0.00  0.00    +0.000 A 
ATOM     10  C   UNL     1       6.326   4.150  15.141  0.00  0.00    +0.000 A 
ATOM     11  N   UNL     1       6.145   3.383  13.990  0.00  0.00    +0.000 N 
ATOM     12  H   UNL     1       5.593   2.537  13.976  0.00  0.00    +0.000 HD
ENDROOT
BRANCH   8  13
ATOM     13  C   UNL     1       5.126   4.339  18.764  0.00  0.00    +0.000 C 
ATOM     14  O   UNL     1       5.533   3.439  19.499  0.00  0.00    +0.000 OA
BRANCH  13  15
ATOM     15  C   UNL     1       3.907   5.146  19.151  0.00  0.00    +0.000 C 
BRANCH  15  16
ATOM     16  N   UNL     1       2.743   4.258  19.415  0.00  0.00    +0.000 N 
ATOM     17  C   UNL     1       1.886   3.925  18.416  0.00  0.00    +0.000 A 
ATOM     18  C   UNL     1       0.774   3.123  18.670  0.00  0.00    +0.000 A 
ATOM     19  C   UNL     1       0.546   2.642  19.956  0.00  0.00    +0.000 A 
ATOM     20  C   UNL     1       1.445   2.974  20.952  0.00  0.00    +0.000 A 
ATOM     21  C   UNL     1       2.544   3.775  20.665  0.00  0.00    +0.000 A 
BRANCH  20  22
ATOM     22  O   UNL     1       1.291   2.538  22.232  0.00  0.00    +0.000 OA
ATOM     23  H   UNL     1       1.762   3.125  22.853  0.00  0.00    +0.000 HD
ENDBRANCH  20  22
ENDBRANCH  15  16
ENDBRANCH  13  15
ENDBRANCH   8  13
TORSDOF 4
ENDMDL
MODEL 4
REMARK VINA RESULT:      -7.4      1.242      1.522
REMARK  Name = 
REMARK  4 active torsions:
REMARK  status: ('A' for Active; 'I' for Inactive)
REMARK    1  A    between atoms: C_8  and  C_9
REMARK    2  A    between atoms: C_9  and  C_11
REMARK    3  A    between atoms: C_11  and  N_12
REMARK    4  A    between atoms: C_16  and  O_17
REMARK                            x       y       z     vdW  Elec       q    Type
REMARK                         _______ _______ _______ _____ _____    ______ ____
ROOT
ATOM      1  O   UNL     1      -0.608  10.290  23.394  0.00  0.00    +0.000 OA
ATOM      2  C   UNL     1      -0.213  10.184  22.237  0.00  0.00    +0.000 C 
ATOM      3  C   UNL     1      -0.461  11.232  21.155  0.00  0.00    +0.000 C 
ATOM      4  O   UNL     1      -0.367  10.838  19.793  0.00  0.00    +0.000 OA
ATOM      5  C   UNL     1       0.533   9.837  19.556  0.00  0.00    +0.000 A 
ATOM      6  C   UNL     1       0.938   9.671  18.237  0.00  0.00    +0.000 A 
ATOM      7  C   UNL     1       1.836   8.655  17.909  0.00  0.00    +0.000 A 
ATOM      8  C   UNL     1       2.321   7.778  18.894  0.00  0.00    +0.000 A 
ATOM      9  C   UNL     1       1.899   7.936  20.221  0.00  0.00    +0.000 A 
ATOM     10  C   UNL     1       1.008   8.971  20.544  0.00  0.00    +0.000 A 
ATOM     11  N   UNL     1       0.575   9.127  21.861  0.00  0.00    +0.000 N 
ATOM     12  H   UNL     1       0.813   8.478  22.598  0.00  0.00    +0.000 HD
ENDROOT
BRANCH   8  13
ATOM     13  C   UNL     1       3.293   6.736  18.449  0.00  0.00    +0.000 C 
ATOM     14  O   UNL     1       3.673   6.746  17.278  0.00  0.00    +0.000 OA
BRANCH  13  15
ATOM     15  C   UNL     1       3.774   5.661  19.397  0.00  0.00    +0.000 C 
BRANCH  15  16
ATOM     16  N   UNL     1       2.763   4.579  19.532  0.00  0.00    +0.000 N 
ATOM     17  C   UNL     1       2.095   4.116  18.445  0.00  0.00    +0.000 A 
ATOM     18  C   UNL     1       1.121   3.127  18.576  0.00  0.00    +0.000 A 
ATOM     19  C   UNL     1       0.839   2.593  19.829  0.00  0.00    +0.000 A 
ATOM     20  C   UNL     1       1.549   3.063  20.919  0.00  0.00    +0.000 A 
ATOM     21  C   UNL     1       2.515   4.049  20.754  0.00  0.00    +0.000 A 
BRANCH  20  22
ATOM     22  O   UNL     1       1.332   2.587  22.176  0.00  0.00    +0.000 OA
ATOM     23  H   UNL     1       0.472   2.897  22.516  0.00  0.00    +0.000 HD
ENDBRANCH  20  22
ENDBRANCH  15  16
ENDBRANCH  13  15
ENDBRANCH   8  13
TORSDOF 4
ENDMDL
MODEL 5
REMARK VINA RESULT:      -7.4      2.910      4.174
REMARK  Name = 
REMARK  4 active torsions:
REMARK  status: ('A' for Active; 'I' for Inactive)
REMARK    1  A    between atoms: C_8  and  C_9
REMARK    2  A    between atoms: C_9  and  C_11
REMARK    3  A    between atoms: C_11  and  N_12
REMARK    4  A    between atoms: C_16  and  O_17
REMARK                            x       y       z     vdW  Elec       q    Type
REMARK                         _______ _______ _______ _____ _____    ______ ____
ROOT
ATOM      1  O   UNL     1       1.410  11.531  18.179  0.00  0.00    +0.000 OA
ATOM      2  C   UNL     1       1.430  10.424  18.704  0.00  0.00    +0.000 C 
ATOM      3  C   UNL     1       0.604  10.049  19.932  0.00  0.00    +0.000 C 
ATOM      4  O   UNL     1       1.012   8.935  20.713  0.00  0.00    +0.000 OA
ATOM      5  C   UNL     1       1.633   7.945  20.002  0.00  0.00    +0.000 A 
ATOM      6  C   UNL     1       1.715   6.703  20.619  0.00  0.00    +0.000 A 
ATOM      7  C   UNL     1       2.356   5.647  19.969  0.00  0.00    +0.000 A 
ATOM      8  C   UNL     1       2.943   5.830  18.706  0.00  0.00    +0.000 A 
ATOM      9  C   UNL     1       2.874   7.088  18.093  0.00  0.00    +0.000 A 
ATOM     10  C   UNL     1       2.213   8.139  18.747  0.00  0.00    +0.000 A 
ATOM     11  N   UNL     1       2.151   9.398  18.148  0.00  0.00    +0.000 N 
ATOM     12  H   UNL     1       2.629   9.620  17.286  0.00  0.00    +0.000 HD
ENDROOT
BRANCH   8  13
ATOM     13  C   UNL     1       3.587   4.636  18.083  0.00  0.00    +0.000 C 
ATOM     14  O   UNL     1       3.237   3.515  18.455  0.00  0.00    +0.000 OA
BRANCH  13  15
ATOM     15  C   UNL     1       4.677   4.788  17.047  0.00  0.00    +0.000 C 
BRANCH  15  16
ATOM     16  N   UNL     1       5.845   5.520  17.607  0.00  0.00    +0.000 N 
ATOM     17  C   UNL     1       6.369   6.590  16.956  0.00  0.00    +0.000 A 
ATOM     18  C   UNL     1       7.486   7.254  17.462  0.00  0.00    +0.000 A 
ATOM     19  C   UNL     1       8.063   6.830  18.654  0.00  0.00    +0.000 A 
ATOM     20  C   UNL     1       7.498   5.753  19.312  0.00  0.00    +0.000 A 
ATOM     21  C   UNL     1       6.384   5.114  18.782  0.00  0.00    +0.000 A 
BRANCH  20  22
ATOM     22  O   UNL     1       8.005   5.283  20.485  0.00  0.00    +0.000 OA
ATOM     23  H   UNL     1       8.683   5.891  20.834  0.00  0.00    +0.000 HD
ENDBRANCH  20  22
ENDBRANCH  15  16
ENDBRANCH  13  15
ENDBRANCH   8  13
TORSDOF 4
ENDMDL
MODEL 6
REMARK VINA RESULT:      -7.4      3.552      5.560
REMARK  Name = 
REMARK  4 active torsions:
REMARK  status: ('A' for Active; 'I' for Inactive)
REMARK    1  A    between atoms: C_8  and  C_9
REMARK    2  A    between atoms: C_9  and  C_11
REMARK    3  A    between atoms: C_11  and  N_12
REMARK    4  A    between atoms: C_16  and  O_17
REMARK                            x       y       z     vdW  Elec       q    Type
REMARK                         _______ _______ _______ _____ _____    ______ ____
ROOT
ATOM      1  O   UNL     1       1.139   2.774  21.297  0.00  0.00    +0.000 OA
ATOM      2  C   UNL     1       1.666   3.628  20.592  0.00  0.00    +0.000 C 
ATOM      3  C   UNL     1       1.611   5.125  20.884  0.00  0.00    +0.000 C 
ATOM      4  O   UNL     1       1.850   6.035  19.820  0.00  0.00    +0.000 OA
ATOM      5  C   UNL     1       2.717   5.575  18.868  0.00  0.00    +0.000 A 
ATOM      6  C   UNL     1       3.271   6.531  18.025  0.00  0.00    +0.000 A 
ATOM      7  C   UNL     1       4.147   6.138  17.012  0.00  0.00    +0.000 A 
ATOM      8  C   UNL     1       4.459   4.782  16.816  0.00  0.00    +0.000 A 
ATOM      9  C   UNL     1       3.886   3.818  17.657  0.00  0.00    +0.000 A 
ATOM     10  C   UNL     1       3.020   4.224  18.683  0.00  0.00    +0.000 A 
ATOM     11  N   UNL     1       2.437   3.268  19.516  0.00  0.00    +0.000 N 
ATOM     12  H   UNL     1       2.547   2.274  19.373  0.00  0.00    +0.000 HD
ENDROOT
BRANCH   8  13
ATOM     13  C   UNL     1       5.420   4.464  15.720  0.00  0.00    +0.000 C 
ATOM     14  O   UNL     1       4.977   4.239  14.593  0.00  0.00    +0.000 OA
BRANCH  13  15
ATOM     15  C   UNL     1       6.906   4.376  15.985  0.00  0.00    +0.000 C 
BRANCH  15  16
ATOM     16  N   UNL     1       7.321   5.363  17.019  0.00  0.00    +0.000 N 
ATOM     17  C   UNL     1       7.425   6.682  16.715  0.00  0.00    +0.000 A 
ATOM     18  C   UNL     1       7.849   7.602  17.673  0.00  0.00    +0.000 A 
ATOM     19  C   UNL     1       8.154   7.170  18.960  0.00  0.00    +0.000 A 
ATOM     20  C   UNL     1       8.017   5.826  19.254  0.00  0.00    +0.000 A 
ATOM     21  C   UNL     1       7.591   4.936  18.276  0.00  0.00    +0.000 A 
BRANCH  20  22
ATOM     22  O   UNL     1       8.292   5.331  20.491  0.00  0.00    +0.000 OA
ATOM     23  H   UNL     1       8.618   6.038  21.079  0.00  0.00    +0.000 HD
ENDBRANCH  20  22
ENDBRANCH  15  16
ENDBRANCH  13  15
ENDBRANCH   8  13
TORSDOF 4
ENDMDL
MODEL 7
REMARK VINA RESULT:      -7.4      1.368      1.474
REMARK  Name = 
REMARK  4 active torsions:
REMARK  status: ('A' for Active; 'I' for Inactive)
REMARK    1  A    between atoms: C_8  and  C_9
REMARK    2  A    between atoms: C_9  and  C_11
REMARK    3  A    between atoms: C_11  and  N_12
REMARK    4  A    between atoms: C_16  and  O_17
REMARK                            x       y       z     vdW  Elec       q    Type
REMARK                         _______ _______ _______ _____ _____    ______ ____
ROOT
ATOM      1  O   UNL     1      -0.719  10.382  23.362  0.00  0.00    +0.000 OA
ATOM      2  C   UNL     1      -0.295  10.263  22.218  0.00  0.00    +0.000 C 
ATOM      3  C   UNL     1      -0.503  11.303  21.121  0.00  0.00    +0.000 C 
ATOM      4  O   UNL     1      -0.377  10.898  19.765  0.00  0.00    +0.000 OA
ATOM      5  C   UNL     1       0.519   9.886  19.560  0.00  0.00    +0.000 A 
ATOM      6  C   UNL     1       0.956   9.705  18.253  0.00  0.00    +0.000 A 
ATOM      7  C   UNL     1       1.852   8.677  17.957  0.00  0.00    +0.000 A 
ATOM      8  C   UNL     1       2.301   7.803  18.962  0.00  0.00    +0.000 A 
ATOM      9  C   UNL     1       1.846   7.977  20.276  0.00  0.00    +0.000 A 
ATOM     10  C   UNL     1       0.958   9.023  20.567  0.00  0.00    +0.000 A 
ATOM     11  N   UNL     1       0.492   9.194  21.871  0.00  0.00    +0.000 N 
ATOM     12  H   UNL     1       0.703   8.548  22.619  0.00  0.00    +0.000 HD
ENDROOT
BRANCH   8  13
ATOM     13  C   UNL     1       3.274   6.748  18.551  0.00  0.00    +0.000 C 
ATOM     14  O   UNL     1       3.679   6.740  17.388  0.00  0.00    +0.000 OA
BRANCH  13  15
ATOM     15  C   UNL     1       3.727   5.682  19.523  0.00  0.00    +0.000 C 
BRANCH  15  16
ATOM     16  N   UNL     1       2.785   4.530  19.526  0.00  0.00    +0.000 N 
ATOM     17  C   UNL     1       1.931   4.337  20.564  0.00  0.00    +0.000 A 
ATOM     18  C   UNL     1       1.074   3.237  20.585  0.00  0.00    +0.000 A 
ATOM     19  C   UNL     1       1.079   2.335  19.525  0.00  0.00    +0.000 A 
ATOM     20  C   UNL     1       1.940   2.565  18.468  0.00  0.00    +0.000 A 
ATOM     21  C   UNL     1       2.781   3.672  18.478  0.00  0.00    +0.000 A 
BRANCH  20  22
ATOM     22  O   UNL     1       1.999   1.730  17.395  0.00  0.00    +0.000 OA
ATOM     23  H   UNL     1       2.478   0.911  17.624  0.00  0.00    +0.000 HD
ENDBRANCH  20  22
ENDBRANCH  15  16
ENDBRANCH  13  15
ENDBRANCH   8  13
TORSDOF 4
ENDMDL
MODEL 8
REMARK VINA RESULT:      -7.4      3.388      6.628
REMARK  Name = 
REMARK  4 active torsions:
REMARK  status: ('A' for Active; 'I' for Inactive)
REMARK    1  A    between atoms: C_8  and  C_9
REMARK    2  A    between atoms: C_9  and  C_11
REMARK    3  A    between atoms: C_11  and  N_12
REMARK    4  A    between atoms: C_16  and  O_17
REMARK                            x       y       z     vdW  Elec       q    Type
REMARK                         _______ _______ _______ _____ _____    ______ ____
ROOT
ATOM      1  O   UNL     1       6.179   3.215  12.747  0.00  0.00    +0.000 OA
ATOM      2  C   UNL     1       6.292   4.021  13.665  0.00  0.00    +0.000 C 
ATOM      3  C   UNL     1       7.498   4.939  13.847  0.00  0.00    +0.000 C 
ATOM      4  O   UNL     1       7.743   5.494  15.131  0.00  0.00    +0.000 OA
ATOM      5  C   UNL     1       6.617   5.721  15.872  0.00  0.00    +0.000 A 
ATOM      6  C   UNL     1       6.753   6.585  16.952  0.00  0.00    +0.000 A 
ATOM      7  C   UNL     1       5.656   6.850  17.772  0.00  0.00    +0.000 A 
ATOM      8  C   UNL     1       4.416   6.233  17.535  0.00  0.00    +0.000 A 
ATOM      9  C   UNL     1       4.284   5.349  16.455  0.00  0.00    +0.000 A 
ATOM     10  C   UNL     1       5.389   5.102  15.627  0.00  0.00    +0.000 A 
ATOM     11  N   UNL     1       5.269   4.213  14.557  0.00  0.00    +0.000 N 
ATOM     12  H   UNL     1       4.434   3.669  14.387  0.00  0.00    +0.000 HD
ENDROOT
BRANCH   8  13
ATOM     13  C   UNL     1       3.297   6.595  18.454  0.00  0.00    +0.000 C 
ATOM     14  O   UNL     1       2.662   7.627  18.233  0.00  0.00    +0.000 OA
BRANCH  13  15
ATOM     15  C   UNL     1       2.967   5.741  19.657  0.00  0.00    +0.000 C 
BRANCH  15  16
ATOM     16  N   UNL     1       2.980   4.296  19.304  0.00  0.00    +0.000 N 
ATOM     17  C   UNL     1       1.956   3.746  18.602  0.00  0.00    +0.000 A 
ATOM     18  C   UNL     1       1.949   2.384  18.302  0.00  0.00    +0.000 A 
ATOM     19  C   UNL     1       3.009   1.580  18.709  0.00  0.00    +0.000 A 
ATOM     20  C   UNL     1       4.053   2.166  19.401  0.00  0.00    +0.000 A 
ATOM     21  C   UNL     1       4.029   3.527  19.683  0.00  0.00    +0.000 A 
BRANCH  20  22
ATOM     22  O   UNL     1       5.125   1.445  19.828  0.00  0.00    +0.000 OA
ATOM     23  H   UNL     1       5.553   1.885  20.587  0.00  0.00    +0.000 HD
ENDBRANCH  20  22
ENDBRANCH  15  16
ENDBRANCH  13  15
ENDBRANCH   8  13
TORSDOF 4
ENDMDL
MODEL 9
REMARK VINA RESULT:      -7.4      2.662      4.168
REMARK  Name = 
REMARK  4 active torsions:
REMARK  status: ('A' for Active; 'I' for Inactive)
REMARK    1  A    between atoms: C_8  and  C_9
REMARK    2  A    between atoms: C_9  and  C_11
REMARK    3  A    between atoms: C_11  and  N_12
REMARK    4  A    between atoms: C_16  and  O_17
REMARK                            x       y       z     vdW  Elec       q    Type
REMARK                         _______ _______ _______ _____ _____    ______ ____
ROOT
ATOM      1  O   UNL     1       1.532  10.990  18.437  0.00  0.00    +0.000 OA
ATOM      2  C   UNL     1       1.541   9.868  18.932  0.00  0.00    +0.000 C 
ATOM      3  C   UNL     1       0.935   9.533  20.292  0.00  0.00    +0.000 C 
ATOM      4  O   UNL     1       1.371   8.358  20.961  0.00  0.00    +0.000 OA
ATOM      5  C   UNL     1       1.739   7.339  20.128  0.00  0.00    +0.000 A 
ATOM      6  C   UNL     1       1.813   6.073  20.699  0.00  0.00    +0.000 A 
ATOM      7  C   UNL     1       2.205   4.983  19.920  0.00  0.00    +0.000 A 
ATOM      8  C   UNL     1       2.552   5.152  18.569  0.00  0.00    +0.000 A 
ATOM      9  C   UNL     1       2.494   6.431  18.001  0.00  0.00    +0.000 A 
ATOM     10  C   UNL     1       2.082   7.519  18.786  0.00  0.00    +0.000 A 
ATOM     11  N   UNL     1       2.033   8.797  18.230  0.00  0.00    +0.000 N 
ATOM     12  H   UNL     1       2.356   9.001  17.294  0.00  0.00    +0.000 HD
ENDROOT
BRANCH   8  13
ATOM     13  C   UNL     1       2.939   3.924  17.815  0.00  0.00    +0.000 C 
ATOM     14  O   UNL     1       2.143   3.456  17.000  0.00  0.00    +0.000 OA
BRANCH  13  15
ATOM     15  C   UNL     1       4.262   3.236  18.069  0.00  0.00    +0.000 C 
BRANCH  15  16
ATOM     16  N   UNL     1       5.389   4.205  17.993  0.00  0.00    +0.000 N 
ATOM     17  C   UNL     1       5.892   4.771  19.119  0.00  0.00    +0.000 A 
ATOM     18  C   UNL     1       6.923   5.707  19.046  0.00  0.00    +0.000 A 
ATOM     19  C   UNL     1       7.457   6.054  17.809  0.00  0.00    +0.000 A 
ATOM     20  C   UNL     1       6.945   5.446  16.677  0.00  0.00    +0.000 A 
ATOM     21  C   UNL     1       5.917   4.517  16.785  0.00  0.00    +0.000 A 
BRANCH  20  22
ATOM     22  O   UNL     1       7.418   5.732  15.434  0.00  0.00    +0.000 OA
ATOM     23  H   UNL     1       6.819   6.349  14.972  0.00  0.00    +0.000 HD
ENDBRANCH  20  22
ENDBRANCH  15  16
ENDBRANCH  13  15
ENDBRANCH   8  13
TORSDOF 4
ENDMDL
