MODEL 1
REMARK VINA RESULT:      -7.6      0.000      0.000
REMARK  Name = 
REMARK  8 active torsions:
REMARK  status: ('A' for Active; 'I' for Inactive)
REMARK    1  A    between atoms: C_1  and  C_2
REMARK    2  A    between atoms: C_2  and  C_3
REMARK    3  A    between atoms: C_2  and  C_4
REMARK    4  A    between atoms: C_4  and  C_5
REMARK    5  A    between atoms: C_5  and  C_6
REMARK    6  A    between atoms: C_10  and  N_11
REMARK    7  A    between atoms: N_11  and  C_12
REMARK    8  A    between atoms: C_12  and  C_13
REMARK                            x       y       z     vdW  Elec       q    Type
REMARK                         _______ _______ _______ _____ _____    ______ ____
ROOT
ATOM      1  N   UNL     1       4.496   3.117  18.071  0.00  0.00    +0.000 NA
ATOM      2  H   UNL     1       4.507   3.484  19.026  0.00  0.00    +0.000 HD
ENDROOT
BRANCH   1   7
ATOM      3  C   UNL     1       5.599   4.668  16.379  0.00  0.00    +0.000 C 
ATOM      4  C   UNL     1       5.243   6.084  15.914  0.00  0.00    +0.000 C 
ATOM      5  C   UNL     1       4.569   6.706  17.121  0.00  0.00    +0.000 C 
ATOM      6  C   UNL     1       3.893   5.552  17.855  0.00  0.00    +0.000 C 
ATOM      7  C   UNL     1       4.320   4.250  17.142  0.00  0.00    +0.000 C 
BRANCH   3   8
ATOM      8  C   UNL     1       5.989   3.768  15.199  0.00  0.00    +0.000 C 
BRANCH   8   9
ATOM      9  C   UNL     1       5.524   4.302  13.828  0.00  0.00    +0.000 C 
BRANCH   9  11
ATOM     10  C   UNL     1       4.641   3.266  11.685  0.00  0.00    +0.000 C 
ATOM     11  C   UNL     1       5.836   3.381  12.632  0.00  0.00    +0.000 C 
ATOM     12  C   UNL     1       7.062   3.881  11.862  0.00  0.00    +0.000 C 
ENDBRANCH   9  11
ENDBRANCH   8   9
ENDBRANCH   3   8
ENDBRANCH   1   7
BRANCH   1  13
ATOM     13  C   UNL     1       3.348   2.187  17.954  0.00  0.00    +0.000 C 
BRANCH  13  14
ATOM     14  C   UNL     1       2.336   2.382  19.064  0.00  0.00    +0.000 A 
ATOM     15  N   UNL     1       2.698   2.431  20.322  0.00  0.00    +0.000 NA
ATOM     16  C   UNL     1       1.545   2.727  21.007  0.00  0.00    +0.000 A 
ATOM     17  O   UNL     1       1.395   2.709  22.221  0.00  0.00    +0.000 OA
ATOM     18  N   UNL     1       0.541   3.007  20.099  0.00  0.00    +0.000 N 
ATOM     19  N   UNL     1       0.988   2.580  18.838  0.00  0.00    +0.000 N 
ATOM     20  H   UNL     1      -0.406   2.803  20.396  0.00  0.00    +0.000 HD
ATOM     21  H   UNL     1       0.805   3.199  18.047  0.00  0.00    +0.000 HD
ENDBRANCH  13  14
ENDBRANCH   1  13
TORSDOF 6
ENDMDL
MODEL 2
REMARK VINA RESULT:      -7.3      3.812      6.712
REMARK  Name = 
REMARK  8 active torsions:
REMARK  status: ('A' for Active; 'I' for Inactive)
REMARK    1  A    between atoms: C_1  and  C_2
REMARK    2  A    between atoms: C_2  and  C_3
REMARK    3  A    between atoms: C_2  and  C_4
REMARK    4  A    between atoms: C_4  and  C_5
REMARK    5  A    between atoms: C_5  and  C_6
REMARK    6  A    between atoms: C_10  and  N_11
REMARK    7  A    between atoms: N_11  and  C_12
REMARK    8  A    between atoms: C_12  and  C_13
REMARK                            x       y       z     vdW  Elec       q    Type
REMARK                         _______ _______ _______ _____ _____    ______ ____
ROOT
ATOM      1  N   UNL     1       5.899   3.764  17.970  0.00  0.00    +0.000 NA
ATOM      2  H   UNL     1       5.658   3.062  17.266  0.00  0.00    +0.000 HD
ENDROOT
BRANCH   1   7
ATOM      3  C   UNL     1       3.424   4.154  17.516  0.00  0.00    +0.000 C 
ATOM      4  C   UNL     1       2.481   5.290  17.926  0.00  0.00    +0.000 C 
ATOM      5  C   UNL     1       3.389   6.500  18.028  0.00  0.00    +0.000 C 
ATOM      6  C   UNL     1       4.753   5.957  18.438  0.00  0.00    +0.000 C 
ATOM      7  C   UNL     1       4.653   4.416  18.418  0.00  0.00    +0.000 C 
BRANCH   3   8
ATOM      8  C   UNL     1       2.760   2.781  17.684  0.00  0.00    +0.000 C 
BRANCH   8   9
ATOM      9  C   UNL     1       2.975   2.152  19.078  0.00  0.00    +0.000 C 
BRANCH   9  11
ATOM     10  C   UNL     1       2.043   3.258  21.163  0.00  0.00    +0.000 C 
ATOM     11  C   UNL     1       1.772   2.265  20.034  0.00  0.00    +0.000 C 
ATOM     12  C   UNL     1       0.506   2.674  19.275  0.00  0.00    +0.000 C 
ENDBRANCH   9  11
ENDBRANCH   8   9
ENDBRANCH   3   8
ENDBRANCH   1   7
BRANCH   1  13
ATOM     13  C   UNL     1       6.788   4.763  17.331  0.00  0.00    +0.000 C 
BRANCH  13  14
ATOM     14  C   UNL     1       6.792   4.643  15.821  0.00  0.00    +0.000 A 
ATOM     15  N   UNL     1       7.577   5.382  15.077  0.00  0.00    +0.000 NA
ATOM     16  C   UNL     1       7.384   4.919  13.798  0.00  0.00    +0.000 A 
ATOM     17  O   UNL     1       7.799   5.430  12.768  0.00  0.00    +0.000 OA
ATOM     18  N   UNL     1       6.590   3.787  13.844  0.00  0.00    +0.000 N 
ATOM     19  N   UNL     1       6.028   3.724  15.129  0.00  0.00    +0.000 N 
ATOM     20  H   UNL     1       6.014   3.607  13.030  0.00  0.00    +0.000 HD
ATOM     21  H   UNL     1       6.004   2.808  15.580  0.00  0.00    +0.000 HD
ENDBRANCH  13  14
ENDBRANCH   1  13
TORSDOF 6
ENDMDL
MODEL 3
REMARK VINA RESULT:      -7.2      3.565      6.520
REMARK  Name = 
REMARK  8 active torsions:
REMARK  status: ('A' for Active; 'I' for Inactive)
REMARK    1  A    between atoms: C_1  and  C_2
REMARK    2  A    between atoms: C_2  and  C_3
REMARK    3  A    between atoms: C_2  and  C_4
REMARK    4  A    between atoms: C_4  and  C_5
REMARK    5  A    between atoms: C_5  and  C_6
REMARK    6  A    between atoms: C_10  and  N_11
REMARK    7  A    between atoms: N_11  and  C_12
REMARK    8  A    between atoms: C_12  and  C_13
REMARK                            x       y       z     vdW  Elec       q    Type
REMARK                         _______ _______ _______ _____ _____    ______ ____
ROOT
ATOM      1  N   UNL     1       3.366   4.795  17.515  0.00  0.00    +0.000 NA
ATOM      2  H   UNL     1       3.555   5.076  16.550  0.00  0.00    +0.000 HD
ENDROOT
BRANCH   1   7
ATOM      3  C   UNL     1       2.073   6.164  19.229  0.00  0.00    +0.000 C 
ATOM      4  C   UNL     1       2.105   7.657  19.572  0.00  0.00    +0.000 C 
ATOM      5  C   UNL     1       2.486   8.324  18.265  0.00  0.00    +0.000 C 
ATOM      6  C   UNL     1       3.357   7.313  17.527  0.00  0.00    +0.000 C 
ATOM      7  C   UNL     1       3.339   6.009  18.354  0.00  0.00    +0.000 C 
BRANCH   3   8
ATOM      8  C   UNL     1       2.033   5.295  20.494  0.00  0.00    +0.000 C 
BRANCH   8   9
ATOM      9  C   UNL     1       0.904   4.241  20.489  0.00  0.00    +0.000 C 
BRANCH   9  11
ATOM     10  C   UNL     1       1.406   2.152  19.137  0.00  0.00    +0.000 C 
ATOM     11  C   UNL     1       1.383   2.776  20.532  0.00  0.00    +0.000 C 
ATOM     12  C   UNL     1       2.771   2.673  21.170  0.00  0.00    +0.000 C 
ENDBRANCH   9  11
ENDBRANCH   8   9
ENDBRANCH   3   8
ENDBRANCH   1   7
BRANCH   1  13
ATOM     13  C   UNL     1       4.467   3.905  17.953  0.00  0.00    +0.000 C 
BRANCH  13  14
ATOM     14  C   UNL     1       5.763   4.194  17.223  0.00  0.00    +0.000 A 
ATOM     15  N   UNL     1       5.772   4.660  16.000  0.00  0.00    +0.000 NA
ATOM     16  C   UNL     1       7.097   4.897  15.725  0.00  0.00    +0.000 A 
ATOM     17  O   UNL     1       7.574   5.187  14.637  0.00  0.00    +0.000 OA
ATOM     18  N   UNL     1       7.836   4.709  16.878  0.00  0.00    +0.000 N 
ATOM     19  N   UNL     1       7.009   4.048  17.801  0.00  0.00    +0.000 N 
ATOM     20  H   UNL     1       8.796   4.411  16.755  0.00  0.00    +0.000 HD
ATOM     21  H   UNL     1       7.039   4.375  18.768  0.00  0.00    +0.000 HD
ENDBRANCH  13  14
ENDBRANCH   1  13
TORSDOF 6
ENDMDL
MODEL 4
REMARK VINA RESULT:      -7.2      3.445      6.824
REMARK  Name = 
REMARK  8 active torsions:
REMARK  status: ('A' for Active; 'I' for Inactive)
REMARK    1  A    between atoms: C_1  and  C_2
REMARK    2  A    between atoms: C_2  and  C_3
REMARK    3  A    between atoms: C_2  and  C_4
REMARK    4  A    between atoms: C_4  and  C_5
REMARK    5  A    between atoms: C_5  and  C_6
REMARK    6  A    between atoms: C_10  and  N_11
REMARK    7  A    between atoms: N_11  and  C_12
REMARK    8  A    between atoms: C_12  and  C_13
REMARK                            x       y       z     vdW  Elec       q    Type
REMARK                         _______ _______ _______ _____ _____    ______ ____
ROOT
ATOM      1  N   UNL     1       5.323   3.746  17.669  0.00  0.00    +0.000 NA
ATOM      2  H   UNL     1       4.919   3.338  16.822  0.00  0.00    +0.000 HD
ENDROOT
BRANCH   1   7
ATOM      3  C   UNL     1       2.956   4.679  17.572  0.00  0.00    +0.000 C 
ATOM      4  C   UNL     1       2.382   6.040  17.976  0.00  0.00    +0.000 C 
ATOM      5  C   UNL     1       3.537   7.000  17.772  0.00  0.00    +0.000 C 
ATOM      6  C   UNL     1       4.800   6.183  18.026  0.00  0.00    +0.000 C 
ATOM      7  C   UNL     1       4.358   4.716  18.222  0.00  0.00    +0.000 C 
BRANCH   3   8
ATOM      8  C   UNL     1       2.048   3.526  18.022  0.00  0.00    +0.000 C 
BRANCH   8   9
ATOM      9  C   UNL     1       2.388   2.976  19.423  0.00  0.00    +0.000 C 
BRANCH   9  11
ATOM     10  C   UNL     1       1.355   2.520  21.696  0.00  0.00    +0.000 C 
ATOM     11  C   UNL     1       1.524   3.538  20.569  0.00  0.00    +0.000 C 
ATOM     12  C   UNL     1       2.126   4.832  21.125  0.00  0.00    +0.000 C 
ENDBRANCH   9  11
ENDBRANCH   8   9
ENDBRANCH   3   8
ENDBRANCH   1   7
BRANCH   1  13
ATOM     13  C   UNL     1       6.575   4.442  17.287  0.00  0.00    +0.000 C 
BRANCH  13  14
ATOM     14  C   UNL     1       6.776   4.476  15.786  0.00  0.00    +0.000 A 
ATOM     15  N   UNL     1       6.099   3.692  14.985  0.00  0.00    +0.000 NA
ATOM     16  C   UNL     1       6.465   4.084  13.720  0.00  0.00    +0.000 A 
ATOM     17  O   UNL     1       6.193   3.512  12.674  0.00  0.00    +0.000 OA
ATOM     18  N   UNL     1       7.248   5.220  13.810  0.00  0.00    +0.000 N 
ATOM     19  N   UNL     1       7.629   5.359  15.154  0.00  0.00    +0.000 N 
ATOM     20  H   UNL     1       7.929   5.358  13.073  0.00  0.00    +0.000 HD
ATOM     21  H   UNL     1       7.593   6.299  15.552  0.00  0.00    +0.000 HD
ENDBRANCH  13  14
ENDBRANCH   1  13
TORSDOF 6
ENDMDL
MODEL 5
REMARK VINA RESULT:      -7.1      3.397      6.642
REMARK  Name = 
REMARK  8 active torsions:
REMARK  status: ('A' for Active; 'I' for Inactive)
REMARK    1  A    between atoms: C_1  and  C_2
REMARK    2  A    between atoms: C_2  and  C_3
REMARK    3  A    between atoms: C_2  and  C_4
REMARK    4  A    between atoms: C_4  and  C_5
REMARK    5  A    between atoms: C_5  and  C_6
REMARK    6  A    between atoms: C_10  and  N_11
REMARK    7  A    between atoms: N_11  and  C_12
REMARK    8  A    between atoms: C_12  and  C_13
REMARK                            x       y       z     vdW  Elec       q    Type
REMARK                         _______ _______ _______ _____ _____    ______ ____
ROOT
ATOM      1  N   UNL     1       4.248   4.772  17.706  0.00  0.00    +0.000 NA
ATOM      2  H   UNL     1       3.961   4.842  16.727  0.00  0.00    +0.000 HD
ENDROOT
BRANCH   1   7
ATOM      3  C   UNL     1       2.487   6.049  19.030  0.00  0.00    +0.000 C 
ATOM      4  C   UNL     1       2.231   7.550  19.198  0.00  0.00    +0.000 C 
ATOM      5  C   UNL     1       2.723   8.153  17.897  0.00  0.00    +0.000 C 
ATOM      6  C   UNL     1       3.851   7.243  17.424  0.00  0.00    +0.000 C 
ATOM      7  C   UNL     1       3.892   6.034  18.384  0.00  0.00    +0.000 C 
BRANCH   3   8
ATOM      8  C   UNL     1       2.365   5.302  20.366  0.00  0.00    +0.000 C 
BRANCH   8   9
ATOM      9  C   UNL     1       1.131   4.379  20.452  0.00  0.00    +0.000 C 
BRANCH   9  11
ATOM     10  C   UNL     1       0.887   2.454  18.815  0.00  0.00    +0.000 C 
ATOM     11  C   UNL     1       1.415   2.888  20.182  0.00  0.00    +0.000 C 
ATOM     12  C   UNL     1       2.914   2.591  20.278  0.00  0.00    +0.000 C 
ENDBRANCH   9  11
ENDBRANCH   8   9
ENDBRANCH   3   8
ENDBRANCH   1   7
BRANCH   1  13
ATOM     13  C   UNL     1       5.718   4.581  17.737  0.00  0.00    +0.000 C 
BRANCH  13  14
ATOM     14  C   UNL     1       6.331   4.627  16.353  0.00  0.00    +0.000 A 
ATOM     15  N   UNL     1       5.870   3.891  15.373  0.00  0.00    +0.000 NA
ATOM     16  C   UNL     1       6.592   4.282  14.272  0.00  0.00    +0.000 A 
ATOM     17  O   UNL     1       6.597   3.741  13.175  0.00  0.00    +0.000 OA
ATOM     18  N   UNL     1       7.368   5.376  14.608  0.00  0.00    +0.000 N 
ATOM     19  N   UNL     1       7.365   5.475  16.009  0.00  0.00    +0.000 N 
ATOM     20  H   UNL     1       8.233   5.490  14.094  0.00  0.00    +0.000 HD
ATOM     21  H   UNL     1       7.261   6.410  16.407  0.00  0.00    +0.000 HD
ENDBRANCH  13  14
ENDBRANCH   1  13
TORSDOF 6
ENDMDL
MODEL 6
REMARK VINA RESULT:      -7.1      3.778      6.929
REMARK  Name = 
REMARK  8 active torsions:
REMARK  status: ('A' for Active; 'I' for Inactive)
REMARK    1  A    between atoms: C_1  and  C_2
REMARK    2  A    between atoms: C_2  and  C_3
REMARK    3  A    between atoms: C_2  and  C_4
REMARK    4  A    between atoms: C_4  and  C_5
REMARK    5  A    between atoms: C_5  and  C_6
REMARK    6  A    between atoms: C_10  and  N_11
REMARK    7  A    between atoms: N_11  and  C_12
REMARK    8  A    between atoms: C_12  and  C_13
REMARK                            x       y       z     vdW  Elec       q    Type
REMARK                         _______ _______ _______ _____ _____    ______ ____
ROOT
ATOM      1  N   UNL     1       5.448   3.766  17.612  0.00  0.00    +0.000 NA
ATOM      2  H   UNL     1       5.010   3.304  16.810  0.00  0.00    +0.000 HD
ENDROOT
BRANCH   1   7
ATOM      3  C   UNL     1       3.077   4.693  17.530  0.00  0.00    +0.000 C 
ATOM      4  C   UNL     1       2.504   6.057  17.930  0.00  0.00    +0.000 C 
ATOM      5  C   UNL     1       3.656   7.017  17.705  0.00  0.00    +0.000 C 
ATOM      6  C   UNL     1       4.923   6.205  17.953  0.00  0.00    +0.000 C 
ATOM      7  C   UNL     1       4.486   4.739  18.166  0.00  0.00    +0.000 C 
BRANCH   3   8
ATOM      8  C   UNL     1       2.176   3.543  18.000  0.00  0.00    +0.000 C 
BRANCH   8   9
ATOM      9  C   UNL     1       2.493   3.046  19.426  0.00  0.00    +0.000 C 
BRANCH   9  11
ATOM     10  C   UNL     1       1.422   2.544  21.672  0.00  0.00    +0.000 C 
ATOM     11  C   UNL     1       1.521   3.539  20.517  0.00  0.00    +0.000 C 
ATOM     12  C   UNL     1       1.946   4.911  21.048  0.00  0.00    +0.000 C 
ENDBRANCH   9  11
ENDBRANCH   8   9
ENDBRANCH   3   8
ENDBRANCH   1   7
BRANCH   1  13
ATOM     13  C   UNL     1       6.656   4.473  17.126  0.00  0.00    +0.000 C 
BRANCH  13  14
ATOM     14  C   UNL     1       6.751   4.474  15.614  0.00  0.00    +0.000 A 
ATOM     15  N   UNL     1       7.542   5.300  14.977  0.00  0.00    +0.000 NA
ATOM     16  C   UNL     1       7.443   4.932  13.657  0.00  0.00    +0.000 A 
ATOM     17  O   UNL     1       7.892   5.541  12.696  0.00  0.00    +0.000 OA
ATOM     18  N   UNL     1       6.700   3.769  13.568  0.00  0.00    +0.000 N 
ATOM     19  N   UNL     1       6.070   3.582  14.810  0.00  0.00    +0.000 N 
ATOM     20  H   UNL     1       6.180   3.631  12.711  0.00  0.00    +0.000 HD
ATOM     21  H   UNL     1       6.062   2.633  15.187  0.00  0.00    +0.000 HD
ENDBRANCH  13  14
ENDBRANCH   1  13
TORSDOF 6
ENDMDL
MODEL 7
REMARK VINA RESULT:      -7.1      3.560      6.807
REMARK  Name = 
REMARK  8 active torsions:
REMARK  status: ('A' for Active; 'I' for Inactive)
REMARK    1  A    between atoms: C_1  and  C_2
REMARK    2  A    between atoms: C_2  and  C_3
REMARK    3  A    between atoms: C_2  and  C_4
REMARK    4  A    between atoms: C_4  and  C_5
REMARK    5  A    between atoms: C_5  and  C_6
REMARK    6  A    between atoms: C_10  and  N_11
REMARK    7  A    between atoms: N_11  and  C_12
REMARK    8  A    between atoms: C_12  and  C_13
REMARK                            x       y       z     vdW  Elec       q    Type
REMARK                         _______ _______ _______ _____ _____    ______ ____
ROOT
ATOM      1  N   UNL     1       5.776   3.975  17.601  0.00  0.00    +0.000 NA
ATOM      2  H   UNL     1       5.286   3.478  16.853  0.00  0.00    +0.000 HD
ENDROOT
BRANCH   1   7
ATOM      3  C   UNL     1       3.437   4.982  17.568  0.00  0.00    +0.000 C 
ATOM      4  C   UNL     1       2.935   6.398  17.871  0.00  0.00    +0.000 C 
ATOM      5  C   UNL     1       4.102   7.288  17.494  0.00  0.00    +0.000 C 
ATOM      6  C   UNL     1       5.354   6.453  17.743  0.00  0.00    +0.000 C 
ATOM      7  C   UNL     1       4.882   5.031  18.117  0.00  0.00    +0.000 C 
BRANCH   3   8
ATOM      8  C   UNL     1       2.528   3.915  18.193  0.00  0.00    +0.000 C 
BRANCH   8   9
ATOM      9  C   UNL     1       1.991   4.294  19.589  0.00  0.00    +0.000 C 
BRANCH   9  11
ATOM     10  C   UNL     1       0.600   2.212  19.176  0.00  0.00    +0.000 C 
ATOM     11  C   UNL     1       0.931   3.332  20.161  0.00  0.00    +0.000 C 
ATOM     12  C   UNL     1       1.397   2.732  21.491  0.00  0.00    +0.000 C 
ENDBRANCH   9  11
ENDBRANCH   8   9
ENDBRANCH   3   8
ENDBRANCH   1   7
BRANCH   1  13
ATOM     13  C   UNL     1       6.995   4.586  17.020  0.00  0.00    +0.000 C 
BRANCH  13  14
ATOM     14  C   UNL     1       6.997   4.532  15.506  0.00  0.00    +0.000 A 
ATOM     15  N   UNL     1       6.219   3.710  14.848  0.00  0.00    +0.000 NA
ATOM     16  C   UNL     1       6.416   4.026  13.525  0.00  0.00    +0.000 A 
ATOM     17  O   UNL     1       6.007   3.398  12.558  0.00  0.00    +0.000 OA
ATOM     18  N   UNL     1       7.205   5.159  13.445  0.00  0.00    +0.000 N 
ATOM     19  N   UNL     1       7.761   5.370  14.718  0.00  0.00    +0.000 N 
ATOM     20  H   UNL     1       7.784   5.248  12.619  0.00  0.00    +0.000 HD
ATOM     21  H   UNL     1       7.779   6.331  15.062  0.00  0.00    +0.000 HD
ENDBRANCH  13  14
ENDBRANCH   1  13
TORSDOF 6
ENDMDL
MODEL 8
REMARK VINA RESULT:      -6.9      3.882      6.899
REMARK  Name = 
REMARK  8 active torsions:
REMARK  status: ('A' for Active; 'I' for Inactive)
REMARK    1  A    between atoms: C_1  and  C_2
REMARK    2  A    between atoms: C_2  and  C_3
REMARK    3  A    between atoms: C_2  and  C_4
REMARK    4  A    between atoms: C_4  and  C_5
REMARK    5  A    between atoms: C_5  and  C_6
REMARK    6  A    between atoms: C_10  and  N_11
REMARK    7  A    between atoms: N_11  and  C_12
REMARK    8  A    between atoms: C_12  and  C_13
REMARK                            x       y       z     vdW  Elec       q    Type
REMARK                         _______ _______ _______ _____ _____    ______ ____
ROOT
ATOM      1  N   UNL     1       6.153   4.683  17.595  0.00  0.00    +0.000 NA
ATOM      2  H   UNL     1       6.349   3.900  18.223  0.00  0.00    +0.000 HD
ENDROOT
BRANCH   1   7
ATOM      3  C   UNL     1       3.807   4.963  18.545  0.00  0.00    +0.000 C 
ATOM      4  C   UNL     1       2.941   6.207  18.766  0.00  0.00    +0.000 C 
ATOM      5  C   UNL     1       3.391   7.164  17.680  0.00  0.00    +0.000 C 
ATOM      6  C   UNL     1       4.859   6.837  17.426  0.00  0.00    +0.000 C 
ATOM      7  C   UNL     1       5.195   5.585  18.265  0.00  0.00    +0.000 C 
BRANCH   3   8
ATOM      8  C   UNL     1       3.739   4.007  19.744  0.00  0.00    +0.000 C 
BRANCH   8   9
ATOM      9  C   UNL     1       3.180   2.611  19.396  0.00  0.00    +0.000 C 
BRANCH   9  11
ATOM     10  C   UNL     1       1.352   3.291  21.021  0.00  0.00    +0.000 C 
ATOM     11  C   UNL     1       1.741   2.348  19.883  0.00  0.00    +0.000 C 
ATOM     12  C   UNL     1       0.741   2.484  18.731  0.00  0.00    +0.000 C 
ENDBRANCH   9  11
ENDBRANCH   8   9
ENDBRANCH   3   8
ENDBRANCH   1   7
BRANCH   1  13
ATOM     13  C   UNL     1       5.548   4.136  16.358  0.00  0.00    +0.000 C 
BRANCH  13  14
ATOM     14  C   UNL     1       6.395   4.414  15.134  0.00  0.00    +0.000 A 
ATOM     15  N   UNL     1       6.125   3.869  13.974  0.00  0.00    +0.000 NA
ATOM     16  C   UNL     1       7.023   4.436  13.103  0.00  0.00    +0.000 A 
ATOM     17  O   UNL     1       7.229   4.097  11.947  0.00  0.00    +0.000 OA
ATOM     18  N   UNL     1       7.712   5.441  13.757  0.00  0.00    +0.000 N 
ATOM     19  N   UNL     1       7.461   5.293  15.131  0.00  0.00    +0.000 N 
ATOM     20  H   UNL     1       8.652   5.630  13.432  0.00  0.00    +0.000 HD
ATOM     21  H   UNL     1       7.275   6.144  15.663  0.00  0.00    +0.000 HD
ENDBRANCH  13  14
ENDBRANCH   1  13
TORSDOF 6
ENDMDL
MODEL 9
REMARK VINA RESULT:      -6.9      3.593      6.343
REMARK  Name = 
REMARK  8 active torsions:
REMARK  status: ('A' for Active; 'I' for Inactive)
REMARK    1  A    between atoms: C_1  and  C_2
REMARK    2  A    between atoms: C_2  and  C_3
REMARK    3  A    between atoms: C_2  and  C_4
REMARK    4  A    between atoms: C_4  and  C_5
REMARK    5  A    between atoms: C_5  and  C_6
REMARK    6  A    between atoms: C_10  and  N_11
REMARK    7  A    between atoms: N_11  and  C_12
REMARK    8  A    between atoms: C_12  and  C_13
REMARK                            x       y       z     vdW  Elec       q    Type
REMARK                         _______ _______ _______ _____ _____    ______ ____
ROOT
ATOM      1  N   UNL     1       4.206   2.912  17.928  0.00  0.00    +0.000 NA
ATOM      2  H   UNL     1       4.054   1.936  17.659  0.00  0.00    +0.000 HD
ENDROOT
BRANCH   1   7
ATOM      3  C   UNL     1       2.909   4.207  19.695  0.00  0.00    +0.000 C 
ATOM      4  C   UNL     1       1.415   4.250  20.034  0.00  0.00    +0.000 C 
ATOM      5  C   UNL     1       0.913   2.874  19.643  0.00  0.00    +0.000 C 
ATOM      6  C   UNL     1       1.799   2.425  18.487  0.00  0.00    +0.000 C 
ATOM      7  C   UNL     1       2.907   3.489  18.326  0.00  0.00    +0.000 C 
BRANCH   3   8
ATOM      8  C   UNL     1       3.531   5.610  19.706  0.00  0.00    +0.000 C 
BRANCH   8   9
ATOM      9  C   UNL     1       3.199   6.448  18.453  0.00  0.00    +0.000 C 
BRANCH   9  11
ATOM     10  C   UNL     1       1.930   7.905  20.099  0.00  0.00    +0.000 C 
ATOM     11  C   UNL     1       2.063   7.473  18.639  0.00  0.00    +0.000 C 
ATOM     12  C   UNL     1       2.284   8.702  17.752  0.00  0.00    +0.000 C 
ENDBRANCH   9  11
ENDBRANCH   8   9
ENDBRANCH   3   8
ENDBRANCH   1   7
BRANCH   1  13
ATOM     13  C   UNL     1       4.737   3.632  16.746  0.00  0.00    +0.000 C 
BRANCH  13  14
ATOM     14  C   UNL     1       5.900   4.535  17.100  0.00  0.00    +0.000 A 
ATOM     15  N   UNL     1       6.155   5.624  16.420  0.00  0.00    +0.000 NA
ATOM     16  C   UNL     1       7.191   6.224  17.094  0.00  0.00    +0.000 A 
ATOM     17  O   UNL     1       7.848   7.183  16.715  0.00  0.00    +0.000 OA
ATOM     18  N   UNL     1       7.421   5.535  18.272  0.00  0.00    +0.000 N 
ATOM     19  N   UNL     1       6.730   4.316  18.182  0.00  0.00    +0.000 N 
ATOM     20  H   UNL     1       8.368   5.556  18.629  0.00  0.00    +0.000 HD
ATOM     21  H   UNL     1       6.224   4.008  19.014  0.00  0.00    +0.000 HD
ENDBRANCH  13  14
ENDBRANCH   1  13
TORSDOF 6
ENDMDL
