MODEL 1
REMARK VINA RESULT:      -7.9      0.000      0.000
REMARK  Name = 
REMARK  7 active torsions:
REMARK  status: ('A' for Active; 'I' for Inactive)
REMARK    1  A    between atoms: C_1  and  C_2
REMARK    2  A    between atoms: C_2  and  C_3
REMARK    3  A    between atoms: C_2  and  C_4
REMARK    4  A    between atoms: C_7  and  N_8
REMARK    5  A    between atoms: C_9  and  C_11
REMARK    6  A    between atoms: C_18  and  C_19
REMARK    7  A    between atoms: C_19  and  O_21
REMARK                            x       y       z     vdW  Elec       q    Type
REMARK                         _______ _______ _______ _____ _____    ______ ____
ROOT
ATOM      1  N   UNL     1       2.056   7.262  20.479  0.00  0.00    +0.000 N 
ATOM      2  C   UNL     1       2.402   6.383  19.464  0.00  0.00    +0.000 C 
ATOM      3  O   UNL     1       2.302   6.621  18.264  0.00  0.00    +0.000 OA
ATOM      4  H   UNL     1       2.453   7.103  21.398  0.00  0.00    +0.000 HD
ENDROOT
BRANCH   2   5
ATOM      5  C   UNL     1       3.021   5.067  19.945  0.00  0.00    +0.000 C 
ATOM      6  C   UNL     1       2.052   4.326  20.914  0.00  0.00    +0.000 C 
ATOM      7  C   UNL     1       2.760   3.062  21.354  0.00  0.00    +0.000 C 
ATOM      8  C   UNL     1       3.079   2.229  20.353  0.00  0.00    +0.000 C 
ATOM      9  C   UNL     1       2.701   2.727  18.968  0.00  0.00    +0.000 C 
ATOM     10  C   UNL     1       1.171   2.946  18.978  0.00  0.00    +0.000 C 
ATOM     11  C   UNL     1       0.785   3.886  20.144  0.00  0.00    +0.000 C 
ATOM     12  C   UNL     1       3.368   4.114  18.742  0.00  0.00    +0.000 C 
BRANCH  12  13
ATOM     13  C   UNL     1       4.869   3.980  18.557  0.00  0.00    +0.000 C 
ATOM     14  O   UNL     1       5.720   4.308  19.369  0.00  0.00    +0.000 OA
BRANCH  13  15
ATOM     15  O   UNL     1       5.207   3.402  17.379  0.00  0.00    +0.000 OA
ATOM     16  H   UNL     1       4.578   2.716  17.077  0.00  0.00    +0.000 HD
ENDBRANCH  13  15
ENDBRANCH  12  13
ENDBRANCH   2   5
BRANCH   1  20
ATOM     17  C   UNL     1      -0.235  10.825  20.043  0.00  0.00    +0.000 A 
ATOM     18  C   UNL     1       0.653  10.423  19.038  0.00  0.00    +0.000 A 
ATOM     19  C   UNL     1       1.419   9.257  19.173  0.00  0.00    +0.000 A 
ATOM     20  C   UNL     1       1.318   8.462  20.313  0.00  0.00    +0.000 A 
ATOM     21  C   UNL     1       0.417   8.842  21.312  0.00  0.00    +0.000 A 
ATOM     22  C   UNL     1      -0.345  10.015  21.183  0.00  0.00    +0.000 A 
BRANCH  17  24
ATOM     23  C   UNL     1      -1.893  11.922  18.532  0.00  0.00    +0.000 C 
ATOM     24  C   UNL     1      -1.084  12.068  19.823  0.00  0.00    +0.000 C 
ATOM     25  C   UNL     1      -2.007  12.424  20.991  0.00  0.00    +0.000 C 
ENDBRANCH  17  24
ENDBRANCH   1  20
TORSDOF 5
ENDMDL
MODEL 2
REMARK VINA RESULT:      -7.9      0.916      1.250
REMARK  Name = 
REMARK  7 active torsions:
REMARK  status: ('A' for Active; 'I' for Inactive)
REMARK    1  A    between atoms: C_1  and  C_2
REMARK    2  A    between atoms: C_2  and  C_3
REMARK    3  A    between atoms: C_2  and  C_4
REMARK    4  A    between atoms: C_7  and  N_8
REMARK    5  A    between atoms: C_9  and  C_11
REMARK    6  A    between atoms: C_18  and  C_19
REMARK    7  A    between atoms: C_19  and  O_21
REMARK                            x       y       z     vdW  Elec       q    Type
REMARK                         _______ _______ _______ _____ _____    ______ ____
ROOT
ATOM      1  N   UNL     1       2.211   7.097  20.410  0.00  0.00    +0.000 N 
ATOM      2  C   UNL     1       2.865   6.525  19.329  0.00  0.00    +0.000 C 
ATOM      3  O   UNL     1       3.007   7.058  18.232  0.00  0.00    +0.000 OA
ATOM      4  H   UNL     1       2.410   6.728  21.332  0.00  0.00    +0.000 HD
ENDROOT
BRANCH   2   5
ATOM      5  C   UNL     1       3.499   5.162  19.618  0.00  0.00    +0.000 C 
ATOM      6  C   UNL     1       2.401   4.093  19.900  0.00  0.00    +0.000 C 
ATOM      7  C   UNL     1       3.123   2.796  20.200  0.00  0.00    +0.000 C 
ATOM      8  C   UNL     1       3.901   2.352  19.202  0.00  0.00    +0.000 C 
ATOM      9  C   UNL     1       3.938   3.251  17.978  0.00  0.00    +0.000 C 
ATOM     10  C   UNL     1       2.482   3.368  17.470  0.00  0.00    +0.000 C 
ATOM     11  C   UNL     1       1.568   3.856  18.618  0.00  0.00    +0.000 C 
ATOM     12  C   UNL     1       4.393   4.671  18.419  0.00  0.00    +0.000 C 
BRANCH  12  13
ATOM     13  C   UNL     1       5.867   4.689  18.785  0.00  0.00    +0.000 C 
ATOM     14  O   UNL     1       6.346   5.185  19.792  0.00  0.00    +0.000 OA
BRANCH  13  15
ATOM     15  O   UNL     1       6.644   4.044  17.880  0.00  0.00    +0.000 OA
ATOM     16  H   UNL     1       7.469   3.675  18.254  0.00  0.00    +0.000 HD
ENDBRANCH  13  15
ENDBRANCH  12  13
ENDBRANCH   2   5
BRANCH   1  20
ATOM     17  C   UNL     1      -0.279  10.550  20.333  0.00  0.00    +0.000 A 
ATOM     18  C   UNL     1       0.533  10.235  19.237  0.00  0.00    +0.000 A 
ATOM     19  C   UNL     1       1.364   9.106  19.253  0.00  0.00    +0.000 A 
ATOM     20  C   UNL     1       1.405   8.262  20.362  0.00  0.00    +0.000 A 
ATOM     21  C   UNL     1       0.579   8.556  21.452  0.00  0.00    +0.000 A 
ATOM     22  C   UNL     1      -0.247   9.692  21.442  0.00  0.00    +0.000 A 
BRANCH  17  24
ATOM     23  C   UNL     1      -0.410  13.039  20.501  0.00  0.00    +0.000 C 
ATOM     24  C   UNL     1      -1.203  11.756  20.242  0.00  0.00    +0.000 C 
ATOM     25  C   UNL     1      -1.978  11.866  18.926  0.00  0.00    +0.000 C 
ENDBRANCH  17  24
ENDBRANCH   1  20
TORSDOF 5
ENDMDL
MODEL 3
REMARK VINA RESULT:      -7.8      1.004      1.582
REMARK  Name = 
REMARK  7 active torsions:
REMARK  status: ('A' for Active; 'I' for Inactive)
REMARK    1  A    between atoms: C_1  and  C_2
REMARK    2  A    between atoms: C_2  and  C_3
REMARK    3  A    between atoms: C_2  and  C_4
REMARK    4  A    between atoms: C_7  and  N_8
REMARK    5  A    between atoms: C_9  and  C_11
REMARK    6  A    between atoms: C_18  and  C_19
REMARK    7  A    between atoms: C_19  and  O_21
REMARK                            x       y       z     vdW  Elec       q    Type
REMARK                         _______ _______ _______ _____ _____    ______ ____
ROOT
ATOM      1  N   UNL     1       2.240   7.248  20.153  0.00  0.00    +0.000 N 
ATOM      2  C   UNL     1       2.928   6.603  19.136  0.00  0.00    +0.000 C 
ATOM      3  O   UNL     1       3.107   7.057  18.010  0.00  0.00    +0.000 OA
ATOM      4  H   UNL     1       2.408   6.946  21.105  0.00  0.00    +0.000 HD
ENDROOT
BRANCH   2   5
ATOM      5  C   UNL     1       3.552   5.264  19.542  0.00  0.00    +0.000 C 
ATOM      6  C   UNL     1       2.444   4.222  19.881  0.00  0.00    +0.000 C 
ATOM      7  C   UNL     1       3.155   2.951  20.294  0.00  0.00    +0.000 C 
ATOM      8  C   UNL     1       3.953   2.431  19.351  0.00  0.00    +0.000 C 
ATOM      9  C   UNL     1       4.019   3.234  18.062  0.00  0.00    +0.000 C 
ATOM     10  C   UNL     1       2.575   3.314  17.516  0.00  0.00    +0.000 C 
ATOM     11  C   UNL     1       1.638   3.890  18.604  0.00  0.00    +0.000 C 
ATOM     12  C   UNL     1       4.469   4.682  18.404  0.00  0.00    +0.000 C 
BRANCH  12  13
ATOM     13  C   UNL     1       5.935   4.725  18.799  0.00  0.00    +0.000 C 
ATOM     14  O   UNL     1       6.390   5.261  19.797  0.00  0.00    +0.000 OA
BRANCH  13  15
ATOM     15  O   UNL     1       6.736   4.055  17.934  0.00  0.00    +0.000 OA
ATOM     16  H   UNL     1       6.653   3.082  17.987  0.00  0.00    +0.000 HD
ENDBRANCH  13  15
ENDBRANCH  12  13
ENDBRANCH   2   5
BRANCH   1  20
ATOM     17  C   UNL     1      -0.104  10.762  19.605  0.00  0.00    +0.000 A 
ATOM     18  C   UNL     1      -0.119  10.081  20.829  0.00  0.00    +0.000 A 
ATOM     19  C   UNL     1       0.641   8.918  21.019  0.00  0.00    +0.000 A 
ATOM     20  C   UNL     1       1.436   8.407  19.995  0.00  0.00    +0.000 A 
ATOM     21  C   UNL     1       1.477   9.093  18.777  0.00  0.00    +0.000 A 
ATOM     22  C   UNL     1       0.708  10.253  18.581  0.00  0.00    +0.000 A 
BRANCH  17  24
ATOM     23  C   UNL     1      -0.136  13.048  18.600  0.00  0.00    +0.000 C 
ATOM     24  C   UNL     1      -0.904  12.049  19.470  0.00  0.00    +0.000 C 
ATOM     25  C   UNL     1      -2.326  11.861  18.934  0.00  0.00    +0.000 C 
ENDBRANCH  17  24
ENDBRANCH   1  20
TORSDOF 5
ENDMDL
MODEL 4
REMARK VINA RESULT:      -7.8      0.273      1.036
REMARK  Name = 
REMARK  7 active torsions:
REMARK  status: ('A' for Active; 'I' for Inactive)
REMARK    1  A    between atoms: C_1  and  C_2
REMARK    2  A    between atoms: C_2  and  C_3
REMARK    3  A    between atoms: C_2  and  C_4
REMARK    4  A    between atoms: C_7  and  N_8
REMARK    5  A    between atoms: C_9  and  C_11
REMARK    6  A    between atoms: C_18  and  C_19
REMARK    7  A    between atoms: C_19  and  O_21
REMARK                            x       y       z     vdW  Elec       q    Type
REMARK                         _______ _______ _______ _____ _____    ______ ____
ROOT
ATOM      1  N   UNL     1       2.077   7.273  20.458  0.00  0.00    +0.000 N 
ATOM      2  C   UNL     1       2.405   6.381  19.449  0.00  0.00    +0.000 C 
ATOM      3  O   UNL     1       2.284   6.602  18.248  0.00  0.00    +0.000 OA
ATOM      4  H   UNL     1       2.490   7.128  21.371  0.00  0.00    +0.000 HD
ENDROOT
BRANCH   2   5
ATOM      5  C   UNL     1       3.034   5.072  19.938  0.00  0.00    +0.000 C 
ATOM      6  C   UNL     1       2.066   4.325  20.905  0.00  0.00    +0.000 C 
ATOM      7  C   UNL     1       2.783   3.069  21.352  0.00  0.00    +0.000 C 
ATOM      8  C   UNL     1       3.114   2.236  20.355  0.00  0.00    +0.000 C 
ATOM      9  C   UNL     1       2.739   2.726  18.967  0.00  0.00    +0.000 C 
ATOM     10  C   UNL     1       1.207   2.931  18.968  0.00  0.00    +0.000 C 
ATOM     11  C   UNL     1       0.807   3.872  20.130  0.00  0.00    +0.000 C 
ATOM     12  C   UNL     1       3.395   4.118  18.740  0.00  0.00    +0.000 C 
BRANCH  12  13
ATOM     13  C   UNL     1       4.898   3.997  18.563  0.00  0.00    +0.000 C 
ATOM     14  O   UNL     1       5.742   4.319  19.384  0.00  0.00    +0.000 OA
BRANCH  13  15
ATOM     15  O   UNL     1       5.248   3.437  17.378  0.00  0.00    +0.000 OA
ATOM     16  H   UNL     1       5.376   4.084  16.655  0.00  0.00    +0.000 HD
ENDBRANCH  13  15
ENDBRANCH  12  13
ENDBRANCH   2   5
BRANCH   1  20
ATOM     17  C   UNL     1      -0.069  10.907  19.884  0.00  0.00    +0.000 A 
ATOM     18  C   UNL     1      -0.255  10.147  21.046  0.00  0.00    +0.000 A 
ATOM     19  C   UNL     1       0.439   8.945  21.243  0.00  0.00    +0.000 A 
ATOM     20  C   UNL     1       1.336   8.471  20.288  0.00  0.00    +0.000 A 
ATOM     21  C   UNL     1       1.547   9.235  19.135  0.00  0.00    +0.000 A 
ATOM     22  C   UNL     1       0.845  10.435  18.931  0.00  0.00    +0.000 A 
BRANCH  17  24
ATOM     23  C   UNL     1      -1.049  12.537  18.265  0.00  0.00    +0.000 C 
ATOM     24  C   UNL     1      -0.804  12.232  19.745  0.00  0.00    +0.000 C 
ATOM     25  C   UNL     1      -2.117  12.316  20.529  0.00  0.00    +0.000 C 
ENDBRANCH  17  24
ENDBRANCH   1  20
TORSDOF 5
ENDMDL
MODEL 5
REMARK VINA RESULT:      -7.7      2.345      3.812
REMARK  Name = 
REMARK  7 active torsions:
REMARK  status: ('A' for Active; 'I' for Inactive)
REMARK    1  A    between atoms: C_1  and  C_2
REMARK    2  A    between atoms: C_2  and  C_3
REMARK    3  A    between atoms: C_2  and  C_4
REMARK    4  A    between atoms: C_7  and  N_8
REMARK    5  A    between atoms: C_9  and  C_11
REMARK    6  A    between atoms: C_18  and  C_19
REMARK    7  A    between atoms: C_19  and  O_21
REMARK                            x       y       z     vdW  Elec       q    Type
REMARK                         _______ _______ _______ _____ _____    ______ ____
ROOT
ATOM      1  N   UNL     1       3.407   7.011  18.230  0.00  0.00    +0.000 N 
ATOM      2  C   UNL     1       3.216   5.696  17.832  0.00  0.00    +0.000 C 
ATOM      3  O   UNL     1       2.123   5.172  17.640  0.00  0.00    +0.000 OA
ATOM      4  H   UNL     1       4.315   7.428  18.065  0.00  0.00    +0.000 HD
ENDROOT
BRANCH   2   5
ATOM      5  C   UNL     1       4.508   4.922  17.554  0.00  0.00    +0.000 C 
ATOM      6  C   UNL     1       4.754   4.795  16.021  0.00  0.00    +0.000 C 
ATOM      7  C   UNL     1       6.029   3.996  15.850  0.00  0.00    +0.000 C 
ATOM      8  C   UNL     1       7.112   4.555  16.409  0.00  0.00    +0.000 C 
ATOM      9  C   UNL     1       6.847   5.863  17.137  0.00  0.00    +0.000 C 
ATOM     10  C   UNL     1       6.255   6.838  16.093  0.00  0.00    +0.000 C 
ATOM     11  C   UNL     1       5.018   6.196  15.421  0.00  0.00    +0.000 C 
ATOM     12  C   UNL     1       5.755   5.617  18.216  0.00  0.00    +0.000 C 
BRANCH  12  13
ATOM     13  C   UNL     1       6.298   4.795  19.372  0.00  0.00    +0.000 C 
ATOM     14  O   UNL     1       7.194   5.133  20.129  0.00  0.00    +0.000 OA
BRANCH  13  15
ATOM     15  O   UNL     1       5.651   3.614  19.531  0.00  0.00    +0.000 OA
ATOM     16  H   UNL     1       6.246   2.841  19.610  0.00  0.00    +0.000 HD
ENDBRANCH  13  15
ENDBRANCH  12  13
ENDBRANCH   2   5
BRANCH   1  20
ATOM     17  C   UNL     1       0.394   9.697  19.586  0.00  0.00    +0.000 A 
ATOM     18  C   UNL     1       0.960   8.763  20.463  0.00  0.00    +0.000 A 
ATOM     19  C   UNL     1       1.946   7.867  20.026  0.00  0.00    +0.000 A 
ATOM     20  C   UNL     1       2.394   7.881  18.707  0.00  0.00    +0.000 A 
ATOM     21  C   UNL     1       1.852   8.827  17.830  0.00  0.00    +0.000 A 
ATOM     22  C   UNL     1       0.856   9.719  18.262  0.00  0.00    +0.000 A 
BRANCH  17  24
ATOM     23  C   UNL     1      -0.239  11.124  21.536  0.00  0.00    +0.000 C 
ATOM     24  C   UNL     1      -0.633  10.683  20.124  0.00  0.00    +0.000 C 
ATOM     25  C   UNL     1      -0.869  11.905  19.232  0.00  0.00    +0.000 C 
ENDBRANCH  17  24
ENDBRANCH   1  20
TORSDOF 5
ENDMDL
MODEL 6
REMARK VINA RESULT:      -7.6      2.352      3.699
REMARK  Name = 
REMARK  7 active torsions:
REMARK  status: ('A' for Active; 'I' for Inactive)
REMARK    1  A    between atoms: C_1  and  C_2
REMARK    2  A    between atoms: C_2  and  C_3
REMARK    3  A    between atoms: C_2  and  C_4
REMARK    4  A    between atoms: C_7  and  N_8
REMARK    5  A    between atoms: C_9  and  C_11
REMARK    6  A    between atoms: C_18  and  C_19
REMARK    7  A    between atoms: C_19  and  O_21
REMARK                            x       y       z     vdW  Elec       q    Type
REMARK                         _______ _______ _______ _____ _____    ______ ____
ROOT
ATOM      1  N   UNL     1       3.429   7.051  18.153  0.00  0.00    +0.000 N 
ATOM      2  C   UNL     1       3.220   5.723  17.815  0.00  0.00    +0.000 C 
ATOM      3  O   UNL     1       2.120   5.200  17.665  0.00  0.00    +0.000 OA
ATOM      4  H   UNL     1       4.337   7.453  17.954  0.00  0.00    +0.000 HD
ENDROOT
BRANCH   2   5
ATOM      5  C   UNL     1       4.501   4.926  17.547  0.00  0.00    +0.000 C 
ATOM      6  C   UNL     1       4.743   4.773  16.015  0.00  0.00    +0.000 C 
ATOM      7  C   UNL     1       6.006   3.955  15.854  0.00  0.00    +0.000 C 
ATOM      8  C   UNL     1       7.098   4.507  16.404  0.00  0.00    +0.000 C 
ATOM      9  C   UNL     1       6.852   5.829  17.112  0.00  0.00    +0.000 C 
ATOM     10  C   UNL     1       6.272   6.796  16.055  0.00  0.00    +0.000 C 
ATOM     11  C   UNL     1       5.026   6.161  15.394  0.00  0.00    +0.000 C 
ATOM     12  C   UNL     1       5.758   5.614  18.196  0.00  0.00    +0.000 C 
BRANCH  12  13
ATOM     13  C   UNL     1       6.292   4.802  19.364  0.00  0.00    +0.000 C 
ATOM     14  O   UNL     1       7.183   5.146  20.124  0.00  0.00    +0.000 OA
BRANCH  13  15
ATOM     15  O   UNL     1       5.642   3.623  19.529  0.00  0.00    +0.000 OA
ATOM     16  H   UNL     1       4.673   3.684  19.412  0.00  0.00    +0.000 HD
ENDBRANCH  13  15
ENDBRANCH  12  13
ENDBRANCH   2   5
BRANCH   1  20
ATOM     17  C   UNL     1       0.406   9.678  19.601  0.00  0.00    +0.000 A 
ATOM     18  C   UNL     1       0.819   9.738  18.264  0.00  0.00    +0.000 A 
ATOM     19  C   UNL     1       1.820   8.885  17.778  0.00  0.00    +0.000 A 
ATOM     20  C   UNL     1       2.431   7.950  18.610  0.00  0.00    +0.000 A 
ATOM     21  C   UNL     1       2.008   7.866  19.941  0.00  0.00    +0.000 A 
ATOM     22  C   UNL     1       1.013   8.727  20.433  0.00  0.00    +0.000 A 
BRANCH  17  24
ATOM     23  C   UNL     1      -0.511  10.971  21.532  0.00  0.00    +0.000 C 
ATOM     24  C   UNL     1      -0.722  10.588  20.064  0.00  0.00    +0.000 C 
ATOM     25  C   UNL     1      -0.918  11.844  19.210  0.00  0.00    +0.000 C 
ENDBRANCH  17  24
ENDBRANCH   1  20
TORSDOF 5
ENDMDL
MODEL 7
REMARK VINA RESULT:      -7.5      0.756      1.431
REMARK  Name = 
REMARK  7 active torsions:
REMARK  status: ('A' for Active; 'I' for Inactive)
REMARK    1  A    between atoms: C_1  and  C_2
REMARK    2  A    between atoms: C_2  and  C_3
REMARK    3  A    between atoms: C_2  and  C_4
REMARK    4  A    between atoms: C_7  and  N_8
REMARK    5  A    between atoms: C_9  and  C_11
REMARK    6  A    between atoms: C_18  and  C_19
REMARK    7  A    between atoms: C_19  and  O_21
REMARK                            x       y       z     vdW  Elec       q    Type
REMARK                         _______ _______ _______ _____ _____    ______ ____
ROOT
ATOM      1  N   UNL     1       2.310   6.878  20.382  0.00  0.00    +0.000 N 
ATOM      2  C   UNL     1       2.518   6.160  19.214  0.00  0.00    +0.000 C 
ATOM      3  O   UNL     1       2.279   6.572  18.083  0.00  0.00    +0.000 OA
ATOM      4  H   UNL     1       2.811   6.587  21.212  0.00  0.00    +0.000 HD
ENDROOT
BRANCH   2   5
ATOM      5  C   UNL     1       3.170   4.789  19.419  0.00  0.00    +0.000 C 
ATOM      6  C   UNL     1       2.375   3.953  20.465  0.00  0.00    +0.000 C 
ATOM      7  C   UNL     1       3.108   2.637  20.619  0.00  0.00    +0.000 C 
ATOM      8  C   UNL     1       3.204   1.922  19.488  0.00  0.00    +0.000 C 
ATOM      9  C   UNL     1       2.592   2.583  18.265  0.00  0.00    +0.000 C 
ATOM     10  C   UNL     1       1.099   2.819  18.589  0.00  0.00    +0.000 C 
ATOM     11  C   UNL     1       0.971   3.622  19.905  0.00  0.00    +0.000 C 
ATOM     12  C   UNL     1       3.252   3.978  18.073  0.00  0.00    +0.000 C 
BRANCH  12  13
ATOM     13  C   UNL     1       4.687   3.847  17.593  0.00  0.00    +0.000 C 
ATOM     14  O   UNL     1       5.043   3.738  16.430  0.00  0.00    +0.000 OA
BRANCH  13  15
ATOM     15  O   UNL     1       5.590   3.903  18.602  0.00  0.00    +0.000 OA
ATOM     16  H   UNL     1       5.567   4.738  19.111  0.00  0.00    +0.000 HD
ENDBRANCH  13  15
ENDBRANCH  12  13
ENDBRANCH   2   5
BRANCH   1  20
ATOM     17  C   UNL     1       0.170  10.553  20.611  0.00  0.00    +0.000 A 
ATOM     18  C   UNL     1       0.237   9.700  21.719  0.00  0.00    +0.000 A 
ATOM     19  C   UNL     1       0.931   8.483  21.653  0.00  0.00    +0.000 A 
ATOM     20  C   UNL     1       1.576   8.088  20.483  0.00  0.00    +0.000 A 
ATOM     21  C   UNL     1       1.534   8.945  19.378  0.00  0.00    +0.000 A 
ATOM     22  C   UNL     1       0.831  10.160  19.438  0.00  0.00    +0.000 A 
BRANCH  17  24
ATOM     23  C   UNL     1      -1.775  11.916  19.835  0.00  0.00    +0.000 C 
ATOM     24  C   UNL     1      -0.549  11.887  20.751  0.00  0.00    +0.000 C 
ATOM     25  C   UNL     1      -0.948  12.246  22.185  0.00  0.00    +0.000 C 
ENDBRANCH  17  24
ENDBRANCH   1  20
TORSDOF 5
ENDMDL
MODEL 8
REMARK VINA RESULT:      -7.5      0.911      1.237
REMARK  Name = 
REMARK  7 active torsions:
REMARK  status: ('A' for Active; 'I' for Inactive)
REMARK    1  A    between atoms: C_1  and  C_2
REMARK    2  A    between atoms: C_2  and  C_3
REMARK    3  A    between atoms: C_2  and  C_4
REMARK    4  A    between atoms: C_7  and  N_8
REMARK    5  A    between atoms: C_9  and  C_11
REMARK    6  A    between atoms: C_18  and  C_19
REMARK    7  A    between atoms: C_19  and  O_21
REMARK                            x       y       z     vdW  Elec       q    Type
REMARK                         _______ _______ _______ _____ _____    ______ ____
ROOT
ATOM      1  N   UNL     1       2.234   7.152  20.586  0.00  0.00    +0.000 N 
ATOM      2  C   UNL     1       2.520   6.583  19.354  0.00  0.00    +0.000 C 
ATOM      3  O   UNL     1       2.345   7.130  18.269  0.00  0.00    +0.000 OA
ATOM      4  H   UNL     1       2.687   6.763  21.404  0.00  0.00    +0.000 HD
ENDROOT
BRANCH   2   5
ATOM      5  C   UNL     1       3.172   5.199  19.429  0.00  0.00    +0.000 C 
ATOM      6  C   UNL     1       2.438   4.301  20.470  0.00  0.00    +0.000 C 
ATOM      7  C   UNL     1       3.169   2.975  20.492  0.00  0.00    +0.000 C 
ATOM      8  C   UNL     1       3.187   2.334  19.315  0.00  0.00    +0.000 C 
ATOM      9  C   UNL     1       2.503   3.074  18.178  0.00  0.00    +0.000 C 
ATOM     10  C   UNL     1       1.036   3.295  18.611  0.00  0.00    +0.000 C 
ATOM     11  C   UNL     1       0.999   4.012  19.981  0.00  0.00    +0.000 C 
ATOM     12  C   UNL     1       3.162   4.475  18.033  0.00  0.00    +0.000 C 
BRANCH  12  13
ATOM     13  C   UNL     1       4.562   4.369  17.454  0.00  0.00    +0.000 C 
ATOM     14  O   UNL     1       4.856   3.853  16.388  0.00  0.00    +0.000 OA
BRANCH  13  15
ATOM     15  O   UNL     1       5.503   4.957  18.234  0.00  0.00    +0.000 OA
ATOM     16  H   UNL     1       6.408   4.615  18.092  0.00  0.00    +0.000 HD
ENDBRANCH  13  15
ENDBRANCH  12  13
ENDBRANCH   2   5
BRANCH   1  20
ATOM     17  C   UNL     1      -0.063  10.670  21.286  0.00  0.00    +0.000 A 
ATOM     18  C   UNL     1       0.320  10.318  19.985  0.00  0.00    +0.000 A 
ATOM     19  C   UNL     1       1.084   9.168  19.743  0.00  0.00    +0.000 A 
ATOM     20  C   UNL     1       1.483   8.338  20.789  0.00  0.00    +0.000 A 
ATOM     21  C   UNL     1       1.084   8.668  22.089  0.00  0.00    +0.000 A 
ATOM     22  C   UNL     1       0.328   9.826  22.336  0.00  0.00    +0.000 A 
BRANCH  17  24
ATOM     23  C   UNL     1      -1.880  12.068  20.294  0.00  0.00    +0.000 C 
ATOM     24  C   UNL     1      -0.938  11.898  21.489  0.00  0.00    +0.000 C 
ATOM     25  C   UNL     1      -1.733  11.903  22.797  0.00  0.00    +0.000 C 
ENDBRANCH  17  24
ENDBRANCH   1  20
TORSDOF 5
ENDMDL
MODEL 9
REMARK VINA RESULT:      -7.4      1.437      1.855
REMARK  Name = 
REMARK  7 active torsions:
REMARK  status: ('A' for Active; 'I' for Inactive)
REMARK    1  A    between atoms: C_1  and  C_2
REMARK    2  A    between atoms: C_2  and  C_3
REMARK    3  A    between atoms: C_2  and  C_4
REMARK    4  A    between atoms: C_7  and  N_8
REMARK    5  A    between atoms: C_9  and  C_11
REMARK    6  A    between atoms: C_18  and  C_19
REMARK    7  A    between atoms: C_19  and  O_21
REMARK                            x       y       z     vdW  Elec       q    Type
REMARK                         _______ _______ _______ _____ _____    ______ ____
ROOT
ATOM      1  N   UNL     1       2.595   6.647  18.930  0.00  0.00    +0.000 N 
ATOM      2  C   UNL     1       2.419   5.699  19.927  0.00  0.00    +0.000 C 
ATOM      3  O   UNL     1       1.651   5.813  20.877  0.00  0.00    +0.000 OA
ATOM      4  H   UNL     1       3.001   6.342  18.053  0.00  0.00    +0.000 HD
ENDROOT
BRANCH   2   5
ATOM      5  C   UNL     1       3.215   4.407  19.722  0.00  0.00    +0.000 C 
ATOM      6  C   UNL     1       2.260   3.176  19.663  0.00  0.00    +0.000 C 
ATOM      7  C   UNL     1       3.136   1.954  19.489  0.00  0.00    +0.000 C 
ATOM      8  C   UNL     1       3.885   1.964  18.377  0.00  0.00    +0.000 C 
ATOM      9  C   UNL     1       3.738   3.213  17.524  0.00  0.00    +0.000 C 
ATOM     10  C   UNL     1       2.246   3.308  17.131  0.00  0.00    +0.000 C 
ATOM     11  C   UNL     1       1.368   3.273  18.404  0.00  0.00    +0.000 C 
ATOM     12  C   UNL     1       4.068   4.453  18.401  0.00  0.00    +0.000 C 
BRANCH  12  13
ATOM     13  C   UNL     1       5.555   4.533  18.705  0.00  0.00    +0.000 C 
ATOM     14  O   UNL     1       6.048   4.868  19.771  0.00  0.00    +0.000 OA
BRANCH  13  15
ATOM     15  O   UNL     1       6.329   4.146  17.662  0.00  0.00    +0.000 OA
ATOM     16  H   UNL     1       7.199   3.784  17.924  0.00  0.00    +0.000 HD
ENDBRANCH  13  15
ENDBRANCH  12  13
ENDBRANCH   2   5
BRANCH   1  20
ATOM     17  C   UNL     1       1.069  10.619  19.116  0.00  0.00    +0.000 A 
ATOM     18  C   UNL     1       1.681  10.147  17.948  0.00  0.00    +0.000 A 
ATOM     19  C   UNL     1       2.196   8.844  17.877  0.00  0.00    +0.000 A 
ATOM     20  C   UNL     1       2.111   7.980  18.967  0.00  0.00    +0.000 A 
ATOM     21  C   UNL     1       1.479   8.434  20.129  0.00  0.00    +0.000 A 
ATOM     22  C   UNL     1       0.972   9.742  20.206  0.00  0.00    +0.000 A 
BRANCH  17  24
ATOM     23  C   UNL     1       1.470  13.005  18.496  0.00  0.00    +0.000 C 
ATOM     24  C   UNL     1       0.478  12.021  19.122  0.00  0.00    +0.000 C 
ATOM     25  C   UNL     1      -0.889  12.138  18.441  0.00  0.00    +0.000 C 
ENDBRANCH  17  24
ENDBRANCH   1  20
TORSDOF 5
ENDMDL
