MODEL 1
REMARK VINA RESULT:      -8.3      0.000      0.000
REMARK  Name = 
REMARK  5 active torsions:
REMARK  status: ('A' for Active; 'I' for Inactive)
REMARK    1  A    between atoms: C_1  and  N_2
REMARK    2  A    between atoms: C_4  and  N_5
REMARK    3  A    between atoms: C_6  and  C_8
REMARK    4  A    between atoms: C_8  and  N_9
REMARK    5  A    between atoms: C_11  and  C_12
REMARK                            x       y       z     vdW  Elec       q    Type
REMARK                         _______ _______ _______ _____ _____    ______ ____
ROOT
ATOM      1  N   UNL     1       6.632   5.435  17.806  0.00  0.00    +0.000 N 
ATOM      2  C   UNL     1       5.427   5.360  18.479  0.00  0.00    +0.000 A 
ATOM      3  C   UNL     1       4.365   4.725  17.945  0.00  0.00    +0.000 A 
ATOM      4  N   UNL     1       4.388   4.176  16.676  0.00  0.00    +0.000 NA
ATOM      5  C   UNL     1       5.522   4.175  16.048  0.00  0.00    +0.000 A 
ATOM      6  C   UNL     1       6.797   4.761  16.605  0.00  0.00    +0.000 A 
ATOM      7  O   UNL     1       7.834   4.630  15.976  0.00  0.00    +0.000 OA
ENDROOT
BRANCH   3   8
ATOM      8  C   UNL     1       3.142   4.497  18.764  0.00  0.00    +0.000 A 
ATOM      9  C   UNL     1       2.904   5.135  19.993  0.00  0.00    +0.000 A 
ATOM     10  C   UNL     1       1.777   4.817  20.759  0.00  0.00    +0.000 A 
ATOM     11  C   UNL     1       0.860   3.875  20.300  0.00  0.00    +0.000 A 
ATOM     12  C   UNL     1       1.059   3.260  19.069  0.00  0.00    +0.000 A 
ATOM     13  C   UNL     1       2.187   3.570  18.310  0.00  0.00    +0.000 A 
ENDBRANCH   3   8
BRANCH   1  14
ATOM     14  C   UNL     1       7.779   6.102  18.411  0.00  0.00    +0.000 C 
BRANCH  14  16
ATOM     15  N   UNL     1       8.698   8.318  18.984  0.00  0.00    +0.000 N 
ATOM     16  C   UNL     1       7.885   7.602  18.120  0.00  0.00    +0.000 C 
ATOM     17  O   UNL     1       7.291   8.068  17.147  0.00  0.00    +0.000 OA
ATOM     18  H   UNL     1       9.150   7.820  19.740  0.00  0.00    +0.000 HD
BRANCH  15  22
ATOM     19  C   UNL     1       9.873  12.982  19.962  0.00  0.00    +0.000 C 
ATOM     20  N   UNL     1       9.478  11.764  19.300  0.00  0.00    +0.000 N 
ATOM     21  C   UNL     1       9.360  10.533  19.876  0.00  0.00    +0.000 A 
ATOM     22  C   UNL     1       8.956   9.673  18.885  0.00  0.00    +0.000 A 
ATOM     23  C   UNL     1       8.861  10.494  17.736  0.00  0.00    +0.000 A 
ATOM     24  N   UNL     1       9.173  11.771  17.989  0.00  0.00    +0.000 NA
ENDBRANCH  15  22
ENDBRANCH  14  16
ENDBRANCH   1  14
TORSDOF 4
ENDMDL
MODEL 2
REMARK VINA RESULT:      -8.2      3.855      6.767
REMARK  Name = 
REMARK  5 active torsions:
REMARK  status: ('A' for Active; 'I' for Inactive)
REMARK    1  A    between atoms: C_1  and  N_2
REMARK    2  A    between atoms: C_4  and  N_5
REMARK    3  A    between atoms: C_6  and  C_8
REMARK    4  A    between atoms: C_8  and  N_9
REMARK    5  A    between atoms: C_11  and  C_12
REMARK                            x       y       z     vdW  Elec       q    Type
REMARK                         _______ _______ _______ _____ _____    ______ ____
ROOT
ATOM      1  N   UNL     1       5.151   4.617  17.941  0.00  0.00    +0.000 N 
ATOM      2  C   UNL     1       5.245   4.525  16.565  0.00  0.00    +0.000 A 
ATOM      3  C   UNL     1       6.378   4.860  15.916  0.00  0.00    +0.000 A 
ATOM      4  N   UNL     1       7.482   5.377  16.568  0.00  0.00    +0.000 NA
ATOM      5  C   UNL     1       7.446   5.415  17.863  0.00  0.00    +0.000 A 
ATOM      6  C   UNL     1       6.268   4.958  18.689  0.00  0.00    +0.000 A 
ATOM      7  O   UNL     1       6.365   4.947  19.905  0.00  0.00    +0.000 OA
ENDROOT
BRANCH   3   8
ATOM      8  C   UNL     1       6.516   4.577  14.461  0.00  0.00    +0.000 A 
ATOM      9  C   UNL     1       5.723   3.641  13.776  0.00  0.00    +0.000 A 
ATOM     10  C   UNL     1       5.956   3.356  12.426  0.00  0.00    +0.000 A 
ATOM     11  C   UNL     1       6.968   4.015  11.734  0.00  0.00    +0.000 A 
ATOM     12  C   UNL     1       7.740   4.972  12.385  0.00  0.00    +0.000 A 
ATOM     13  C   UNL     1       7.514   5.249  13.733  0.00  0.00    +0.000 A 
ENDBRANCH   3   8
BRANCH   1  14
ATOM     14  C   UNL     1       3.926   4.223  18.629  0.00  0.00    +0.000 C 
BRANCH  14  16
ATOM     15  N   UNL     1       3.054   6.314  19.605  0.00  0.00    +0.000 N 
ATOM     16  C   UNL     1       2.839   5.301  18.684  0.00  0.00    +0.000 C 
ATOM     17  O   UNL     1       1.885   5.232  17.909  0.00  0.00    +0.000 OA
ATOM     18  H   UNL     1       3.888   6.272  20.177  0.00  0.00    +0.000 HD
BRANCH  15  22
ATOM     19  C   UNL     1      -0.128   9.542  21.485  0.00  0.00    +0.000 C 
ATOM     20  N   UNL     1       0.796   8.854  20.620  0.00  0.00    +0.000 N 
ATOM     21  C   UNL     1       1.451   7.691  20.899  0.00  0.00    +0.000 A 
ATOM     22  C   UNL     1       2.217   7.397  19.798  0.00  0.00    +0.000 A 
ATOM     23  C   UNL     1       1.950   8.459  18.901  0.00  0.00    +0.000 A 
ATOM     24  N   UNL     1       1.079   9.345  19.398  0.00  0.00    +0.000 NA
ENDBRANCH  15  22
ENDBRANCH  14  16
ENDBRANCH   1  14
TORSDOF 4
ENDMDL
MODEL 3
REMARK VINA RESULT:      -8.2      3.898      6.621
REMARK  Name = 
REMARK  5 active torsions:
REMARK  status: ('A' for Active; 'I' for Inactive)
REMARK    1  A    between atoms: C_1  and  N_2
REMARK    2  A    between atoms: C_4  and  N_5
REMARK    3  A    between atoms: C_6  and  C_8
REMARK    4  A    between atoms: C_8  and  N_9
REMARK    5  A    between atoms: C_11  and  C_12
REMARK                            x       y       z     vdW  Elec       q    Type
REMARK                         _______ _______ _______ _____ _____    ______ ____
ROOT
ATOM      1  N   UNL     1       5.124   4.610  17.805  0.00  0.00    +0.000 N 
ATOM      2  C   UNL     1       5.292   4.525  16.435  0.00  0.00    +0.000 A 
ATOM      3  C   UNL     1       6.468   4.832  15.853  0.00  0.00    +0.000 A 
ATOM      4  N   UNL     1       7.548   5.313  16.569  0.00  0.00    +0.000 NA
ATOM      5  C   UNL     1       7.441   5.344  17.860  0.00  0.00    +0.000 A 
ATOM      6  C   UNL     1       6.207   4.916  18.616  0.00  0.00    +0.000 A 
ATOM      7  O   UNL     1       6.236   4.894  19.835  0.00  0.00    +0.000 OA
ENDROOT
BRANCH   3   8
ATOM      8  C   UNL     1       6.678   4.554  14.405  0.00  0.00    +0.000 A 
ATOM      9  C   UNL     1       7.633   5.222  13.620  0.00  0.00    +0.000 A 
ATOM     10  C   UNL     1       7.728   4.979  12.245  0.00  0.00    +0.000 A 
ATOM     11  C   UNL     1       6.887   4.050  11.638  0.00  0.00    +0.000 A 
ATOM     12  C   UNL     1       5.960   3.352  12.404  0.00  0.00    +0.000 A 
ATOM     13  C   UNL     1       5.859   3.602  13.773  0.00  0.00    +0.000 A 
ENDBRANCH   3   8
BRANCH   1  14
ATOM     14  C   UNL     1       3.853   4.247  18.420  0.00  0.00    +0.000 C 
BRANCH  14  16
ATOM     15  N   UNL     1       3.169   6.581  18.835  0.00  0.00    +0.000 N 
ATOM     16  C   UNL     1       2.776   5.335  18.372  0.00  0.00    +0.000 C 
ATOM     17  O   UNL     1       1.669   5.064  17.906  0.00  0.00    +0.000 OA
ATOM     18  H   UNL     1       4.114   6.687  19.179  0.00  0.00    +0.000 HD
BRANCH  15  22
ATOM     19  C   UNL     1       0.148  10.201  20.196  0.00  0.00    +0.000 C 
ATOM     20  N   UNL     1       1.017   9.335  19.440  0.00  0.00    +0.000 N 
ATOM     21  C   UNL     1       1.657   8.225  19.908  0.00  0.00    +0.000 A 
ATOM     22  C   UNL     1       2.366   7.706  18.853  0.00  0.00    +0.000 A 
ATOM     23  C   UNL     1       2.084   8.589  17.783  0.00  0.00    +0.000 A 
ATOM     24  N   UNL     1       1.256   9.580  18.139  0.00  0.00    +0.000 NA
ENDBRANCH  15  22
ENDBRANCH  14  16
ENDBRANCH   1  14
TORSDOF 4
ENDMDL
MODEL 4
REMARK VINA RESULT:      -8.2      0.475      1.110
REMARK  Name = 
REMARK  5 active torsions:
REMARK  status: ('A' for Active; 'I' for Inactive)
REMARK    1  A    between atoms: C_1  and  N_2
REMARK    2  A    between atoms: C_4  and  N_5
REMARK    3  A    between atoms: C_6  and  C_8
REMARK    4  A    between atoms: C_8  and  N_9
REMARK    5  A    between atoms: C_11  and  C_12
REMARK                            x       y       z     vdW  Elec       q    Type
REMARK                         _______ _______ _______ _____ _____    ______ ____
ROOT
ATOM      1  N   UNL     1       6.617   5.872  17.674  0.00  0.00    +0.000 N 
ATOM      2  C   UNL     1       5.478   5.612  18.413  0.00  0.00    +0.000 A 
ATOM      3  C   UNL     1       4.387   5.059  17.846  0.00  0.00    +0.000 A 
ATOM      4  N   UNL     1       4.311   4.785  16.494  0.00  0.00    +0.000 NA
ATOM      5  C   UNL     1       5.384   4.959  15.788  0.00  0.00    +0.000 A 
ATOM      6  C   UNL     1       6.690   5.467  16.349  0.00  0.00    +0.000 A 
ATOM      7  O   UNL     1       7.670   5.511  15.624  0.00  0.00    +0.000 OA
ENDROOT
BRANCH   3   8
ATOM      8  C   UNL     1       3.247   4.619  18.697  0.00  0.00    +0.000 A 
ATOM      9  C   UNL     1       2.285   3.684  18.278  0.00  0.00    +0.000 A 
ATOM     10  C   UNL     1       1.189   3.372  19.089  0.00  0.00    +0.000 A 
ATOM     11  C   UNL     1       1.047   3.971  20.338  0.00  0.00    +0.000 A 
ATOM     12  C   UNL     1       2.007   4.871  20.786  0.00  0.00    +0.000 A 
ATOM     13  C   UNL     1       3.096   5.190  19.973  0.00  0.00    +0.000 A 
ENDBRANCH   3   8
BRANCH   1  14
ATOM     14  C   UNL     1       7.799   6.445  18.309  0.00  0.00    +0.000 C 
BRANCH  14  16
ATOM     15  N   UNL     1       8.816   8.569  19.044  0.00  0.00    +0.000 N 
ATOM     16  C   UNL     1       7.950   7.961  18.149  0.00  0.00    +0.000 C 
ATOM     17  O   UNL     1       7.344   8.532  17.242  0.00  0.00    +0.000 OA
ATOM     18  H   UNL     1       9.273   7.990  19.737  0.00  0.00    +0.000 HD
BRANCH  15  22
ATOM     19  C   UNL     1       9.818  13.166  20.437  0.00  0.00    +0.000 C 
ATOM     20  N   UNL     1       9.571  11.979  19.658  0.00  0.00    +0.000 N 
ATOM     21  C   UNL     1       9.288  10.737  20.145  0.00  0.00    +0.000 A 
ATOM     22  C   UNL     1       9.120   9.917  19.057  0.00  0.00    +0.000 A 
ATOM     23  C   UNL     1       9.328  10.771  17.948  0.00  0.00    +0.000 A 
ATOM     24  N   UNL     1       9.597  12.031  18.313  0.00  0.00    +0.000 NA
ENDBRANCH  15  22
ENDBRANCH  14  16
ENDBRANCH   1  14
TORSDOF 4
ENDMDL
MODEL 5
REMARK VINA RESULT:      -8.1      4.043      6.022
REMARK  Name = 
REMARK  5 active torsions:
REMARK  status: ('A' for Active; 'I' for Inactive)
REMARK    1  A    between atoms: C_1  and  N_2
REMARK    2  A    between atoms: C_4  and  N_5
REMARK    3  A    between atoms: C_6  and  C_8
REMARK    4  A    between atoms: C_8  and  N_9
REMARK    5  A    between atoms: C_11  and  C_12
REMARK                            x       y       z     vdW  Elec       q    Type
REMARK                         _______ _______ _______ _____ _____    ______ ____
ROOT
ATOM      1  N   UNL     1       5.148   5.127  18.971  0.00  0.00    +0.000 N 
ATOM      2  C   UNL     1       4.376   6.271  18.880  0.00  0.00    +0.000 A 
ATOM      3  C   UNL     1       3.050   6.241  19.117  0.00  0.00    +0.000 A 
ATOM      4  N   UNL     1       2.371   5.069  19.395  0.00  0.00    +0.000 NA
ATOM      5  C   UNL     1       3.077   3.993  19.550  0.00  0.00    +0.000 A 
ATOM      6  C   UNL     1       4.580   3.943  19.416  0.00  0.00    +0.000 A 
ATOM      7  O   UNL     1       5.163   2.902  19.670  0.00  0.00    +0.000 OA
ENDROOT
BRANCH   3   8
ATOM      8  C   UNL     1       2.278   7.512  19.196  0.00  0.00    +0.000 A 
ATOM      9  C   UNL     1       1.689   7.988  20.379  0.00  0.00    +0.000 A 
ATOM     10  C   UNL     1       0.903   9.145  20.374  0.00  0.00    +0.000 A 
ATOM     11  C   UNL     1       0.711   9.856  19.192  0.00  0.00    +0.000 A 
ATOM     12  C   UNL     1       1.314   9.422  18.017  0.00  0.00    +0.000 A 
ATOM     13  C   UNL     1       2.090   8.262  18.021  0.00  0.00    +0.000 A 
ENDBRANCH   3   8
BRANCH   1  14
ATOM     14  C   UNL     1       6.587   5.183  18.738  0.00  0.00    +0.000 C 
BRANCH  14  16
ATOM     15  N   UNL     1       6.139   4.920  16.326  0.00  0.00    +0.000 N 
ATOM     16  C   UNL     1       7.039   4.697  17.357  0.00  0.00    +0.000 C 
ATOM     17  O   UNL     1       8.152   4.185  17.235  0.00  0.00    +0.000 OA
ATOM     18  H   UNL     1       5.259   5.367  16.547  0.00  0.00    +0.000 HD
BRANCH  15  22
ATOM     19  C   UNL     1       5.891   2.878  11.870  0.00  0.00    +0.000 C 
ATOM     20  N   UNL     1       6.264   3.689  13.002  0.00  0.00    +0.000 N 
ATOM     21  C   UNL     1       5.689   3.664  14.238  0.00  0.00    +0.000 A 
ATOM     22  C   UNL     1       6.358   4.588  15.002  0.00  0.00    +0.000 A 
ATOM     23  C   UNL     1       7.328   5.123  14.121  0.00  0.00    +0.000 A 
ATOM     24  N   UNL     1       7.276   4.571  12.902  0.00  0.00    +0.000 NA
ENDBRANCH  15  22
ENDBRANCH  14  16
ENDBRANCH   1  14
TORSDOF 4
ENDMDL
MODEL 6
REMARK VINA RESULT:      -8.1      3.745      6.711
REMARK  Name = 
REMARK  5 active torsions:
REMARK  status: ('A' for Active; 'I' for Inactive)
REMARK    1  A    between atoms: C_1  and  N_2
REMARK    2  A    between atoms: C_4  and  N_5
REMARK    3  A    between atoms: C_6  and  C_8
REMARK    4  A    between atoms: C_8  and  N_9
REMARK    5  A    between atoms: C_11  and  C_12
REMARK                            x       y       z     vdW  Elec       q    Type
REMARK                         _______ _______ _______ _____ _____    ______ ____
ROOT
ATOM      1  N   UNL     1       5.194   4.690  17.913  0.00  0.00    +0.000 N 
ATOM      2  C   UNL     1       5.343   4.554  16.545  0.00  0.00    +0.000 A 
ATOM      3  C   UNL     1       6.469   4.950  15.921  0.00  0.00    +0.000 A 
ATOM      4  N   UNL     1       7.509   5.572  16.587  0.00  0.00    +0.000 NA
ATOM      5  C   UNL     1       7.425   5.656  17.877  0.00  0.00    +0.000 A 
ATOM      6  C   UNL     1       6.256   5.143  18.683  0.00  0.00    +0.000 A 
ATOM      7  O   UNL     1       6.310   5.185  19.900  0.00  0.00    +0.000 OA
ENDROOT
BRANCH   3   8
ATOM      8  C   UNL     1       6.679   4.623  14.483  0.00  0.00    +0.000 A 
ATOM      9  C   UNL     1       7.647   5.250  13.680  0.00  0.00    +0.000 A 
ATOM     10  C   UNL     1       7.741   4.963  12.314  0.00  0.00    +0.000 A 
ATOM     11  C   UNL     1       6.886   4.031  11.733  0.00  0.00    +0.000 A 
ATOM     12  C   UNL     1       5.945   3.372  12.518  0.00  0.00    +0.000 A 
ATOM     13  C   UNL     1       5.845   3.666  13.878  0.00  0.00    +0.000 A 
ENDBRANCH   3   8
BRANCH   1  14
ATOM     14  C   UNL     1       3.979   4.231  18.576  0.00  0.00    +0.000 C 
BRANCH  14  16
ATOM     15  N   UNL     1       3.112   6.328  19.544  0.00  0.00    +0.000 N 
ATOM     16  C   UNL     1       2.862   5.275  18.678  0.00  0.00    +0.000 C 
ATOM     17  O   UNL     1       1.855   5.147  17.982  0.00  0.00    +0.000 OA
ATOM     18  H   UNL     1       3.988   6.334  20.051  0.00  0.00    +0.000 HD
BRANCH  15  22
ATOM     19  C   UNL     1       0.485  10.447  19.072  0.00  0.00    +0.000 C 
ATOM     20  N   UNL     1       1.071   9.229  19.573  0.00  0.00    +0.000 N 
ATOM     21  C   UNL     1       1.961   8.431  18.916  0.00  0.00    +0.000 A 
ATOM     22  C   UNL     1       2.255   7.390  19.763  0.00  0.00    +0.000 A 
ATOM     23  C   UNL     1       1.479   7.657  20.916  0.00  0.00    +0.000 A 
ATOM     24  N   UNL     1       0.761   8.782  20.804  0.00  0.00    +0.000 NA
ENDBRANCH  15  22
ENDBRANCH  14  16
ENDBRANCH   1  14
TORSDOF 4
ENDMDL
MODEL 7
REMARK VINA RESULT:      -8.1      0.901      1.418
REMARK  Name = 
REMARK  5 active torsions:
REMARK  status: ('A' for Active; 'I' for Inactive)
REMARK    1  A    between atoms: C_1  and  N_2
REMARK    2  A    between atoms: C_4  and  N_5
REMARK    3  A    between atoms: C_6  and  C_8
REMARK    4  A    between atoms: C_8  and  N_9
REMARK    5  A    between atoms: C_11  and  C_12
REMARK                            x       y       z     vdW  Elec       q    Type
REMARK                         _______ _______ _______ _____ _____    ______ ____
ROOT
ATOM      1  N   UNL     1       6.665   5.948  17.834  0.00  0.00    +0.000 N 
ATOM      2  C   UNL     1       5.618   5.630  18.680  0.00  0.00    +0.000 A 
ATOM      3  C   UNL     1       4.488   5.064  18.213  0.00  0.00    +0.000 A 
ATOM      4  N   UNL     1       4.275   4.831  16.867  0.00  0.00    +0.000 NA
ATOM      5  C   UNL     1       5.262   5.059  16.059  0.00  0.00    +0.000 A 
ATOM      6  C   UNL     1       6.607   5.588  16.496  0.00  0.00    +0.000 A 
ATOM      7  O   UNL     1       7.502   5.684  15.673  0.00  0.00    +0.000 OA
ENDROOT
BRANCH   3   8
ATOM      8  C   UNL     1       3.457   4.563  19.163  0.00  0.00    +0.000 A 
ATOM      9  C   UNL     1       3.248   3.200  19.430  0.00  0.00    +0.000 A 
ATOM     10  C   UNL     1       2.208   2.784  20.268  0.00  0.00    +0.000 A 
ATOM     11  C   UNL     1       1.375   3.724  20.870  0.00  0.00    +0.000 A 
ATOM     12  C   UNL     1       1.588   5.080  20.648  0.00  0.00    +0.000 A 
ATOM     13  C   UNL     1       2.619   5.493  19.804  0.00  0.00    +0.000 A 
ENDBRANCH   3   8
BRANCH   1  14
ATOM     14  C   UNL     1       7.892   6.535  18.361  0.00  0.00    +0.000 C 
BRANCH  14  16
ATOM     15  N   UNL     1       8.903   8.676  19.055  0.00  0.00    +0.000 N 
ATOM     16  C   UNL     1       8.003   8.054  18.202  0.00  0.00    +0.000 C 
ATOM     17  O   UNL     1       7.339   8.618  17.333  0.00  0.00    +0.000 OA
ATOM     18  H   UNL     1       9.408   8.103  19.719  0.00  0.00    +0.000 HD
BRANCH  15  22
ATOM     19  C   UNL     1      10.087  13.255  17.746  0.00  0.00    +0.000 C 
ATOM     20  N   UNL     1       9.705  12.085  18.497  0.00  0.00    +0.000 N 
ATOM     21  C   UNL     1       9.532  10.827  17.999  0.00  0.00    +0.000 A 
ATOM     22  C   UNL     1       9.180  10.030  19.060  0.00  0.00    +0.000 A 
ATOM     23  C   UNL     1       9.168  10.915  20.164  0.00  0.00    +0.000 A 
ATOM     24  N   UNL     1       9.494  12.168  19.824  0.00  0.00    +0.000 NA
ENDBRANCH  15  22
ENDBRANCH  14  16
ENDBRANCH   1  14
TORSDOF 4
ENDMDL
MODEL 8
REMARK VINA RESULT:      -8.0      0.970      1.229
REMARK  Name = 
REMARK  5 active torsions:
REMARK  status: ('A' for Active; 'I' for Inactive)
REMARK    1  A    between atoms: C_1  and  N_2
REMARK    2  A    between atoms: C_4  and  N_5
REMARK    3  A    between atoms: C_6  and  C_8
REMARK    4  A    between atoms: C_8  and  N_9
REMARK    5  A    between atoms: C_11  and  C_12
REMARK                            x       y       z     vdW  Elec       q    Type
REMARK                         _______ _______ _______ _____ _____    ______ ____
ROOT
ATOM      1  N   UNL     1       6.691   5.840  17.789  0.00  0.00    +0.000 N 
ATOM      2  C   UNL     1       5.675   5.555  18.683  0.00  0.00    +0.000 A 
ATOM      3  C   UNL     1       4.526   4.982  18.275  0.00  0.00    +0.000 A 
ATOM      4  N   UNL     1       4.262   4.708  16.946  0.00  0.00    +0.000 NA
ATOM      5  C   UNL     1       5.220   4.905  16.095  0.00  0.00    +0.000 A 
ATOM      6  C   UNL     1       6.582   5.438  16.466  0.00  0.00    +0.000 A 
ATOM      7  O   UNL     1       7.447   5.502  15.609  0.00  0.00    +0.000 OA
ENDROOT
BRANCH   3   8
ATOM      8  C   UNL     1       3.528   4.517  19.278  0.00  0.00    +0.000 A 
ATOM      9  C   UNL     1       2.577   5.363  19.874  0.00  0.00    +0.000 A 
ATOM     10  C   UNL     1       1.720   4.889  20.872  0.00  0.00    +0.000 A 
ATOM     11  C   UNL     1       1.784   3.558  21.277  0.00  0.00    +0.000 A 
ATOM     12  C   UNL     1       2.693   2.695  20.674  0.00  0.00    +0.000 A 
ATOM     13  C   UNL     1       3.554   3.171  19.685  0.00  0.00    +0.000 A 
ENDBRANCH   3   8
BRANCH   1  14
ATOM     14  C   UNL     1       7.940   6.435  18.252  0.00  0.00    +0.000 C 
BRANCH  14  16
ATOM     15  N   UNL     1       8.879   8.582  19.024  0.00  0.00    +0.000 N 
ATOM     16  C   UNL     1       8.012   7.960  18.138  0.00  0.00    +0.000 C 
ATOM     17  O   UNL     1       7.347   8.530  17.272  0.00  0.00    +0.000 OA
ATOM     18  H   UNL     1       9.387   8.004  19.681  0.00  0.00    +0.000 HD
BRANCH  15  22
ATOM     19  C   UNL     1       9.790  13.257  17.844  0.00  0.00    +0.000 C 
ATOM     20  N   UNL     1       9.523  12.039  18.567  0.00  0.00    +0.000 N 
ATOM     21  C   UNL     1       9.332  10.803  18.024  0.00  0.00    +0.000 A 
ATOM     22  C   UNL     1       9.117   9.942  19.072  0.00  0.00    +0.000 A 
ATOM     23  C   UNL     1       9.199  10.770  20.217  0.00  0.00    +0.000 A 
ATOM     24  N   UNL     1       9.452  12.048  19.911  0.00  0.00    +0.000 NA
ENDBRANCH  15  22
ENDBRANCH  14  16
ENDBRANCH   1  14
TORSDOF 4
ENDMDL
MODEL 9
REMARK VINA RESULT:      -7.6      4.227      6.071
REMARK  Name = 
REMARK  5 active torsions:
REMARK  status: ('A' for Active; 'I' for Inactive)
REMARK    1  A    between atoms: C_1  and  N_2
REMARK    2  A    between atoms: C_4  and  N_5
REMARK    3  A    between atoms: C_6  and  C_8
REMARK    4  A    between atoms: C_8  and  N_9
REMARK    5  A    between atoms: C_11  and  C_12
REMARK                            x       y       z     vdW  Elec       q    Type
REMARK                         _______ _______ _______ _____ _____    ______ ____
ROOT
ATOM      1  N   UNL     1       3.462   3.698  19.578  0.00  0.00    +0.000 N 
ATOM      2  C   UNL     1       3.105   4.956  19.130  0.00  0.00    +0.000 A 
ATOM      3  C   UNL     1       2.279   5.745  19.844  0.00  0.00    +0.000 A 
ATOM      4  N   UNL     1       1.686   5.328  21.021  0.00  0.00    +0.000 NA
ATOM      5  C   UNL     1       2.051   4.180  21.498  0.00  0.00    +0.000 A 
ATOM      6  C   UNL     1       3.054   3.269  20.833  0.00  0.00    +0.000 A 
ATOM      7  O   UNL     1       3.401   2.250  21.406  0.00  0.00    +0.000 OA
ENDROOT
BRANCH   3   8
ATOM      8  C   UNL     1       2.059   7.160  19.434  0.00  0.00    +0.000 A 
ATOM      9  C   UNL     1       1.462   8.123  20.264  0.00  0.00    +0.000 A 
ATOM     10  C   UNL     1       1.204   9.415  19.794  0.00  0.00    +0.000 A 
ATOM     11  C   UNL     1       1.557   9.772  18.496  0.00  0.00    +0.000 A 
ATOM     12  C   UNL     1       2.182   8.845  17.669  0.00  0.00    +0.000 A 
ATOM     13  C   UNL     1       2.430   7.553  18.135  0.00  0.00    +0.000 A 
ENDBRANCH   3   8
BRANCH   1  14
ATOM     14  C   UNL     1       4.380   2.869  18.806  0.00  0.00    +0.000 C 
BRANCH  14  16
ATOM     15  N   UNL     1       5.304   3.531  16.617  0.00  0.00    +0.000 N 
ATOM     16  C   UNL     1       5.424   3.641  17.994  0.00  0.00    +0.000 C 
ATOM     17  O   UNL     1       6.262   4.323  18.585  0.00  0.00    +0.000 OA
ATOM     18  H   UNL     1       4.561   2.953  16.245  0.00  0.00    +0.000 HD
BRANCH  15  22
ATOM     19  C   UNL     1       7.567   4.947  12.499  0.00  0.00    +0.000 C 
ATOM     20  N   UNL     1       7.143   4.817  13.870  0.00  0.00    +0.000 N 
ATOM     21  C   UNL     1       6.195   3.959  14.345  0.00  0.00    +0.000 A 
ATOM     22  C   UNL     1       6.119   4.167  15.700  0.00  0.00    +0.000 A 
ATOM     23  C   UNL     1       7.074   5.184  15.944  0.00  0.00    +0.000 A 
ATOM     24  N   UNL     1       7.703   5.577  14.830  0.00  0.00    +0.000 NA
ENDBRANCH  15  22
ENDBRANCH  14  16
ENDBRANCH   1  14
TORSDOF 4
ENDMDL
