MODEL 1
REMARK VINA RESULT:      -8.4      0.000      0.000
REMARK  Name = 
REMARK  8 active torsions:
REMARK  status: ('A' for Active; 'I' for Inactive)
REMARK    1  A    between atoms: C_1  and  C_2
REMARK    2  A    between atoms: C_3  and  C_4
REMARK    3  A    between atoms: C_10  and  C_11
REMARK    4  A    between atoms: C_15  and  N_16
REMARK    5  A    between atoms: C_17  and  C_19
REMARK    6  A    between atoms: C_19  and  O_20
REMARK    7  A    between atoms: O_20  and  C_21
REMARK    8  A    between atoms: C_32  and  C_33
REMARK                            x       y       z     vdW  Elec       q    Type
REMARK                         _______ _______ _______ _____ _____    ______ ____
ROOT
ATOM      1  C   UNL     1       6.243   4.576  16.418  0.00  0.00    +0.000 C 
ATOM      2  O   UNL     1       7.312   5.109  16.662  0.00  0.00    +0.000 OA
ATOM      3  N   UNL     1       5.143   4.740  17.220  0.00  0.00    +0.000 N 
ATOM      4  C   UNL     1       5.136   5.752  18.261  0.00  0.00    +0.000 C 
ATOM      5  C   UNL     1       3.685   6.211  18.312  0.00  0.00    +0.000 C 
ATOM      6  C   UNL     1       3.277   6.781  19.645  0.00  0.00    +0.000 C 
ATOM      7  C   UNL     1       2.330   7.829  19.165  0.00  0.00    +0.000 C 
ATOM      8  N   UNL     1       2.467   8.137  17.913  0.00  0.00    +0.000 NA
ATOM      9  O   UNL     1       3.487   7.301  17.390  0.00  0.00    +0.000 OA
ATOM     10  C   UNL     1       2.859   4.996  17.847  0.00  0.00    +0.000 C 
ATOM     11  C   UNL     1       3.875   4.013  17.231  0.00  0.00    +0.000 C 
ENDROOT
BRANCH   7  12
ATOM     12  C   UNL     1       1.375   8.478  20.090  0.00  0.00    +0.000 A 
ATOM     13  C   UNL     1       0.660   7.724  21.026  0.00  0.00    +0.000 A 
ATOM     14  C   UNL     1      -0.276   8.354  21.854  0.00  0.00    +0.000 A 
ATOM     15  C   UNL     1      -0.529   9.724  21.720  0.00  0.00    +0.000 A 
ATOM     16  C   UNL     1       0.201  10.479  20.801  0.00  0.00    +0.000 A 
ATOM     17  C   UNL     1       1.159   9.859  20.005  0.00  0.00    +0.000 A 
BRANCH  16  18
ATOM     18  N   UNL     1      -0.078  11.848  20.616  0.00  0.00    +0.000 N 
ATOM     19  C   UNL     1      -0.982  12.291  19.652  0.00  0.00    +0.000 C 
ATOM     20  O   UNL     1      -1.645  11.552  18.926  0.00  0.00    +0.000 OA
ATOM     21  H   UNL     1       0.613  12.511  20.941  0.00  0.00    +0.000 HD
BRANCH  19  22
ATOM     22  C   UNL     1      -1.056  13.814  19.525  0.00  0.00    +0.000 C 
BRANCH  22  23
ATOM     23  O   UNL     1      -0.166  14.197  18.481  0.00  0.00    +0.000 OA
BRANCH  23  24
ATOM     24  C   UNL     1       1.110  14.530  18.834  0.00  0.00    +0.000 A 
ATOM     25  C   UNL     1       2.097  13.769  18.198  0.00  0.00    +0.000 A 
ATOM     26  C   UNL     1       3.450  13.990  18.458  0.00  0.00    +0.000 A 
ATOM     27  C   UNL     1       3.824  14.997  19.342  0.00  0.00    +0.000 A 
ATOM     28 CL   UNL     1       5.490  15.272  19.665  0.00  0.00    +0.000 Cl
ATOM     29  C   UNL     1       2.851  15.781  19.961  0.00  0.00    +0.000 A 
ATOM     30  C   UNL     1       1.491  15.551  19.708  0.00  0.00    +0.000 A 
ENDBRANCH  23  24
ENDBRANCH  22  23
ENDBRANCH  19  22
ENDBRANCH  16  18
ENDBRANCH   7  12
BRANCH  11  31
ATOM     31  C   UNL     1       3.986   2.712  18.074  0.00  0.00    +0.000 C 
ATOM     32  N   UNL     1       4.902   2.716  19.098  0.00  0.00    +0.000 N 
ATOM     33  O   UNL     1       3.411   1.673  17.792  0.00  0.00    +0.000 OA
ATOM     34  H   UNL     1       5.256   3.570  19.492  0.00  0.00    +0.000 HD
ATOM     35  H   UNL     1       4.974   1.874  19.658  0.00  0.00    +0.000 HD
ENDBRANCH  11  31
BRANCH   1  38
ATOM     36  C   UNL     1       5.848   3.522  12.747  0.00  0.00    +0.000 C 
ATOM     37  C   UNL     1       6.157   4.268  14.003  0.00  0.00    +0.000 C 
ATOM     38  C   UNL     1       6.074   3.713  15.220  0.00  0.00    +0.000 C 
ENDBRANCH   1  38
TORSDOF 7
ENDMDL
MODEL 2
REMARK VINA RESULT:      -8.2      2.470      3.331
REMARK  Name = 
REMARK  8 active torsions:
REMARK  status: ('A' for Active; 'I' for Inactive)
REMARK    1  A    between atoms: C_1  and  C_2
REMARK    2  A    between atoms: C_3  and  C_4
REMARK    3  A    between atoms: C_10  and  C_11
REMARK    4  A    between atoms: C_15  and  N_16
REMARK    5  A    between atoms: C_17  and  C_19
REMARK    6  A    between atoms: C_19  and  O_20
REMARK    7  A    between atoms: O_20  and  C_21
REMARK    8  A    between atoms: C_32  and  C_33
REMARK                            x       y       z     vdW  Elec       q    Type
REMARK                         _______ _______ _______ _____ _____    ______ ____
ROOT
ATOM      1  C   UNL     1       6.215   4.474  16.334  0.00  0.00    +0.000 C 
ATOM      2  O   UNL     1       7.302   4.946  16.621  0.00  0.00    +0.000 OA
ATOM      3  N   UNL     1       5.099   4.685  17.102  0.00  0.00    +0.000 N 
ATOM      4  C   UNL     1       5.112   5.681  18.159  0.00  0.00    +0.000 C 
ATOM      5  C   UNL     1       3.686   6.216  18.170  0.00  0.00    +0.000 C 
ATOM      6  C   UNL     1       3.265   6.787  19.499  0.00  0.00    +0.000 C 
ATOM      7  C   UNL     1       2.392   7.892  19.005  0.00  0.00    +0.000 C 
ATOM      8  N   UNL     1       2.585   8.210  17.764  0.00  0.00    +0.000 NA
ATOM      9  O   UNL     1       3.577   7.328  17.260  0.00  0.00    +0.000 OA
ATOM     10  C   UNL     1       2.813   5.054  17.659  0.00  0.00    +0.000 C 
ATOM     11  C   UNL     1       3.795   4.027  17.060  0.00  0.00    +0.000 C 
ENDROOT
BRANCH   7  12
ATOM     12  C   UNL     1       1.442   8.578  19.909  0.00  0.00    +0.000 A 
ATOM     13  C   UNL     1       1.018   7.971  21.096  0.00  0.00    +0.000 A 
ATOM     14  C   UNL     1       0.079   8.617  21.908  0.00  0.00    +0.000 A 
ATOM     15  C   UNL     1      -0.467   9.845  21.517  0.00  0.00    +0.000 A 
ATOM     16  C   UNL     1      -0.026  10.460  20.345  0.00  0.00    +0.000 A 
ATOM     17  C   UNL     1       0.936   9.834  19.557  0.00  0.00    +0.000 A 
BRANCH  16  18
ATOM     18  N   UNL     1      -0.603  11.670  19.909  0.00  0.00    +0.000 N 
ATOM     19  C   UNL     1       0.175  12.770  19.556  0.00  0.00    +0.000 C 
ATOM     20  O   UNL     1       1.405  12.777  19.537  0.00  0.00    +0.000 OA
ATOM     21  H   UNL     1      -1.563  11.848  20.173  0.00  0.00    +0.000 HD
BRANCH  19  22
ATOM     22  C   UNL     1      -0.637  14.025  19.227  0.00  0.00    +0.000 C 
BRANCH  22  23
ATOM     23  O   UNL     1      -0.717  14.803  20.417  0.00  0.00    +0.000 OA
BRANCH  23  24
ATOM     24  C   UNL     1      -1.487  14.319  21.436  0.00  0.00    +0.000 A 
ATOM     25  C   UNL     1      -2.825  14.106  21.089  0.00  0.00    +0.000 A 
ATOM     26  C   UNL     1      -3.737  13.615  22.026  0.00  0.00    +0.000 A 
ATOM     27  C   UNL     1      -3.304  13.311  23.312  0.00  0.00    +0.000 A 
ATOM     28 CL   UNL     1      -4.424  12.708  24.469  0.00  0.00    +0.000 Cl
ATOM     29  C   UNL     1      -1.966  13.493  23.662  0.00  0.00    +0.000 A 
ATOM     30  C   UNL     1      -1.053  13.996  22.723  0.00  0.00    +0.000 A 
ENDBRANCH  23  24
ENDBRANCH  22  23
ENDBRANCH  19  22
ENDBRANCH  16  18
ENDBRANCH   7  12
BRANCH  11  31
ATOM     31  C   UNL     1       3.809   2.710  17.886  0.00  0.00    +0.000 C 
ATOM     32  N   UNL     1       4.669   2.661  18.956  0.00  0.00    +0.000 N 
ATOM     33  O   UNL     1       3.209   1.699  17.556  0.00  0.00    +0.000 OA
ATOM     34  H   UNL     1       5.036   3.494  19.383  0.00  0.00    +0.000 HD
ATOM     35  H   UNL     1       4.676   1.808  19.505  0.00  0.00    +0.000 HD
ENDBRANCH  11  31
BRANCH   1  38
ATOM     36  C   UNL     1       6.071   3.461  12.633  0.00  0.00    +0.000 C 
ATOM     37  C   UNL     1       6.356   4.158  13.922  0.00  0.00    +0.000 C 
ATOM     38  C   UNL     1       6.041   3.639  15.117  0.00  0.00    +0.000 C 
ENDBRANCH   1  38
TORSDOF 7
ENDMDL
MODEL 3
REMARK VINA RESULT:      -8.1      3.401     10.241
REMARK  Name = 
REMARK  8 active torsions:
REMARK  status: ('A' for Active; 'I' for Inactive)
REMARK    1  A    between atoms: C_1  and  C_2
REMARK    2  A    between atoms: C_3  and  C_4
REMARK    3  A    between atoms: C_10  and  C_11
REMARK    4  A    between atoms: C_15  and  N_16
REMARK    5  A    between atoms: C_17  and  C_19
REMARK    6  A    between atoms: C_19  and  O_20
REMARK    7  A    between atoms: O_20  and  C_21
REMARK    8  A    between atoms: C_32  and  C_33
REMARK                            x       y       z     vdW  Elec       q    Type
REMARK                         _______ _______ _______ _____ _____    ______ ____
ROOT
ATOM      1  C   UNL     1      -1.466  12.501  22.259  0.00  0.00    +0.000 C 
ATOM      2  O   UNL     1      -1.012  12.778  23.356  0.00  0.00    +0.000 OA
ATOM      3  N   UNL     1      -0.821  11.659  21.390  0.00  0.00    +0.000 N 
ATOM      4  C   UNL     1       0.313  10.870  21.836  0.00  0.00    +0.000 C 
ATOM      5  C   UNL     1       0.201   9.585  21.027  0.00  0.00    +0.000 C 
ATOM      6  C   UNL     1       1.515   8.872  20.839  0.00  0.00    +0.000 C 
ATOM      7  C   UNL     1       1.019   7.465  20.880  0.00  0.00    +0.000 C 
ATOM      8  N   UNL     1      -0.158   7.330  21.405  0.00  0.00    +0.000 NA
ATOM      9  O   UNL     1      -0.615   8.632  21.738  0.00  0.00    +0.000 OA
ATOM     10  C   UNL     1      -0.510   9.988  19.721  0.00  0.00    +0.000 C 
ATOM     11  C   UNL     1      -1.075  11.400  19.973  0.00  0.00    +0.000 C 
ENDROOT
BRANCH   7  12
ATOM     12  C   UNL     1       1.860   6.345  20.405  0.00  0.00    +0.000 A 
ATOM     13  C   UNL     1       1.685   5.053  20.911  0.00  0.00    +0.000 A 
ATOM     14  C   UNL     1       2.529   4.021  20.484  0.00  0.00    +0.000 A 
ATOM     15  C   UNL     1       3.570   4.285  19.587  0.00  0.00    +0.000 A 
ATOM     16  C   UNL     1       3.730   5.569  19.066  0.00  0.00    +0.000 A 
ATOM     17  C   UNL     1       2.867   6.587  19.462  0.00  0.00    +0.000 A 
BRANCH  16  18
ATOM     18  N   UNL     1       4.805   5.864  18.203  0.00  0.00    +0.000 N 
ATOM     19  C   UNL     1       6.130   5.665  18.585  0.00  0.00    +0.000 C 
ATOM     20  O   UNL     1       6.481   5.176  19.659  0.00  0.00    +0.000 OA
ATOM     21  H   UNL     1       4.633   6.524  17.456  0.00  0.00    +0.000 HD
BRANCH  19  22
ATOM     22  C   UNL     1       7.153   6.157  17.559  0.00  0.00    +0.000 C 
BRANCH  22  23
ATOM     23  O   UNL     1       7.684   5.010  16.904  0.00  0.00    +0.000 OA
BRANCH  23  24
ATOM     24  C   UNL     1       7.156   4.679  15.688  0.00  0.00    +0.000 A 
ATOM     25  C   UNL     1       5.995   3.901  15.761  0.00  0.00    +0.000 A 
ATOM     26  C   UNL     1       5.342   3.481  14.601  0.00  0.00    +0.000 A 
ATOM     27  C   UNL     1       5.838   3.861  13.358  0.00  0.00    +0.000 A 
ATOM     28 CL   UNL     1       5.036   3.345  11.927  0.00  0.00    +0.000 Cl
ATOM     29  C   UNL     1       6.978   4.659  13.273  0.00  0.00    +0.000 A 
ATOM     30  C   UNL     1       7.640   5.071  14.439  0.00  0.00    +0.000 A 
ENDBRANCH  23  24
ENDBRANCH  22  23
ENDBRANCH  19  22
ENDBRANCH  16  18
ENDBRANCH   7  12
BRANCH  11  31
ATOM     31  C   UNL     1      -0.372  12.459  19.079  0.00  0.00    +0.000 C 
ATOM     32  N   UNL     1      -1.174  13.177  18.225  0.00  0.00    +0.000 N 
ATOM     33  O   UNL     1       0.840  12.583  19.005  0.00  0.00    +0.000 OA
ATOM     34  H   UNL     1      -2.166  13.258  18.368  0.00  0.00    +0.000 HD
ATOM     35  H   UNL     1      -0.723  13.876  17.645  0.00  0.00    +0.000 HD
ENDBRANCH  11  31
BRANCH   1  38
ATOM     36  C   UNL     1      -5.251  13.066  21.938  0.00  0.00    +0.000 C 
ATOM     37  C   UNL     1      -3.891  12.681  22.419  0.00  0.00    +0.000 C 
ATOM     38  C   UNL     1      -2.764  13.065  21.804  0.00  0.00    +0.000 C 
ENDBRANCH   1  38
TORSDOF 7
ENDMDL
MODEL 4
REMARK VINA RESULT:      -8.1      1.149      1.242
REMARK  Name = 
REMARK  8 active torsions:
REMARK  status: ('A' for Active; 'I' for Inactive)
REMARK    1  A    between atoms: C_1  and  C_2
REMARK    2  A    between atoms: C_3  and  C_4
REMARK    3  A    between atoms: C_10  and  C_11
REMARK    4  A    between atoms: C_15  and  N_16
REMARK    5  A    between atoms: C_17  and  C_19
REMARK    6  A    between atoms: C_19  and  O_20
REMARK    7  A    between atoms: O_20  and  C_21
REMARK    8  A    between atoms: C_32  and  C_33
REMARK                            x       y       z     vdW  Elec       q    Type
REMARK                         _______ _______ _______ _____ _____    ______ ____
ROOT
ATOM      1  C   UNL     1       5.415   4.599  16.760  0.00  0.00    +0.000 C 
ATOM      2  O   UNL     1       6.534   4.873  17.157  0.00  0.00    +0.000 OA
ATOM      3  N   UNL     1       4.289   4.878  17.492  0.00  0.00    +0.000 N 
ATOM      4  C   UNL     1       4.367   5.733  18.664  0.00  0.00    +0.000 C 
ATOM      5  C   UNL     1       3.031   6.462  18.670  0.00  0.00    +0.000 C 
ATOM      6  C   UNL     1       2.604   6.931  20.037  0.00  0.00    +0.000 C 
ATOM      7  C   UNL     1       1.925   8.200  19.641  0.00  0.00    +0.000 C 
ATOM      8  N   UNL     1       2.243   8.628  18.460  0.00  0.00    +0.000 NA
ATOM      9  O   UNL     1       3.136   7.677  17.901  0.00  0.00    +0.000 OA
ATOM     10  C   UNL     1       2.043   5.505  17.976  0.00  0.00    +0.000 C 
ATOM     11  C   UNL     1       2.912   4.424  17.304  0.00  0.00    +0.000 C 
ENDROOT
BRANCH   7  12
ATOM     12  C   UNL     1       1.020   8.906  20.574  0.00  0.00    +0.000 A 
ATOM     13  C   UNL     1       0.282   8.198  21.529  0.00  0.00    +0.000 A 
ATOM     14  C   UNL     1      -0.606   8.883  22.365  0.00  0.00    +0.000 A 
ATOM     15  C   UNL     1      -0.790  10.263  22.222  0.00  0.00    +0.000 A 
ATOM     16  C   UNL     1      -0.037  10.971  21.285  0.00  0.00    +0.000 A 
ATOM     17  C   UNL     1       0.875  10.295  20.480  0.00  0.00    +0.000 A 
BRANCH  16  18
ATOM     18  N   UNL     1      -0.247  12.352  21.092  0.00  0.00    +0.000 N 
ATOM     19  C   UNL     1      -0.800  12.853  19.916  0.00  0.00    +0.000 C 
ATOM     20  O   UNL     1      -1.198  12.160  18.981  0.00  0.00    +0.000 OA
ATOM     21  H   UNL     1       0.305  12.988  21.652  0.00  0.00    +0.000 HD
BRANCH  19  22
ATOM     22  C   UNL     1      -0.835  14.382  19.849  0.00  0.00    +0.000 C 
BRANCH  22  23
ATOM     23  O   UNL     1       0.257  14.866  20.623  0.00  0.00    +0.000 OA
BRANCH  23  24
ATOM     24  C   UNL     1       1.497  14.834  20.052  0.00  0.00    +0.000 A 
ATOM     25  C   UNL     1       1.568  15.458  18.802  0.00  0.00    +0.000 A 
ATOM     26  C   UNL     1       2.769  15.504  18.092  0.00  0.00    +0.000 A 
ATOM     27  C   UNL     1       3.916  14.944  18.646  0.00  0.00    +0.000 A 
ATOM     28 CL   UNL     1       5.397  14.998  17.774  0.00  0.00    +0.000 Cl
ATOM     29  C   UNL     1       3.865  14.344  19.904  0.00  0.00    +0.000 A 
ATOM     30  C   UNL     1       2.655  14.289  20.611  0.00  0.00    +0.000 A 
ENDBRANCH  23  24
ENDBRANCH  22  23
ENDBRANCH  19  22
ENDBRANCH  16  18
ENDBRANCH   7  12
BRANCH  11  31
ATOM     31  C   UNL     1       2.691   3.032  17.960  0.00  0.00    +0.000 C 
ATOM     32  N   UNL     1       1.434   2.772  18.448  0.00  0.00    +0.000 N 
ATOM     33  O   UNL     1       3.592   2.237  18.175  0.00  0.00    +0.000 OA
ATOM     34  H   UNL     1       0.627   3.287  18.143  0.00  0.00    +0.000 HD
ATOM     35  H   UNL     1       1.280   1.862  18.869  0.00  0.00    +0.000 HD
ENDBRANCH  11  31
BRANCH   1  38
ATOM     36  C   UNL     1       5.978   3.580  13.101  0.00  0.00    +0.000 C 
ATOM     37  C   UNL     1       6.157   4.065  14.502  0.00  0.00    +0.000 C 
ATOM     38  C   UNL     1       5.209   3.944  15.442  0.00  0.00    +0.000 C 
ENDBRANCH   1  38
TORSDOF 7
ENDMDL
MODEL 5
REMARK VINA RESULT:      -8.0      3.772      5.095
REMARK  Name = 
REMARK  8 active torsions:
REMARK  status: ('A' for Active; 'I' for Inactive)
REMARK    1  A    between atoms: C_1  and  C_2
REMARK    2  A    between atoms: C_3  and  C_4
REMARK    3  A    between atoms: C_10  and  C_11
REMARK    4  A    between atoms: C_15  and  N_16
REMARK    5  A    between atoms: C_17  and  C_19
REMARK    6  A    between atoms: C_19  and  O_20
REMARK    7  A    between atoms: O_20  and  C_21
REMARK    8  A    between atoms: C_32  and  C_33
REMARK                            x       y       z     vdW  Elec       q    Type
REMARK                         _______ _______ _______ _____ _____    ______ ____
ROOT
ATOM      1  C   UNL     1       5.372   5.052  17.374  0.00  0.00    +0.000 C 
ATOM      2  O   UNL     1       6.416   5.407  17.895  0.00  0.00    +0.000 OA
ATOM      3  N   UNL     1       4.147   5.464  17.832  0.00  0.00    +0.000 N 
ATOM      4  C   UNL     1       4.050   6.537  18.806  0.00  0.00    +0.000 C 
ATOM      5  C   UNL     1       2.752   7.244  18.438  0.00  0.00    +0.000 C 
ATOM      6  C   UNL     1       2.114   7.974  19.591  0.00  0.00    +0.000 C 
ATOM      7  C   UNL     1       1.548   9.133  18.840  0.00  0.00    +0.000 C 
ATOM      8  N   UNL     1       2.073   9.318  17.670  0.00  0.00    +0.000 NA
ATOM      9  O   UNL     1       3.020   8.280  17.473  0.00  0.00    +0.000 OA
ATOM     10  C   UNL     1       1.870   6.161  17.789  0.00  0.00    +0.000 C 
ATOM     11  C   UNL     1       2.810   4.973  17.505  0.00  0.00    +0.000 C 
ENDROOT
BRANCH   7  12
ATOM     12  C   UNL     1       0.518  10.006  19.446  0.00  0.00    +0.000 A 
ATOM     13  C   UNL     1       0.540  10.297  20.814  0.00  0.00    +0.000 A 
ATOM     14  C   UNL     1      -0.475  11.082  21.372  0.00  0.00    +0.000 A 
ATOM     15  C   UNL     1      -1.532  11.540  20.577  0.00  0.00    +0.000 A 
ATOM     16  C   UNL     1      -1.541  11.267  19.209  0.00  0.00    +0.000 A 
ATOM     17  C   UNL     1      -0.511  10.519  18.647  0.00  0.00    +0.000 A 
BRANCH  16  18
ATOM     18  N   UNL     1      -2.625  11.676  18.404  0.00  0.00    +0.000 N 
ATOM     19  C   UNL     1      -3.452  10.756  17.763  0.00  0.00    +0.000 C 
ATOM     20  O   UNL     1      -3.357   9.534  17.876  0.00  0.00    +0.000 OA
ATOM     21  H   UNL     1      -2.594  12.613  18.025  0.00  0.00    +0.000 HD
BRANCH  19  22
ATOM     22  C   UNL     1      -4.493  11.394  16.841  0.00  0.00    +0.000 C 
BRANCH  22  23
ATOM     23  O   UNL     1      -5.773  11.156  17.417  0.00  0.00    +0.000 OA
BRANCH  23  24
ATOM     24  C   UNL     1      -6.256  12.092  18.286  0.00  0.00    +0.000 A 
ATOM     25  C   UNL     1      -6.417  11.628  19.596  0.00  0.00    +0.000 A 
ATOM     26  C   UNL     1      -6.905  12.468  20.599  0.00  0.00    +0.000 A 
ATOM     27  C   UNL     1      -7.212  13.791  20.296  0.00  0.00    +0.000 A 
ATOM     28 CL   UNL     1      -7.814  14.829  21.528  0.00  0.00    +0.000 Cl
ATOM     29  C   UNL     1      -7.030  14.274  19.001  0.00  0.00    +0.000 A 
ATOM     30  C   UNL     1      -6.550  13.425  17.992  0.00  0.00    +0.000 A 
ENDBRANCH  23  24
ENDBRANCH  22  23
ENDBRANCH  19  22
ENDBRANCH  16  18
ENDBRANCH   7  12
BRANCH  11  31
ATOM     31  C   UNL     1       2.442   3.739  18.375  0.00  0.00    +0.000 C 
ATOM     32  N   UNL     1       1.615   3.965  19.449  0.00  0.00    +0.000 N 
ATOM     33  O   UNL     1       2.948   2.637  18.233  0.00  0.00    +0.000 OA
ATOM     34  H   UNL     1       1.031   4.780  19.508  0.00  0.00    +0.000 HD
ATOM     35  H   UNL     1       1.364   3.163  20.016  0.00  0.00    +0.000 HD
ENDBRANCH  11  31
BRANCH   1  38
ATOM     36  C   UNL     1       6.076   3.705  13.848  0.00  0.00    +0.000 C 
ATOM     37  C   UNL     1       6.126   4.463  15.133  0.00  0.00    +0.000 C 
ATOM     38  C   UNL     1       5.375   4.144  16.197  0.00  0.00    +0.000 C 
ENDBRANCH   1  38
TORSDOF 7
ENDMDL
MODEL 6
REMARK VINA RESULT:      -8.0      1.485      1.627
REMARK  Name = 
REMARK  8 active torsions:
REMARK  status: ('A' for Active; 'I' for Inactive)
REMARK    1  A    between atoms: C_1  and  C_2
REMARK    2  A    between atoms: C_3  and  C_4
REMARK    3  A    between atoms: C_10  and  C_11
REMARK    4  A    between atoms: C_15  and  N_16
REMARK    5  A    between atoms: C_17  and  C_19
REMARK    6  A    between atoms: C_19  and  O_20
REMARK    7  A    between atoms: O_20  and  C_21
REMARK    8  A    between atoms: C_32  and  C_33
REMARK                            x       y       z     vdW  Elec       q    Type
REMARK                         _______ _______ _______ _____ _____    ______ ____
ROOT
ATOM      1  C   UNL     1       5.201   4.308  17.450  0.00  0.00    +0.000 C 
ATOM      2  O   UNL     1       6.284   4.450  17.992  0.00  0.00    +0.000 OA
ATOM      3  N   UNL     1       4.030   4.717  18.035  0.00  0.00    +0.000 N 
ATOM      4  C   UNL     1       4.055   5.558  19.219  0.00  0.00    +0.000 C 
ATOM      5  C   UNL     1       2.822   6.439  19.064  0.00  0.00    +0.000 C 
ATOM      6  C   UNL     1       2.280   6.956  20.370  0.00  0.00    +0.000 C 
ATOM      7  C   UNL     1       1.809   8.294  19.908  0.00  0.00    +0.000 C 
ATOM      8  N   UNL     1       2.325   8.681  18.784  0.00  0.00    +0.000 NA
ATOM      9  O   UNL     1       3.166   7.632  18.331  0.00  0.00    +0.000 OA
ATOM     10  C   UNL     1       1.828   5.603  18.235  0.00  0.00    +0.000 C 
ATOM     11  C   UNL     1       2.646   4.426  17.666  0.00  0.00    +0.000 C 
ENDROOT
BRANCH   7  12
ATOM     12  C   UNL     1       0.879   9.102  20.728  0.00  0.00    +0.000 A 
ATOM     13  C   UNL     1       0.241   8.548  21.842  0.00  0.00    +0.000 A 
ATOM     14  C   UNL     1      -0.675   9.317  22.570  0.00  0.00    +0.000 A 
ATOM     15  C   UNL     1      -0.985  10.620  22.162  0.00  0.00    +0.000 A 
ATOM     16  C   UNL     1      -0.331  11.178  21.064  0.00  0.00    +0.000 A 
ATOM     17  C   UNL     1       0.608  10.426  20.363  0.00  0.00    +0.000 A 
BRANCH  16  18
ATOM     18  N   UNL     1      -0.669  12.469  20.609  0.00  0.00    +0.000 N 
ATOM     19  C   UNL     1      -0.241  13.618  21.271  0.00  0.00    +0.000 C 
ATOM     20  O   UNL     1       0.496  13.622  22.255  0.00  0.00    +0.000 OA
ATOM     21  H   UNL     1      -1.484  12.553  20.016  0.00  0.00    +0.000 HD
BRANCH  19  22
ATOM     22  C   UNL     1      -0.811  14.915  20.694  0.00  0.00    +0.000 C 
BRANCH  22  23
ATOM     23  O   UNL     1      -0.259  15.081  19.392  0.00  0.00    +0.000 OA
BRANCH  23  24
ATOM     24  C   UNL     1       1.005  15.592  19.305  0.00  0.00    +0.000 A 
ATOM     25  C   UNL     1       1.902  14.782  18.600  0.00  0.00    +0.000 A 
ATOM     26  C   UNL     1       3.233  15.168  18.429  0.00  0.00    +0.000 A 
ATOM     27  C   UNL     1       3.665  16.386  18.944  0.00  0.00    +0.000 A 
ATOM     28 CL   UNL     1       5.304  16.865  18.736  0.00  0.00    +0.000 Cl
ATOM     29  C   UNL     1       2.774  17.215  19.625  0.00  0.00    +0.000 A 
ATOM     30  C   UNL     1       1.440  16.820  19.806  0.00  0.00    +0.000 A 
ENDBRANCH  23  24
ENDBRANCH  22  23
ENDBRANCH  19  22
ENDBRANCH  16  18
ENDBRANCH   7  12
BRANCH  11  31
ATOM     31  C   UNL     1       2.182   3.071  18.268  0.00  0.00    +0.000 C 
ATOM     32  N   UNL     1       2.585   1.933  17.612  0.00  0.00    +0.000 N 
ATOM     33  O   UNL     1       1.388   2.978  19.190  0.00  0.00    +0.000 OA
ATOM     34  H   UNL     1       3.369   1.931  16.983  0.00  0.00    +0.000 HD
ATOM     35  H   UNL     1       2.294   1.045  18.005  0.00  0.00    +0.000 HD
ENDBRANCH  11  31
BRANCH   1  38
ATOM     36  C   UNL     1       5.692   3.704  13.690  0.00  0.00    +0.000 C 
ATOM     37  C   UNL     1       5.841   4.159  15.104  0.00  0.00    +0.000 C 
ATOM     38  C   UNL     1       5.093   3.680  16.107  0.00  0.00    +0.000 C 
ENDBRANCH   1  38
TORSDOF 7
ENDMDL
MODEL 7
REMARK VINA RESULT:      -7.9      3.269      4.203
REMARK  Name = 
REMARK  8 active torsions:
REMARK  status: ('A' for Active; 'I' for Inactive)
REMARK    1  A    between atoms: C_1  and  C_2
REMARK    2  A    between atoms: C_3  and  C_4
REMARK    3  A    between atoms: C_10  and  C_11
REMARK    4  A    between atoms: C_15  and  N_16
REMARK    5  A    between atoms: C_17  and  C_19
REMARK    6  A    between atoms: C_19  and  O_20
REMARK    7  A    between atoms: O_20  and  C_21
REMARK    8  A    between atoms: C_32  and  C_33
REMARK                            x       y       z     vdW  Elec       q    Type
REMARK                         _______ _______ _______ _____ _____    ______ ____
ROOT
ATOM      1  C   UNL     1       5.572   5.033  15.961  0.00  0.00    +0.000 C 
ATOM      2  O   UNL     1       6.662   5.563  16.092  0.00  0.00    +0.000 OA
ATOM      3  N   UNL     1       4.565   5.192  16.878  0.00  0.00    +0.000 N 
ATOM      4  C   UNL     1       4.673   6.196  17.921  0.00  0.00    +0.000 C 
ATOM      5  C   UNL     1       3.237   6.657  18.132  0.00  0.00    +0.000 C 
ATOM      6  C   UNL     1       2.977   7.218  19.506  0.00  0.00    +0.000 C 
ATOM      7  C   UNL     1       1.987   8.271  19.138  0.00  0.00    +0.000 C 
ATOM      8  N   UNL     1       1.988   8.588  17.881  0.00  0.00    +0.000 NA
ATOM      9  O   UNL     1       2.943   7.754  17.245  0.00  0.00    +0.000 OA
ATOM     10  C   UNL     1       2.363   5.447  17.750  0.00  0.00    +0.000 C 
ATOM     11  C   UNL     1       3.304   4.467  17.021  0.00  0.00    +0.000 C 
ENDROOT
BRANCH   7  12
ATOM     12  C   UNL     1       1.139   8.915  20.166  0.00  0.00    +0.000 A 
ATOM     13  C   UNL     1       0.825   8.249  21.355  0.00  0.00    +0.000 A 
ATOM     14  C   UNL     1      -0.021   8.858  22.288  0.00  0.00    +0.000 A 
ATOM     15  C   UNL     1      -0.588  10.109  22.017  0.00  0.00    +0.000 A 
ATOM     16  C   UNL     1      -0.257  10.781  20.840  0.00  0.00    +0.000 A 
ATOM     17  C   UNL     1       0.615  10.192  19.930  0.00  0.00    +0.000 A 
BRANCH  16  18
ATOM     18  N   UNL     1      -0.860  12.017  20.527  0.00  0.00    +0.000 N 
ATOM     19  C   UNL     1      -0.450  13.207  21.126  0.00  0.00    +0.000 C 
ATOM     20  O   UNL     1       0.484  13.303  21.921  0.00  0.00    +0.000 OA
ATOM     21  H   UNL     1      -1.792  11.993  20.135  0.00  0.00    +0.000 HD
BRANCH  19  22
ATOM     22  C   UNL     1      -1.305  14.418  20.747  0.00  0.00    +0.000 C 
BRANCH  22  23
ATOM     23  O   UNL     1      -1.664  15.080  21.955  0.00  0.00    +0.000 OA
BRANCH  23  24
ATOM     24  C   UNL     1      -2.817  14.684  22.571  0.00  0.00    +0.000 A 
ATOM     25  C   UNL     1      -3.952  14.747  21.756  0.00  0.00    +0.000 A 
ATOM     26  C   UNL     1      -5.206  14.377  22.245  0.00  0.00    +0.000 A 
ATOM     27  C   UNL     1      -5.324  13.917  23.553  0.00  0.00    +0.000 A 
ATOM     28 CL   UNL     1      -6.867  13.461  24.159  0.00  0.00    +0.000 Cl
ATOM     29  C   UNL     1      -4.196  13.824  24.367  0.00  0.00    +0.000 A 
ATOM     30  C   UNL     1      -2.938  14.206  23.877  0.00  0.00    +0.000 A 
ENDBRANCH  23  24
ENDBRANCH  22  23
ENDBRANCH  19  22
ENDBRANCH  16  18
ENDBRANCH   7  12
BRANCH  11  31
ATOM     31  C   UNL     1       3.503   3.160  17.838  0.00  0.00    +0.000 C 
ATOM     32  N   UNL     1       2.519   2.207  17.729  0.00  0.00    +0.000 N 
ATOM     33  O   UNL     1       4.399   3.003  18.652  0.00  0.00    +0.000 OA
ATOM     34  H   UNL     1       1.876   2.192  16.957  0.00  0.00    +0.000 HD
ATOM     35  H   UNL     1       2.648   1.348  18.252  0.00  0.00    +0.000 HD
ENDBRANCH  11  31
BRANCH   1  38
ATOM     36  C   UNL     1       5.961   3.308  12.552  0.00  0.00    +0.000 C 
ATOM     37  C   UNL     1       6.215   4.013  13.843  0.00  0.00    +0.000 C 
ATOM     38  C   UNL     1       5.272   4.179  14.781  0.00  0.00    +0.000 C 
ENDBRANCH   1  38
TORSDOF 7
ENDMDL
MODEL 8
REMARK VINA RESULT:      -7.8      2.643      3.222
REMARK  Name = 
REMARK  8 active torsions:
REMARK  status: ('A' for Active; 'I' for Inactive)
REMARK    1  A    between atoms: C_1  and  C_2
REMARK    2  A    between atoms: C_3  and  C_4
REMARK    3  A    between atoms: C_10  and  C_11
REMARK    4  A    between atoms: C_15  and  N_16
REMARK    5  A    between atoms: C_17  and  C_19
REMARK    6  A    between atoms: C_19  and  O_20
REMARK    7  A    between atoms: O_20  and  C_21
REMARK    8  A    between atoms: C_32  and  C_33
REMARK                            x       y       z     vdW  Elec       q    Type
REMARK                         _______ _______ _______ _____ _____    ______ ____
ROOT
ATOM      1  C   UNL     1       5.802   4.961  15.968  0.00  0.00    +0.000 C 
ATOM      2  O   UNL     1       6.863   5.557  16.048  0.00  0.00    +0.000 OA
ATOM      3  N   UNL     1       4.801   5.122  16.891  0.00  0.00    +0.000 N 
ATOM      4  C   UNL     1       4.868   6.192  17.870  0.00  0.00    +0.000 C 
ATOM      5  C   UNL     1       3.412   6.586  18.078  0.00  0.00    +0.000 C 
ATOM      6  C   UNL     1       3.141   7.215  19.419  0.00  0.00    +0.000 C 
ATOM      7  C   UNL     1       2.088   8.189  19.006  0.00  0.00    +0.000 C 
ATOM      8  N   UNL     1       2.054   8.427  17.733  0.00  0.00    +0.000 NA
ATOM      9  O   UNL     1       3.045   7.609  17.131  0.00  0.00    +0.000 OA
ATOM     10  C   UNL     1       2.601   5.309  17.785  0.00  0.00    +0.000 C 
ATOM     11  C   UNL     1       3.584   4.339  17.100  0.00  0.00    +0.000 C 
ENDROOT
BRANCH   7  12
ATOM     12  C   UNL     1       1.221   8.847  20.008  0.00  0.00    +0.000 A 
ATOM     13  C   UNL     1       0.903   8.207  21.211  0.00  0.00    +0.000 A 
ATOM     14  C   UNL     1       0.038   8.828  22.118  0.00  0.00    +0.000 A 
ATOM     15  C   UNL     1      -0.542  10.064  21.809  0.00  0.00    +0.000 A 
ATOM     16  C   UNL     1      -0.207  10.711  20.619  0.00  0.00    +0.000 A 
ATOM     17  C   UNL     1       0.683  10.110  19.734  0.00  0.00    +0.000 A 
BRANCH  16  18
ATOM     18  N   UNL     1      -0.822  11.930  20.268  0.00  0.00    +0.000 N 
ATOM     19  C   UNL     1      -0.126  13.137  20.288  0.00  0.00    +0.000 C 
ATOM     20  O   UNL     1       1.071  13.248  20.553  0.00  0.00    +0.000 OA
ATOM     21  H   UNL     1      -1.830  11.976  20.331  0.00  0.00    +0.000 HD
BRANCH  19  22
ATOM     22  C   UNL     1      -0.996  14.361  19.993  0.00  0.00    +0.000 C 
BRANCH  22  23
ATOM     23  O   UNL     1      -2.033  14.390  20.968  0.00  0.00    +0.000 OA
BRANCH  23  24
ATOM     24  C   UNL     1      -1.714  14.853  22.213  0.00  0.00    +0.000 A 
ATOM     25  C   UNL     1      -2.385  14.203  23.254  0.00  0.00    +0.000 A 
ATOM     26  C   UNL     1      -2.166  14.568  24.584  0.00  0.00    +0.000 A 
ATOM     27  C   UNL     1      -1.251  15.573  24.878  0.00  0.00    +0.000 A 
ATOM     28 CL   UNL     1      -0.979  16.026  26.515  0.00  0.00    +0.000 Cl
ATOM     29  C   UNL     1      -0.555  16.210  23.851  0.00  0.00    +0.000 A 
ATOM     30  C   UNL     1      -0.784  15.850  22.514  0.00  0.00    +0.000 A 
ENDBRANCH  23  24
ENDBRANCH  22  23
ENDBRANCH  19  22
ENDBRANCH  16  18
ENDBRANCH   7  12
BRANCH  11  31
ATOM     31  C   UNL     1       3.867   3.098  17.990  0.00  0.00    +0.000 C 
ATOM     32  N   UNL     1       3.113   1.975  17.744  0.00  0.00    +0.000 N 
ATOM     33  O   UNL     1       4.610   3.116  18.959  0.00  0.00    +0.000 OA
ATOM     34  H   UNL     1       2.637   1.836  16.870  0.00  0.00    +0.000 HD
ATOM     35  H   UNL     1       3.299   1.159  18.316  0.00  0.00    +0.000 HD
ENDBRANCH  11  31
BRANCH   1  38
ATOM     36  C   UNL     1       5.978   3.327  12.498  0.00  0.00    +0.000 C 
ATOM     37  C   UNL     1       6.271   4.114  13.732  0.00  0.00    +0.000 C 
ATOM     38  C   UNL     1       5.534   4.022  14.848  0.00  0.00    +0.000 C 
ENDBRANCH   1  38
TORSDOF 7
ENDMDL
MODEL 9
REMARK VINA RESULT:      -7.8      2.584      9.625
REMARK  Name = 
REMARK  8 active torsions:
REMARK  status: ('A' for Active; 'I' for Inactive)
REMARK    1  A    between atoms: C_1  and  C_2
REMARK    2  A    between atoms: C_3  and  C_4
REMARK    3  A    between atoms: C_10  and  C_11
REMARK    4  A    between atoms: C_15  and  N_16
REMARK    5  A    between atoms: C_17  and  C_19
REMARK    6  A    between atoms: C_19  and  O_20
REMARK    7  A    between atoms: O_20  and  C_21
REMARK    8  A    between atoms: C_32  and  C_33
REMARK                            x       y       z     vdW  Elec       q    Type
REMARK                         _______ _______ _______ _____ _____    ______ ____
ROOT
ATOM      1  C   UNL     1       0.715  13.971  21.278  0.00  0.00    +0.000 C 
ATOM      2  O   UNL     1       1.823  14.456  21.128  0.00  0.00    +0.000 OA
ATOM      3  N   UNL     1       0.377  12.744  20.767  0.00  0.00    +0.000 N 
ATOM      4  C   UNL     1       1.400  11.863  20.233  0.00  0.00    +0.000 C 
ATOM      5  C   UNL     1       0.888  10.469  20.568  0.00  0.00    +0.000 C 
ATOM      6  C   UNL     1       1.407   9.396  19.645  0.00  0.00    +0.000 C 
ATOM      7  C   UNL     1       1.514   8.281  20.631  0.00  0.00    +0.000 C 
ATOM      8  N   UNL     1       1.519   8.662  21.869  0.00  0.00    +0.000 NA
ATOM      9  O   UNL     1       1.367  10.073  21.868  0.00  0.00    +0.000 OA
ATOM     10  C   UNL     1      -0.647  10.599  20.611  0.00  0.00    +0.000 C 
ATOM     11  C   UNL     1      -0.936  12.114  20.635  0.00  0.00    +0.000 C 
ENDROOT
BRANCH   7  12
ATOM     12  C   UNL     1       1.662   6.878  20.183  0.00  0.00    +0.000 A 
ATOM     13  C   UNL     1       1.115   5.827  20.927  0.00  0.00    +0.000 A 
ATOM     14  C   UNL     1       1.314   4.507  20.511  0.00  0.00    +0.000 A 
ATOM     15  C   UNL     1       2.092   4.231  19.380  0.00  0.00    +0.000 A 
ATOM     16  C   UNL     1       2.618   5.281  18.627  0.00  0.00    +0.000 A 
ATOM     17  C   UNL     1       2.388   6.596  19.020  0.00  0.00    +0.000 A 
BRANCH  16  18
ATOM     18  N   UNL     1       3.447   5.021  17.517  0.00  0.00    +0.000 N 
ATOM     19  C   UNL     1       4.471   4.077  17.568  0.00  0.00    +0.000 C 
ATOM     20  O   UNL     1       4.711   3.361  18.539  0.00  0.00    +0.000 OA
ATOM     21  H   UNL     1       3.518   5.743  16.811  0.00  0.00    +0.000 HD
BRANCH  19  22
ATOM     22  C   UNL     1       5.333   4.027  16.305  0.00  0.00    +0.000 C 
BRANCH  22  23
ATOM     23  O   UNL     1       6.695   4.014  16.721  0.00  0.00    +0.000 OA
BRANCH  23  24
ATOM     24  C   UNL     1       7.191   5.154  17.286  0.00  0.00    +0.000 A 
ATOM     25  C   UNL     1       7.027   6.301  16.501  0.00  0.00    +0.000 A 
ATOM     26  C   UNL     1       7.487   7.542  16.943  0.00  0.00    +0.000 A 
ATOM     27  C   UNL     1       8.093   7.645  18.191  0.00  0.00    +0.000 A 
ATOM     28 CL   UNL     1       8.661   9.173  18.739  0.00  0.00    +0.000 Cl
ATOM     29  C   UNL     1       8.238   6.515  18.995  0.00  0.00    +0.000 A 
ATOM     30  C   UNL     1       7.786   5.266  18.544  0.00  0.00    +0.000 A 
ENDBRANCH  23  24
ENDBRANCH  22  23
ENDBRANCH  19  22
ENDBRANCH  16  18
ENDBRANCH   7  12
BRANCH  11  31
ATOM     31  C   UNL     1      -1.646  12.575  19.333  0.00  0.00    +0.000 C 
ATOM     32  N   UNL     1      -3.020  12.562  19.340  0.00  0.00    +0.000 N 
ATOM     33  O   UNL     1      -1.058  12.812  18.289  0.00  0.00    +0.000 OA
ATOM     34  H   UNL     1      -3.547  12.563  20.196  0.00  0.00    +0.000 HD
ATOM     35  H   UNL     1      -3.490  12.871  18.497  0.00  0.00    +0.000 HD
ENDBRANCH  11  31
BRANCH   1  38
ATOM     36  C   UNL     1      -1.594  16.801  22.464  0.00  0.00    +0.000 C 
ATOM     37  C   UNL     1      -0.665  15.940  21.673  0.00  0.00    +0.000 C 
ATOM     38  C   UNL     1      -0.340  14.692  22.038  0.00  0.00    +0.000 C 
ENDBRANCH   1  38
TORSDOF 7
ENDMDL
