MODEL 1
REMARK VINA RESULT:      -6.9      0.000      0.000
REMARK  Name = 
REMARK  3 active torsions:
REMARK  status: ('A' for Active; 'I' for Inactive)
REMARK    1  A    between atoms: C_6  and  S_7
REMARK    2  A    between atoms: S_7  and  S_8
REMARK    3  A    between atoms: S_8  and  C_9
REMARK                            x       y       z     vdW  Elec       q    Type
REMARK                         _______ _______ _______ _____ _____    ______ ____
ROOT
ATOM      1  S   UNL     1       6.906   6.381  17.378  0.00  0.00    +0.000 S 
ENDROOT
BRANCH   1   7
ATOM      2  C   UNL     1       6.946   3.682  11.690  0.00  0.00    +0.000 A 
ATOM      3  C   UNL     1       5.705   3.177  12.052  0.00  0.00    +0.000 A 
ATOM      4  N   UNL     1       5.066   3.420  13.218  0.00  0.00    +0.000 NA
ATOM      5  C   UNL     1       5.761   4.225  14.047  0.00  0.00    +0.000 A 
ATOM      6  S   UNL     1       5.182   4.678  15.579  0.00  0.00    +0.000 S 
ATOM      7  C   UNL     1       6.629   5.568  15.842  0.00  0.00    +0.000 A 
ATOM      8  N   UNL     1       7.494   5.579  14.848  0.00  0.00    +0.000 NA
ATOM      9  C   UNL     1       7.009   4.797  13.816  0.00  0.00    +0.000 A 
ATOM     10  C   UNL     1       7.623   4.514  12.585  0.00  0.00    +0.000 A 
ENDBRANCH   1   7
BRANCH   1  11
ATOM     11  S   UNL     1       7.092   4.768  18.643  0.00  0.00    +0.000 S 
BRANCH  11  12
ATOM     12  C   UNL     1       5.414   4.518  19.111  0.00  0.00    +0.000 A 
ATOM     13  N   UNL     1       4.922   3.343  19.448  0.00  0.00    +0.000 NA
ATOM     14  C   UNL     1       3.599   3.496  19.822  0.00  0.00    +0.000 A 
ATOM     15  C   UNL     1       2.710   2.508  20.278  0.00  0.00    +0.000 A 
ATOM     16  C   UNL     1       1.412   2.898  20.611  0.00  0.00    +0.000 A 
ATOM     17  C   UNL     1       1.058   4.233  20.477  0.00  0.00    +0.000 A 
ATOM     18  N   UNL     1       1.867   5.223  20.041  0.00  0.00    +0.000 NA
ATOM     19  C   UNL     1       3.110   4.797  19.735  0.00  0.00    +0.000 A 
ATOM     20  S   UNL     1       4.323   5.844  19.170  0.00  0.00    +0.000 S 
ENDBRANCH  11  12
ENDBRANCH   1  11
TORSDOF 3
ENDMDL
MODEL 2
REMARK VINA RESULT:      -6.9      1.010      1.625
REMARK  Name = 
REMARK  3 active torsions:
REMARK  status: ('A' for Active; 'I' for Inactive)
REMARK    1  A    between atoms: C_6  and  S_7
REMARK    2  A    between atoms: S_7  and  S_8
REMARK    3  A    between atoms: S_8  and  C_9
REMARK                            x       y       z     vdW  Elec       q    Type
REMARK                         _______ _______ _______ _____ _____    ______ ____
ROOT
ATOM      1  S   UNL     1       6.882   5.893  17.601  0.00  0.00    +0.000 S 
ENDROOT
BRANCH   1   7
ATOM      2  C   UNL     1       7.281   4.116  11.575  0.00  0.00    +0.000 A 
ATOM      3  C   UNL     1       6.198   3.298  11.868  0.00  0.00    +0.000 A 
ATOM      4  N   UNL     1       5.571   3.222  13.062  0.00  0.00    +0.000 NA
ATOM      5  C   UNL     1       6.104   4.035  13.997  0.00  0.00    +0.000 A 
ATOM      6  S   UNL     1       5.503   4.122  15.584  0.00  0.00    +0.000 S 
ATOM      7  C   UNL     1       6.728   5.267  15.964  0.00  0.00    +0.000 A 
ATOM      8  N   UNL     1       7.526   5.615  14.976  0.00  0.00    +0.000 NA
ATOM      9  C   UNL     1       7.184   4.900  13.843  0.00  0.00    +0.000 A 
ATOM     10  C   UNL     1       7.794   4.942  12.578  0.00  0.00    +0.000 A 
ENDBRANCH   1   7
BRANCH   1  11
ATOM     11  S   UNL     1       5.080   6.865  17.817  0.00  0.00    +0.000 S 
BRANCH  11  12
ATOM     12  C   UNL     1       4.185   5.695  18.779  0.00  0.00    +0.000 A 
ATOM     13  N   UNL     1       2.932   5.868  19.149  0.00  0.00    +0.000 NA
ATOM     14  C   UNL     1       2.504   4.745  19.835  0.00  0.00    +0.000 A 
ATOM     15  C   UNL     1       1.232   4.497  20.379  0.00  0.00    +0.000 A 
ATOM     16  C   UNL     1       1.023   3.277  21.026  0.00  0.00    +0.000 A 
ATOM     17  C   UNL     1       2.071   2.372  21.106  0.00  0.00    +0.000 A 
ATOM     18  N   UNL     1       3.312   2.558  20.607  0.00  0.00    +0.000 NA
ATOM     19  C   UNL     1       3.464   3.748  19.989  0.00  0.00    +0.000 A 
ATOM     20  S   UNL     1       4.927   4.225  19.270  0.00  0.00    +0.000 S 
ENDBRANCH  11  12
ENDBRANCH   1  11
TORSDOF 3
ENDMDL
MODEL 3
REMARK VINA RESULT:      -6.9      1.010      7.342
REMARK  Name = 
REMARK  3 active torsions:
REMARK  status: ('A' for Active; 'I' for Inactive)
REMARK    1  A    between atoms: C_6  and  S_7
REMARK    2  A    between atoms: S_7  and  S_8
REMARK    3  A    between atoms: S_8  and  C_9
REMARK                            x       y       z     vdW  Elec       q    Type
REMARK                         _______ _______ _______ _____ _____    ______ ____
ROOT
ATOM      1  S   UNL     1       5.104   6.878  17.852  0.00  0.00    +0.000 S 
ENDROOT
BRANCH   1   7
ATOM      2  C   UNL     1       1.023   3.295  21.036  0.00  0.00    +0.000 A 
ATOM      3  C   UNL     1       2.060   2.374  21.095  0.00  0.00    +0.000 A 
ATOM      4  N   UNL     1       3.301   2.554  20.591  0.00  0.00    +0.000 NA
ATOM      5  C   UNL     1       3.463   3.750  19.991  0.00  0.00    +0.000 A 
ATOM      6  S   UNL     1       4.929   4.220  19.270  0.00  0.00    +0.000 S 
ATOM      7  C   UNL     1       4.201   5.707  18.805  0.00  0.00    +0.000 A 
ATOM      8  N   UNL     1       2.953   5.889  19.186  0.00  0.00    +0.000 NA
ATOM      9  C   UNL     1       2.516   4.761  19.858  0.00  0.00    +0.000 A 
ATOM     10  C   UNL     1       1.245   4.522  20.406  0.00  0.00    +0.000 A 
ENDBRANCH   1   7
BRANCH   1  11
ATOM     11  S   UNL     1       6.900   5.898  17.632  0.00  0.00    +0.000 S 
BRANCH  11  12
ATOM     12  C   UNL     1       6.740   5.276  15.994  0.00  0.00    +0.000 A 
ATOM     13  N   UNL     1       7.540   5.623  15.005  0.00  0.00    +0.000 NA
ATOM     14  C   UNL     1       7.190   4.913  13.870  0.00  0.00    +0.000 A 
ATOM     15  C   UNL     1       7.798   4.955  12.603  0.00  0.00    +0.000 A 
ATOM     16  C   UNL     1       7.277   4.136  11.600  0.00  0.00    +0.000 A 
ATOM     17  C   UNL     1       6.190   3.324  11.893  0.00  0.00    +0.000 A 
ATOM     18  N   UNL     1       5.565   3.247  13.089  0.00  0.00    +0.000 NA
ATOM     19  C   UNL     1       6.106   4.053  14.025  0.00  0.00    +0.000 A 
ATOM     20  S   UNL     1       5.510   4.139  15.614  0.00  0.00    +0.000 S 
ENDBRANCH  11  12
ENDBRANCH   1  11
TORSDOF 3
ENDMDL
MODEL 4
REMARK VINA RESULT:      -6.8      1.376      1.756
REMARK  Name = 
REMARK  3 active torsions:
REMARK  status: ('A' for Active; 'I' for Inactive)
REMARK    1  A    between atoms: C_6  and  S_7
REMARK    2  A    between atoms: S_7  and  S_8
REMARK    3  A    between atoms: S_8  and  C_9
REMARK                            x       y       z     vdW  Elec       q    Type
REMARK                         _______ _______ _______ _____ _____    ______ ____
ROOT
ATOM      1  S   UNL     1       7.225   5.678  17.677  0.00  0.00    +0.000 S 
ENDROOT
BRANCH   1   7
ATOM      2  C   UNL     1       7.266   4.306  11.533  0.00  0.00    +0.000 A 
ATOM      3  C   UNL     1       6.285   3.378  11.855  0.00  0.00    +0.000 A 
ATOM      4  N   UNL     1       5.769   3.174  13.087  0.00  0.00    +0.000 NA
ATOM      5  C   UNL     1       6.308   3.975  14.028  0.00  0.00    +0.000 A 
ATOM      6  S   UNL     1       5.838   3.912  15.660  0.00  0.00    +0.000 S 
ATOM      7  C   UNL     1       6.988   5.139  16.019  0.00  0.00    +0.000 A 
ATOM      8  N   UNL     1       7.668   5.616  14.997  0.00  0.00    +0.000 NA
ATOM      9  C   UNL     1       7.294   4.942  13.849  0.00  0.00    +0.000 A 
ATOM     10  C   UNL     1       7.789   5.114  12.546  0.00  0.00    +0.000 A 
ENDBRANCH   1   7
BRANCH   1  11
ATOM     11  S   UNL     1       5.511   6.777  17.977  0.00  0.00    +0.000 S 
BRANCH  11  12
ATOM     12  C   UNL     1       4.369   5.505  18.395  0.00  0.00    +0.000 A 
ATOM     13  N   UNL     1       3.130   5.467  17.948  0.00  0.00    +0.000 NA
ATOM     14  C   UNL     1       2.519   4.313  18.405  0.00  0.00    +0.000 A 
ATOM     15  C   UNL     1       1.213   3.864  18.144  0.00  0.00    +0.000 A 
ATOM     16  C   UNL     1       0.811   2.653  18.710  0.00  0.00    +0.000 A 
ATOM     17  C   UNL     1       1.710   1.951  19.501  0.00  0.00    +0.000 A 
ATOM     18  N   UNL     1       2.972   2.335  19.789  0.00  0.00    +0.000 NA
ATOM     19  C   UNL     1       3.314   3.508  19.217  0.00  0.00    +0.000 A 
ATOM     20  S   UNL     1       4.849   4.210  19.417  0.00  0.00    +0.000 S 
ENDBRANCH  11  12
ENDBRANCH   1  11
TORSDOF 3
ENDMDL
MODEL 5
REMARK VINA RESULT:      -6.8      0.986      7.263
REMARK  Name = 
REMARK  3 active torsions:
REMARK  status: ('A' for Active; 'I' for Inactive)
REMARK    1  A    between atoms: C_6  and  S_7
REMARK    2  A    between atoms: S_7  and  S_8
REMARK    3  A    between atoms: S_8  and  C_9
REMARK                            x       y       z     vdW  Elec       q    Type
REMARK                         _______ _______ _______ _____ _____    ______ ____
ROOT
ATOM      1  S   UNL     1       5.354   6.863  18.003  0.00  0.00    +0.000 S 
ENDROOT
BRANCH   1   7
ATOM      2  C   UNL     1       2.145   2.347  20.993  0.00  0.00    +0.000 A 
ATOM      3  C   UNL     1       1.090   3.248  20.974  0.00  0.00    +0.000 A 
ATOM      4  N   UNL     1       1.117   4.479  20.417  0.00  0.00    +0.000 NA
ATOM      5  C   UNL     1       2.306   4.783  19.858  0.00  0.00    +0.000 A 
ATOM      6  S   UNL     1       2.603   6.274  19.097  0.00  0.00    +0.000 S 
ATOM      7  C   UNL     1       4.217   5.770  18.783  0.00  0.00    +0.000 A 
ATOM      8  N   UNL     1       4.533   4.552  19.173  0.00  0.00    +0.000 NA
ATOM      9  C   UNL     1       3.443   3.982  19.806  0.00  0.00    +0.000 A 
ATOM     10  C   UNL     1       3.355   2.710  20.396  0.00  0.00    +0.000 A 
ENDBRANCH   1   7
BRANCH   1  11
ATOM     11  S   UNL     1       7.002   5.643  17.821  0.00  0.00    +0.000 S 
BRANCH  11  12
ATOM     12  C   UNL     1       6.846   5.124  16.147  0.00  0.00    +0.000 A 
ATOM     13  N   UNL     1       7.574   5.616  15.164  0.00  0.00    +0.000 NA
ATOM     14  C   UNL     1       7.256   4.955  13.990  0.00  0.00    +0.000 A 
ATOM     15  C   UNL     1       7.812   5.145  12.714  0.00  0.00    +0.000 A 
ATOM     16  C   UNL     1       7.338   4.350  11.669  0.00  0.00    +0.000 A 
ATOM     17  C   UNL     1       6.346   3.416  11.932  0.00  0.00    +0.000 A 
ATOM     18  N   UNL     1       5.773   3.194  13.136  0.00  0.00    +0.000 NA
ATOM     19  C   UNL     1       6.266   3.983  14.112  0.00  0.00    +0.000 A 
ATOM     20  S   UNL     1       5.720   3.899  15.719  0.00  0.00    +0.000 S 
ENDBRANCH  11  12
ENDBRANCH   1  11
TORSDOF 3
ENDMDL
MODEL 6
REMARK VINA RESULT:      -6.8      0.992      1.145
REMARK  Name = 
REMARK  3 active torsions:
REMARK  status: ('A' for Active; 'I' for Inactive)
REMARK    1  A    between atoms: C_6  and  S_7
REMARK    2  A    between atoms: S_7  and  S_8
REMARK    3  A    between atoms: S_8  and  C_9
REMARK                            x       y       z     vdW  Elec       q    Type
REMARK                         _______ _______ _______ _____ _____    ______ ____
ROOT
ATOM      1  S   UNL     1       6.958   5.732  17.782  0.00  0.00    +0.000 S 
ENDROOT
BRANCH   1   7
ATOM      2  C   UNL     1       7.370   4.327  11.659  0.00  0.00    +0.000 A 
ATOM      3  C   UNL     1       6.374   3.399  11.927  0.00  0.00    +0.000 A 
ATOM      4  N   UNL     1       5.785   3.201  13.127  0.00  0.00    +0.000 NA
ATOM      5  C   UNL     1       6.265   4.008  14.094  0.00  0.00    +0.000 A 
ATOM      6  S   UNL     1       5.698   3.953  15.695  0.00  0.00    +0.000 S 
ATOM      7  C   UNL     1       6.822   5.184  16.116  0.00  0.00    +0.000 A 
ATOM      8  N   UNL     1       7.561   5.657  15.133  0.00  0.00    +0.000 NA
ATOM      9  C   UNL     1       7.258   4.975  13.969  0.00  0.00    +0.000 A 
ATOM     10  C   UNL     1       7.830   5.142  12.697  0.00  0.00    +0.000 A 
ENDBRANCH   1   7
BRANCH   1  11
ATOM     11  S   UNL     1       5.275   6.906  17.944  0.00  0.00    +0.000 S 
BRANCH  11  12
ATOM     12  C   UNL     1       4.184   5.808  18.781  0.00  0.00    +0.000 A 
ATOM     13  N   UNL     1       4.518   4.582  19.133  0.00  0.00    +0.000 NA
ATOM     14  C   UNL     1       3.467   4.008  19.826  0.00  0.00    +0.000 A 
ATOM     15  C   UNL     1       3.410   2.728  20.404  0.00  0.00    +0.000 A 
ATOM     16  C   UNL     1       2.239   2.363  21.070  0.00  0.00    +0.000 A 
ATOM     17  C   UNL     1       1.190   3.270  21.132  0.00  0.00    +0.000 A 
ATOM     18  N   UNL     1       1.189   4.509  20.593  0.00  0.00    +0.000 NA
ATOM     19  C   UNL     1       2.342   4.816  19.963  0.00  0.00    +0.000 A 
ATOM     20  S   UNL     1       2.599   6.316  19.207  0.00  0.00    +0.000 S 
ENDBRANCH  11  12
ENDBRANCH   1  11
TORSDOF 3
ENDMDL
MODEL 7
REMARK VINA RESULT:      -6.8      2.949      7.293
REMARK  Name = 
REMARK  3 active torsions:
REMARK  status: ('A' for Active; 'I' for Inactive)
REMARK    1  A    between atoms: C_6  and  S_7
REMARK    2  A    between atoms: S_7  and  S_8
REMARK    3  A    between atoms: S_8  and  C_9
REMARK                            x       y       z     vdW  Elec       q    Type
REMARK                         _______ _______ _______ _____ _____    ______ ____
ROOT
ATOM      1  S   UNL     1       3.154   4.253  18.676  0.00  0.00    +0.000 S 
ENDROOT
BRANCH   1   7
ATOM      2  C   UNL     1       1.375  10.290  18.548  0.00  0.00    +0.000 A 
ATOM      3  C   UNL     1       0.953  10.070  19.852  0.00  0.00    +0.000 A 
ATOM      4  N   UNL     1       1.078   8.911  20.534  0.00  0.00    +0.000 NA
ATOM      5  C   UNL     1       1.668   7.933  19.817  0.00  0.00    +0.000 A 
ATOM      6  S   UNL     1       1.937   6.377  20.443  0.00  0.00    +0.000 S 
ATOM      7  C   UNL     1       2.621   5.909  18.936  0.00  0.00    +0.000 A 
ATOM      8  N   UNL     1       2.695   6.848  18.015  0.00  0.00    +0.000 NA
ATOM      9  C   UNL     1       2.136   8.013  18.509  0.00  0.00    +0.000 A 
ATOM     10  C   UNL     1       1.984   9.245  17.850  0.00  0.00    +0.000 A 
ENDBRANCH   1   7
BRANCH   1  11
ATOM     11  S   UNL     1       5.175   4.438  19.019  0.00  0.00    +0.000 S 
BRANCH  11  12
ATOM     12  C   UNL     1       5.788   4.479  17.370  0.00  0.00    +0.000 A 
ATOM     13  N   UNL     1       5.228   3.825  16.371  0.00  0.00    +0.000 NA
ATOM     14  C   UNL     1       5.909   4.116  15.202  0.00  0.00    +0.000 A 
ATOM     15  C   UNL     1       5.630   3.658  13.903  0.00  0.00    +0.000 A 
ATOM     16  C   UNL     1       6.453   4.095  12.864  0.00  0.00    +0.000 A 
ATOM     17  C   UNL     1       7.503   4.954  13.155  0.00  0.00    +0.000 A 
ATOM     18  N   UNL     1       7.819   5.423  14.382  0.00  0.00    +0.000 NA
ATOM     19  C   UNL     1       6.994   4.975  15.351  0.00  0.00    +0.000 A 
ATOM     20  S   UNL     1       7.171   5.421  16.981  0.00  0.00    +0.000 S 
ENDBRANCH  11  12
ENDBRANCH   1  11
TORSDOF 3
ENDMDL
MODEL 8
REMARK VINA RESULT:      -6.8      2.450      3.042
REMARK  Name = 
REMARK  3 active torsions:
REMARK  status: ('A' for Active; 'I' for Inactive)
REMARK    1  A    between atoms: C_6  and  S_7
REMARK    2  A    between atoms: S_7  and  S_8
REMARK    3  A    between atoms: S_8  and  C_9
REMARK                            x       y       z     vdW  Elec       q    Type
REMARK                         _______ _______ _______ _____ _____    ______ ____
ROOT
ATOM      1  S   UNL     1       6.571   5.306  18.230  0.00  0.00    +0.000 S 
ENDROOT
BRANCH   1   7
ATOM      2  C   UNL     1       7.484   4.642  12.037  0.00  0.00    +0.000 A 
ATOM      3  C   UNL     1       6.474   3.694  12.110  0.00  0.00    +0.000 A 
ATOM      4  N   UNL     1       5.791   3.356  13.226  0.00  0.00    +0.000 NA
ATOM      5  C   UNL     1       6.188   4.039  14.319  0.00  0.00    +0.000 A 
ATOM      6  S   UNL     1       5.493   3.795  15.851  0.00  0.00    +0.000 S 
ATOM      7  C   UNL     1       6.573   4.962  16.505  0.00  0.00    +0.000 A 
ATOM      8  N   UNL     1       7.387   5.546  15.649  0.00  0.00    +0.000 NA
ATOM      9  C   UNL     1       7.182   5.010  14.391  0.00  0.00    +0.000 A 
ATOM     10  C   UNL     1       7.854   5.325  13.199  0.00  0.00    +0.000 A 
ENDBRANCH   1   7
BRANCH   1  11
ATOM     11  S   UNL     1       4.804   4.419  18.802  0.00  0.00    +0.000 S 
BRANCH  11  12
ATOM     12  C   UNL     1       3.737   5.817  18.867  0.00  0.00    +0.000 A 
ATOM     13  N   UNL     1       3.001   6.118  19.918  0.00  0.00    +0.000 NA
ATOM     14  C   UNL     1       2.329   7.304  19.675  0.00  0.00    +0.000 A 
ATOM     15  C   UNL     1       1.463   7.998  20.535  0.00  0.00    +0.000 A 
ATOM     16  C   UNL     1       0.901   9.191  20.077  0.00  0.00    +0.000 A 
ATOM     17  C   UNL     1       1.219   9.636  18.801  0.00  0.00    +0.000 A 
ATOM     18  N   UNL     1       2.041   9.008  17.931  0.00  0.00    +0.000 NA
ATOM     19  C   UNL     1       2.560   7.864  18.421  0.00  0.00    +0.000 A 
ATOM     20  S   UNL     1       3.628   6.889  17.529  0.00  0.00    +0.000 S 
ENDBRANCH  11  12
ENDBRANCH   1  11
TORSDOF 3
ENDMDL
MODEL 9
REMARK VINA RESULT:      -6.7      0.304      6.999
REMARK  Name = 
REMARK  3 active torsions:
REMARK  status: ('A' for Active; 'I' for Inactive)
REMARK    1  A    between atoms: C_6  and  S_7
REMARK    2  A    between atoms: S_7  and  S_8
REMARK    3  A    between atoms: S_8  and  C_9
REMARK                            x       y       z     vdW  Elec       q    Type
REMARK                         _______ _______ _______ _____ _____    ______ ____
ROOT
ATOM      1  S   UNL     1       7.024   4.944  18.948  0.00  0.00    +0.000 S 
ENDROOT
BRANCH   1   7
ATOM      2  C   UNL     1       1.310   2.671  20.292  0.00  0.00    +0.000 A 
ATOM      3  C   UNL     1       0.893   3.991  20.200  0.00  0.00    +0.000 A 
ATOM      4  N   UNL     1       1.680   5.045  19.892  0.00  0.00    +0.000 NA
ATOM      5  C   UNL     1       2.966   4.702  19.675  0.00  0.00    +0.000 A 
ATOM      6  S   UNL     1       4.162   5.843  19.278  0.00  0.00    +0.000 S 
ATOM      7  C   UNL     1       5.329   4.580  19.247  0.00  0.00    +0.000 A 
ATOM      8  N   UNL     1       4.877   3.364  19.473  0.00  0.00    +0.000 NA
ATOM      9  C   UNL     1       3.520   3.427  19.735  0.00  0.00    +0.000 A 
ATOM     10  C   UNL     1       2.653   2.368  20.054  0.00  0.00    +0.000 A 
ENDBRANCH   1   7
BRANCH   1  11
ATOM     11  S   UNL     1       6.858   6.546  17.666  0.00  0.00    +0.000 S 
BRANCH  11  12
ATOM     12  C   UNL     1       6.627   5.719  16.130  0.00  0.00    +0.000 A 
ATOM     13  N   UNL     1       7.492   5.779  15.138  0.00  0.00    +0.000 NA
ATOM     14  C   UNL     1       7.051   4.973  14.103  0.00  0.00    +0.000 A 
ATOM     15  C   UNL     1       7.680   4.724  12.872  0.00  0.00    +0.000 A 
ATOM     16  C   UNL     1       7.048   3.859  11.976  0.00  0.00    +0.000 A 
ATOM     17  C   UNL     1       5.836   3.289  12.336  0.00  0.00    +0.000 A 
ATOM     18  N   UNL     1       5.184   3.495  13.502  0.00  0.00    +0.000 NA
ATOM     19  C   UNL     1       5.835   4.334  14.334  0.00  0.00    +0.000 A 
ATOM     20  S   UNL     1       5.231   4.753  15.866  0.00  0.00    +0.000 S 
ENDBRANCH  11  12
ENDBRANCH   1  11
TORSDOF 3
ENDMDL
