MODEL 1
REMARK VINA RESULT:      -8.0      0.000      0.000
REMARK  Name = 
REMARK  5 active torsions:
REMARK  status: ('A' for Active; 'I' for Inactive)
REMARK    1  A    between atoms: C_1  and  N_2
REMARK    2  A    between atoms: C_6  and  C_7
REMARK    3  A    between atoms: N_9  and  C_10
REMARK    4  A    between atoms: C_13  and  S_14
REMARK    5  A    between atoms: S_14  and  N_17
REMARK                            x       y       z     vdW  Elec       q    Type
REMARK                         _______ _______ _______ _____ _____    ______ ____
ROOT
ATOM      1  C   UNL     1       4.199   5.604  17.933  0.00  0.00    +0.000 A 
ATOM      2  C   UNL     1       3.826   4.715  18.916  0.00  0.00    +0.000 A 
ATOM      3  N   UNL     1       2.936   5.347  19.747  0.00  0.00    +0.000 N 
ATOM      4  C   UNL     1       2.380   4.758  20.946  0.00  0.00    +0.000 C 
ATOM      5  C   UNL     1       2.668   6.616  19.283  0.00  0.00    +0.000 A 
ATOM      6  C   UNL     1       1.780   7.596  19.756  0.00  0.00    +0.000 A 
ATOM      7  C   UNL     1       1.712   8.806  19.058  0.00  0.00    +0.000 A 
ATOM      8  C   UNL     1       2.488   9.039  17.923  0.00  0.00    +0.000 A 
ATOM      9  C   UNL     1       3.369   8.052  17.469  0.00  0.00    +0.000 A 
ATOM     10  C   UNL     1       3.473   6.817  18.152  0.00  0.00    +0.000 A 
ENDROOT
BRANCH   1  16
ATOM     11  C   UNL     1       7.093   6.864  17.485  0.00  0.00    +0.000 C 
ATOM     12  N   UNL     1       6.408   5.913  16.643  0.00  0.00    +0.000 N 
ATOM     13  N   UNL     1       7.057   5.429  15.560  0.00  0.00    +0.000 NA
ATOM     14  C   UNL     1       6.242   4.479  15.103  0.00  0.00    +0.000 A 
ATOM     15  C   UNL     1       5.081   4.347  15.883  0.00  0.00    +0.000 A 
ATOM     16  C   UNL     1       5.197   5.305  16.868  0.00  0.00    +0.000 A 
ENDBRANCH   1  16
BRANCH   7  17
ATOM     17  S   UNL     1       0.507  10.014  19.559  0.00  0.00    +0.000 S 
ATOM     18  O   UNL     1      -0.626   9.305  20.116  0.00  0.00    +0.000 OA
ATOM     19  O   UNL     1       1.200  11.031  20.317  0.00  0.00    +0.000 OA
BRANCH  17  20
ATOM     20  N   UNL     1      -0.022  10.615  18.065  0.00  0.00    +0.000 N 
ATOM     21  C   UNL     1      -1.432  10.636  17.995  0.00  0.00    +0.000 A 
ATOM     22  N   UNL     1      -2.079   9.716  17.325  0.00  0.00    +0.000 NA
ATOM     23  C   UNL     1      -3.432   9.986  17.471  0.00  0.00    +0.000 A 
ATOM     24  N   UNL     1      -3.844  11.093  18.093  0.00  0.00    +0.000 NA
ATOM     25  S   UNL     1      -2.452  11.855  18.633  0.00  0.00    +0.000 S 
ATOM     26  H   UNL     1       0.339   9.969  17.363  0.00  0.00    +0.000 HD
ENDBRANCH  17  20
ENDBRANCH   7  17
TORSDOF 3
ENDMDL
MODEL 2
REMARK VINA RESULT:      -7.6      2.072      2.134
REMARK  Name = 
REMARK  5 active torsions:
REMARK  status: ('A' for Active; 'I' for Inactive)
REMARK    1  A    between atoms: C_1  and  N_2
REMARK    2  A    between atoms: C_6  and  C_7
REMARK    3  A    between atoms: N_9  and  C_10
REMARK    4  A    between atoms: C_13  and  S_14
REMARK    5  A    between atoms: S_14  and  N_17
REMARK                            x       y       z     vdW  Elec       q    Type
REMARK                         _______ _______ _______ _____ _____    ______ ____
ROOT
ATOM      1  C   UNL     1       4.292   5.252  18.163  0.00  0.00    +0.000 A 
ATOM      2  C   UNL     1       3.863   4.435  19.185  0.00  0.00    +0.000 A 
ATOM      3  N   UNL     1       2.937   5.126  19.923  0.00  0.00    +0.000 N 
ATOM      4  C   UNL     1       2.316   4.625  21.129  0.00  0.00    +0.000 C 
ATOM      5  C   UNL     1       2.702   6.361  19.358  0.00  0.00    +0.000 A 
ATOM      6  C   UNL     1       1.798   7.375  19.716  0.00  0.00    +0.000 A 
ATOM      7  C   UNL     1       1.775   8.534  18.933  0.00  0.00    +0.000 A 
ATOM      8  C   UNL     1       2.609   8.684  17.826  0.00  0.00    +0.000 A 
ATOM      9  C   UNL     1       3.505   7.665  17.488  0.00  0.00    +0.000 A 
ATOM     10  C   UNL     1       3.565   6.480  18.259  0.00  0.00    +0.000 A 
ENDROOT
BRANCH   1  16
ATOM     11  C   UNL     1       7.463   5.471  18.420  0.00  0.00    +0.000 C 
ATOM     12  N   UNL     1       6.701   5.050  17.268  0.00  0.00    +0.000 N 
ATOM     13  N   UNL     1       7.372   4.634  16.171  0.00  0.00    +0.000 NA
ATOM     14  C   UNL     1       6.411   4.169  15.372  0.00  0.00    +0.000 A 
ATOM     15  C   UNL     1       5.135   4.279  15.948  0.00  0.00    +0.000 A 
ATOM     16  C   UNL     1       5.341   4.876  17.174  0.00  0.00    +0.000 A 
ENDBRANCH   1  16
BRANCH   7  17
ATOM     17  S   UNL     1       0.554   9.778  19.286  0.00  0.00    +0.000 S 
ATOM     18  O   UNL     1      -0.239   9.973  18.090  0.00  0.00    +0.000 OA
ATOM     19  O   UNL     1      -0.065   9.434  20.546  0.00  0.00    +0.000 OA
BRANCH  17  20
ATOM     20  N   UNL     1       1.510  11.169  19.430  0.00  0.00    +0.000 N 
ATOM     21  C   UNL     1       0.713  12.334  19.467  0.00  0.00    +0.000 A 
ATOM     22  N   UNL     1       0.595  13.094  18.407  0.00  0.00    +0.000 NA
ATOM     23  C   UNL     1      -0.268  14.126  18.744  0.00  0.00    +0.000 A 
ATOM     24  N   UNL     1      -0.709  14.265  19.996  0.00  0.00    +0.000 NA
ATOM     25  S   UNL     1      -0.080  12.965  20.847  0.00  0.00    +0.000 S 
ATOM     26  H   UNL     1       2.097  11.191  18.596  0.00  0.00    +0.000 HD
ENDBRANCH  17  20
ENDBRANCH   7  17
TORSDOF 3
ENDMDL
MODEL 3
REMARK VINA RESULT:      -7.6      2.276      2.633
REMARK  Name = 
REMARK  5 active torsions:
REMARK  status: ('A' for Active; 'I' for Inactive)
REMARK    1  A    between atoms: C_1  and  N_2
REMARK    2  A    between atoms: C_6  and  C_7
REMARK    3  A    between atoms: N_9  and  C_10
REMARK    4  A    between atoms: C_13  and  S_14
REMARK    5  A    between atoms: S_14  and  N_17
REMARK                            x       y       z     vdW  Elec       q    Type
REMARK                         _______ _______ _______ _____ _____    ______ ____
ROOT
ATOM      1  C   UNL     1       4.181   5.380  18.094  0.00  0.00    +0.000 A 
ATOM      2  C   UNL     1       3.735   4.549  19.097  0.00  0.00    +0.000 A 
ATOM      3  N   UNL     1       2.843   5.251  19.867  0.00  0.00    +0.000 N 
ATOM      4  C   UNL     1       2.218   4.737  21.066  0.00  0.00    +0.000 C 
ATOM      5  C   UNL     1       2.647   6.510  19.342  0.00  0.00    +0.000 A 
ATOM      6  C   UNL     1       1.785   7.545  19.741  0.00  0.00    +0.000 A 
ATOM      7  C   UNL     1       1.796   8.727  18.993  0.00  0.00    +0.000 A 
ATOM      8  C   UNL     1       2.622   8.880  17.880  0.00  0.00    +0.000 A 
ATOM      9  C   UNL     1       3.475   7.839  17.500  0.00  0.00    +0.000 A 
ATOM     10  C   UNL     1       3.501   6.630  18.235  0.00  0.00    +0.000 A 
ENDROOT
BRANCH   1  16
ATOM     11  C   UNL     1       7.196   6.377  17.807  0.00  0.00    +0.000 C 
ATOM     12  N   UNL     1       6.474   5.493  16.923  0.00  0.00    +0.000 N 
ATOM     13  N   UNL     1       7.134   4.955  15.873  0.00  0.00    +0.000 NA
ATOM     14  C   UNL     1       6.263   4.083  15.367  0.00  0.00    +0.000 A 
ATOM     15  C   UNL     1       5.055   4.053  16.084  0.00  0.00    +0.000 A 
ATOM     16  C   UNL     1       5.204   4.995  17.081  0.00  0.00    +0.000 A 
ENDBRANCH   1  16
BRANCH   7  17
ATOM     17  S   UNL     1       0.626  10.004  19.398  0.00  0.00    +0.000 S 
ATOM     18  O   UNL     1       0.757  11.054  18.409  0.00  0.00    +0.000 OA
ATOM     19  O   UNL     1      -0.646   9.365  19.648  0.00  0.00    +0.000 OA
BRANCH  17  20
ATOM     20  N   UNL     1       1.286  10.637  20.824  0.00  0.00    +0.000 N 
ATOM     21  C   UNL     1       0.274  10.973  21.749  0.00  0.00    +0.000 A 
ATOM     22  N   UNL     1      -0.087  12.221  21.916  0.00  0.00    +0.000 NA
ATOM     23  C   UNL     1      -1.111  12.224  22.852  0.00  0.00    +0.000 A 
ATOM     24  N   UNL     1      -1.463  11.100  23.481  0.00  0.00    +0.000 NA
ATOM     25  S   UNL     1      -0.511   9.890  22.817  0.00  0.00    +0.000 S 
ATOM     26  H   UNL     1       1.783  11.485  20.548  0.00  0.00    +0.000 HD
ENDBRANCH  17  20
ENDBRANCH   7  17
TORSDOF 3
ENDMDL
MODEL 4
REMARK VINA RESULT:      -7.3      4.114      7.600
REMARK  Name = 
REMARK  5 active torsions:
REMARK  status: ('A' for Active; 'I' for Inactive)
REMARK    1  A    between atoms: C_1  and  N_2
REMARK    2  A    between atoms: C_6  and  C_7
REMARK    3  A    between atoms: N_9  and  C_10
REMARK    4  A    between atoms: C_13  and  S_14
REMARK    5  A    between atoms: S_14  and  N_17
REMARK                            x       y       z     vdW  Elec       q    Type
REMARK                         _______ _______ _______ _____ _____    ______ ____
ROOT
ATOM      1  C   UNL     1       0.653  11.553  20.039  0.00  0.00    +0.000 A 
ATOM      2  C   UNL     1       0.250  11.157  21.295  0.00  0.00    +0.000 A 
ATOM      3  N   UNL     1       0.497   9.813  21.419  0.00  0.00    +0.000 N 
ATOM      4  C   UNL     1       0.134   9.020  22.573  0.00  0.00    +0.000 C 
ATOM      5  C   UNL     1       1.119   9.337  20.286  0.00  0.00    +0.000 A 
ATOM      6  C   UNL     1       1.621   8.059  19.985  0.00  0.00    +0.000 A 
ATOM      7  C   UNL     1       2.225   7.874  18.737  0.00  0.00    +0.000 A 
ATOM      8  C   UNL     1       2.341   8.916  17.819  0.00  0.00    +0.000 A 
ATOM      9  C   UNL     1       1.832  10.180  18.136  0.00  0.00    +0.000 A 
ATOM     10  C   UNL     1       1.207  10.408  19.384  0.00  0.00    +0.000 A 
ENDROOT
BRANCH   1  16
ATOM     11  C   UNL     1       2.873  13.802  19.625  0.00  0.00    +0.000 C 
ATOM     12  N   UNL     1       1.451  13.920  19.409  0.00  0.00    +0.000 N 
ATOM     13  N   UNL     1       0.970  15.084  18.916  0.00  0.00    +0.000 NA
ATOM     14  C   UNL     1      -0.315  14.819  18.682  0.00  0.00    +0.000 A 
ATOM     15  C   UNL     1      -0.660  13.498  19.015  0.00  0.00    +0.000 A 
ATOM     16  C   UNL     1       0.498  12.935  19.507  0.00  0.00    +0.000 A 
ENDBRANCH   1  16
BRANCH   7  17
ATOM     17  S   UNL     1       2.979   6.303  18.380  0.00  0.00    +0.000 S 
ATOM     18  O   UNL     1       1.939   5.405  17.923  0.00  0.00    +0.000 OA
ATOM     19  O   UNL     1       4.154   6.558  17.577  0.00  0.00    +0.000 OA
BRANCH  17  20
ATOM     20  N   UNL     1       3.400   5.761  19.929  0.00  0.00    +0.000 N 
ATOM     21  C   UNL     1       2.771   4.533  20.227  0.00  0.00    +0.000 A 
ATOM     22  N   UNL     1       1.721   4.494  21.009  0.00  0.00    +0.000 NA
ATOM     23  C   UNL     1       1.318   3.169  21.080  0.00  0.00    +0.000 A 
ATOM     24  N   UNL     1       2.045   2.203  20.514  0.00  0.00    +0.000 NA
ATOM     25  S   UNL     1       3.314   2.982  19.743  0.00  0.00    +0.000 S 
ATOM     26  H   UNL     1       3.062   6.475  20.575  0.00  0.00    +0.000 HD
ENDBRANCH  17  20
ENDBRANCH   7  17
TORSDOF 3
ENDMDL
MODEL 5
REMARK VINA RESULT:      -7.3      1.931      2.280
REMARK  Name = 
REMARK  5 active torsions:
REMARK  status: ('A' for Active; 'I' for Inactive)
REMARK    1  A    between atoms: C_1  and  N_2
REMARK    2  A    between atoms: C_6  and  C_7
REMARK    3  A    between atoms: N_9  and  C_10
REMARK    4  A    between atoms: C_13  and  S_14
REMARK    5  A    between atoms: S_14  and  N_17
REMARK                            x       y       z     vdW  Elec       q    Type
REMARK                         _______ _______ _______ _____ _____    ______ ____
ROOT
ATOM      1  C   UNL     1       3.806   4.708  18.696  0.00  0.00    +0.000 A 
ATOM      2  C   UNL     1       3.456   3.699  19.565  0.00  0.00    +0.000 A 
ATOM      3  N   UNL     1       2.632   4.229  20.525  0.00  0.00    +0.000 N 
ATOM      4  C   UNL     1       2.120   3.492  21.659  0.00  0.00    +0.000 C 
ATOM      5  C   UNL     1       2.383   5.558  20.258  0.00  0.00    +0.000 A 
ATOM      6  C   UNL     1       1.553   6.484  20.913  0.00  0.00    +0.000 A 
ATOM      7  C   UNL     1       1.489   7.782  20.395  0.00  0.00    +0.000 A 
ATOM      8  C   UNL     1       2.212   8.153  19.262  0.00  0.00    +0.000 A 
ATOM      9  C   UNL     1       3.035   7.218  18.626  0.00  0.00    +0.000 A 
ATOM     10  C   UNL     1       3.134   5.897  19.123  0.00  0.00    +0.000 A 
ENDROOT
BRANCH   1  16
ATOM     11  C   UNL     1       6.907   5.424  18.500  0.00  0.00    +0.000 C 
ATOM     12  N   UNL     1       6.052   4.924  17.450  0.00  0.00    +0.000 N 
ATOM     13  N   UNL     1       6.603   4.656  16.245  0.00  0.00    +0.000 NA
ATOM     14  C   UNL     1       5.614   4.071  15.569  0.00  0.00    +0.000 A 
ATOM     15  C   UNL     1       4.439   3.956  16.331  0.00  0.00    +0.000 A 
ATOM     16  C   UNL     1       4.737   4.537  17.545  0.00  0.00    +0.000 A 
ENDBRANCH   1  16
BRANCH   7  17
ATOM     17  S   UNL     1       0.353   8.937  21.128  0.00  0.00    +0.000 S 
ATOM     18  O   UNL     1      -0.717   8.177  21.742  0.00  0.00    +0.000 OA
ATOM     19  O   UNL     1       1.130   9.887  21.890  0.00  0.00    +0.000 OA
BRANCH  17  20
ATOM     20  N   UNL     1      -0.333   9.662  19.758  0.00  0.00    +0.000 N 
ATOM     21  C   UNL     1      -0.157  11.062  19.782  0.00  0.00    +0.000 A 
ATOM     22  N   UNL     1      -1.146  11.852  20.118  0.00  0.00    +0.000 NA
ATOM     23  C   UNL     1      -0.658  13.150  20.078  0.00  0.00    +0.000 A 
ATOM     24  N   UNL     1       0.573  13.403  19.630  0.00  0.00    +0.000 NA
ATOM     25  S   UNL     1       1.249  11.907  19.291  0.00  0.00    +0.000 S 
ATOM     26  H   UNL     1      -1.330   9.449  19.802  0.00  0.00    +0.000 HD
ENDBRANCH  17  20
ENDBRANCH   7  17
TORSDOF 3
ENDMDL
MODEL 6
REMARK VINA RESULT:      -7.2      2.109      2.628
REMARK  Name = 
REMARK  5 active torsions:
REMARK  status: ('A' for Active; 'I' for Inactive)
REMARK    1  A    between atoms: C_1  and  N_2
REMARK    2  A    between atoms: C_6  and  C_7
REMARK    3  A    between atoms: N_9  and  C_10
REMARK    4  A    between atoms: C_13  and  S_14
REMARK    5  A    between atoms: S_14  and  N_17
REMARK                            x       y       z     vdW  Elec       q    Type
REMARK                         _______ _______ _______ _____ _____    ______ ____
ROOT
ATOM      1  C   UNL     1       4.291   5.257  18.049  0.00  0.00    +0.000 A 
ATOM      2  C   UNL     1       3.815   4.473  19.076  0.00  0.00    +0.000 A 
ATOM      3  N   UNL     1       2.906   5.210  19.790  0.00  0.00    +0.000 N 
ATOM      4  C   UNL     1       2.248   4.751  20.994  0.00  0.00    +0.000 C 
ATOM      5  C   UNL     1       2.728   6.445  19.205  0.00  0.00    +0.000 A 
ATOM      6  C   UNL     1       1.859   7.499  19.535  0.00  0.00    +0.000 A 
ATOM      7  C   UNL     1       1.893   8.646  18.735  0.00  0.00    +0.000 A 
ATOM      8  C   UNL     1       2.749   8.747  17.639  0.00  0.00    +0.000 A 
ATOM      9  C   UNL     1       3.609   7.689  17.329  0.00  0.00    +0.000 A 
ATOM     10  C   UNL     1       3.611   6.514  18.117  0.00  0.00    +0.000 A 
ENDROOT
BRANCH   1  16
ATOM     11  C   UNL     1       7.455   5.595  18.236  0.00  0.00    +0.000 C 
ATOM     12  N   UNL     1       6.693   5.049  17.139  0.00  0.00    +0.000 N 
ATOM     13  N   UNL     1       7.362   4.556  16.073  0.00  0.00    +0.000 NA
ATOM     14  C   UNL     1       6.407   3.993  15.334  0.00  0.00    +0.000 A 
ATOM     15  C   UNL     1       5.135   4.116  15.917  0.00  0.00    +0.000 A 
ATOM     16  C   UNL     1       5.338   4.826  17.082  0.00  0.00    +0.000 A 
ENDBRANCH   1  16
BRANCH   7  17
ATOM     17  S   UNL     1       0.718   9.942  19.052  0.00  0.00    +0.000 S 
ATOM     18  O   UNL     1       1.353  10.915  19.917  0.00  0.00    +0.000 OA
ATOM     19  O   UNL     1       0.145  10.330  17.783  0.00  0.00    +0.000 OA
BRANCH  17  20
ATOM     20  N   UNL     1      -0.421   9.146  20.023  0.00  0.00    +0.000 N 
ATOM     21  C   UNL     1      -0.383   9.625  21.350  0.00  0.00    +0.000 A 
ATOM     22  N   UNL     1       0.208   8.933  22.291  0.00  0.00    +0.000 NA
ATOM     23  C   UNL     1       0.108   9.672  23.461  0.00  0.00    +0.000 A 
ATOM     24  N   UNL     1      -0.607  10.799  23.496  0.00  0.00    +0.000 NA
ATOM     25  S   UNL     1      -1.156  11.039  21.931  0.00  0.00    +0.000 S 
ATOM     26  H   UNL     1      -0.153   8.162  20.014  0.00  0.00    +0.000 HD
ENDBRANCH  17  20
ENDBRANCH   7  17
TORSDOF 3
ENDMDL
MODEL 7
REMARK VINA RESULT:      -7.1      4.119      7.459
REMARK  Name = 
REMARK  5 active torsions:
REMARK  status: ('A' for Active; 'I' for Inactive)
REMARK    1  A    between atoms: C_1  and  N_2
REMARK    2  A    between atoms: C_6  and  C_7
REMARK    3  A    between atoms: N_9  and  C_10
REMARK    4  A    between atoms: C_13  and  S_14
REMARK    5  A    between atoms: S_14  and  N_17
REMARK                            x       y       z     vdW  Elec       q    Type
REMARK                         _______ _______ _______ _____ _____    ______ ____
ROOT
ATOM      1  C   UNL     1       0.610  11.279  19.901  0.00  0.00    +0.000 A 
ATOM      2  C   UNL     1       0.134  10.852  21.120  0.00  0.00    +0.000 A 
ATOM      3  N   UNL     1       0.418   9.516  21.244  0.00  0.00    +0.000 N 
ATOM      4  C   UNL     1       0.003   8.694  22.360  0.00  0.00    +0.000 C 
ATOM      5  C   UNL     1       1.135   9.077  20.152  0.00  0.00    +0.000 A 
ATOM      6  C   UNL     1       1.700   7.821  19.872  0.00  0.00    +0.000 A 
ATOM      7  C   UNL     1       2.396   7.675  18.668  0.00  0.00    +0.000 A 
ATOM      8  C   UNL     1       2.540   8.734  17.773  0.00  0.00    +0.000 A 
ATOM      9  C   UNL     1       1.968   9.976  18.069  0.00  0.00    +0.000 A 
ATOM     10  C   UNL     1       1.248  10.163  19.272  0.00  0.00    +0.000 A 
ENDROOT
BRANCH   1  16
ATOM     11  C   UNL     1       2.710  13.678  19.876  0.00  0.00    +0.000 C 
ATOM     12  N   UNL     1       1.334  13.710  19.444  0.00  0.00    +0.000 N 
ATOM     13  N   UNL     1       0.856  14.854  18.904  0.00  0.00    +0.000 NA
ATOM     14  C   UNL     1      -0.357  14.514  18.468  0.00  0.00    +0.000 A 
ATOM     15  C   UNL     1      -0.659  13.165  18.720  0.00  0.00    +0.000 A 
ATOM     16  C   UNL     1       0.446  12.664  19.376  0.00  0.00    +0.000 A 
ENDBRANCH   1  16
BRANCH   7  17
ATOM     17  S   UNL     1       3.227   6.136  18.345  0.00  0.00    +0.000 S 
ATOM     18  O   UNL     1       4.032   6.308  17.153  0.00  0.00    +0.000 OA
ATOM     19  O   UNL     1       3.816   5.691  19.588  0.00  0.00    +0.000 OA
BRANCH  17  20
ATOM     20  N   UNL     1       1.939   5.137  17.883  0.00  0.00    +0.000 N 
ATOM     21  C   UNL     1       1.835   4.015  18.734  0.00  0.00    +0.000 A 
ATOM     22  N   UNL     1       2.269   2.842  18.345  0.00  0.00    +0.000 NA
ATOM     23  C   UNL     1       2.061   1.964  19.399  0.00  0.00    +0.000 A 
ATOM     24  N   UNL     1       1.402   2.355  20.492  0.00  0.00    +0.000 NA
ATOM     25  S   UNL     1       1.065   3.981  20.263  0.00  0.00    +0.000 S 
ATOM     26  H   UNL     1       2.158   4.821  16.938  0.00  0.00    +0.000 HD
ENDBRANCH  17  20
ENDBRANCH   7  17
TORSDOF 3
ENDMDL
MODEL 8
REMARK VINA RESULT:      -7.1      3.307      7.867
REMARK  Name = 
REMARK  5 active torsions:
REMARK  status: ('A' for Active; 'I' for Inactive)
REMARK    1  A    between atoms: C_1  and  N_2
REMARK    2  A    between atoms: C_6  and  C_7
REMARK    3  A    between atoms: N_9  and  C_10
REMARK    4  A    between atoms: C_13  and  S_14
REMARK    5  A    between atoms: S_14  and  N_17
REMARK                            x       y       z     vdW  Elec       q    Type
REMARK                         _______ _______ _______ _____ _____    ______ ____
ROOT
ATOM      1  C   UNL     1       0.745  10.776  19.869  0.00  0.00    +0.000 A 
ATOM      2  C   UNL     1       0.223  10.478  21.108  0.00  0.00    +0.000 A 
ATOM      3  N   UNL     1       0.456   9.151  21.362  0.00  0.00    +0.000 N 
ATOM      4  C   UNL     1      -0.016   8.449  22.536  0.00  0.00    +0.000 C 
ATOM      5  C   UNL     1       1.185   8.590  20.336  0.00  0.00    +0.000 A 
ATOM      6  C   UNL     1       1.712   7.296  20.188  0.00  0.00    +0.000 A 
ATOM      7  C   UNL     1       2.434   7.016  19.022  0.00  0.00    +0.000 A 
ATOM      8  C   UNL     1       2.638   7.983  18.039  0.00  0.00    +0.000 A 
ATOM      9  C   UNL     1       2.102   9.265  18.204  0.00  0.00    +0.000 A 
ATOM     10  C   UNL     1       1.359   9.586  19.364  0.00  0.00    +0.000 A 
ENDROOT
BRANCH   1  16
ATOM     11  C   UNL     1      -1.738  12.084  18.357  0.00  0.00    +0.000 C 
ATOM     12  N   UNL     1      -0.409  12.629  18.499  0.00  0.00    +0.000 N 
ATOM     13  N   UNL     1      -0.162  13.861  18.001  0.00  0.00    +0.000 NA
ATOM     14  C   UNL     1       1.070  14.133  18.429  0.00  0.00    +0.000 A 
ATOM     15  C   UNL     1       1.613  13.091  19.200  0.00  0.00    +0.000 A 
ATOM     16  C   UNL     1       0.643  12.111  19.216  0.00  0.00    +0.000 A 
ENDBRANCH   1  16
BRANCH   7  17
ATOM     17  S   UNL     1       3.219   5.428  18.866  0.00  0.00    +0.000 S 
ATOM     18  O   UNL     1       2.575   4.522  19.794  0.00  0.00    +0.000 OA
ATOM     19  O   UNL     1       3.302   5.121  17.456  0.00  0.00    +0.000 OA
BRANCH  17  20
ATOM     20  N   UNL     1       4.752   5.734  19.519  0.00  0.00    +0.000 N 
ATOM     21  C   UNL     1       5.763   5.560  18.550  0.00  0.00    +0.000 A 
ATOM     22  N   UNL     1       6.499   4.477  18.542  0.00  0.00    +0.000 NA
ATOM     23  C   UNL     1       7.367   4.585  17.465  0.00  0.00    +0.000 A 
ATOM     24  N   UNL     1       7.420   5.706  16.742  0.00  0.00    +0.000 NA
ATOM     25  S   UNL     1       6.241   6.714  17.378  0.00  0.00    +0.000 S 
ATOM     26  H   UNL     1       4.879   5.047  20.263  0.00  0.00    +0.000 HD
ENDBRANCH  17  20
ENDBRANCH   7  17
TORSDOF 3
ENDMDL
MODEL 9
REMARK VINA RESULT:      -7.1      3.899      7.677
REMARK  Name = 
REMARK  5 active torsions:
REMARK  status: ('A' for Active; 'I' for Inactive)
REMARK    1  A    between atoms: C_1  and  N_2
REMARK    2  A    between atoms: C_6  and  C_7
REMARK    3  A    between atoms: N_9  and  C_10
REMARK    4  A    between atoms: C_13  and  S_14
REMARK    5  A    between atoms: S_14  and  N_17
REMARK                            x       y       z     vdW  Elec       q    Type
REMARK                         _______ _______ _______ _____ _____    ______ ____
ROOT
ATOM      1  C   UNL     1       0.687  11.342  20.038  0.00  0.00    +0.000 A 
ATOM      2  C   UNL     1       0.365  10.964  21.322  0.00  0.00    +0.000 A 
ATOM      3  N   UNL     1       0.660   9.632  21.462  0.00  0.00    +0.000 N 
ATOM      4  C   UNL     1       0.385   8.855  22.651  0.00  0.00    +0.000 C 
ATOM      5  C   UNL     1       1.235   9.147  20.307  0.00  0.00    +0.000 A 
ATOM      6  C   UNL     1       1.758   7.878  20.007  0.00  0.00    +0.000 A 
ATOM      7  C   UNL     1       2.300   7.682  18.732  0.00  0.00    +0.000 A 
ATOM      8  C   UNL     1       2.334   8.706  17.787  0.00  0.00    +0.000 A 
ATOM      9  C   UNL     1       1.804   9.961  18.103  0.00  0.00    +0.000 A 
ATOM     10  C   UNL     1       1.240  10.199  19.379  0.00  0.00    +0.000 A 
ENDROOT
BRANCH   1  16
ATOM     11  C   UNL     1      -1.546  12.333  17.990  0.00  0.00    +0.000 C 
ATOM     12  N   UNL     1      -0.457  13.101  18.542  0.00  0.00    +0.000 N 
ATOM     13  N   UNL     1      -0.371  14.413  18.228  0.00  0.00    +0.000 NA
ATOM     14  C   UNL     1       0.614  14.860  19.006  0.00  0.00    +0.000 A 
ATOM     15  C   UNL     1       1.157  13.850  19.818  0.00  0.00    +0.000 A 
ATOM     16  C   UNL     1       0.461  12.707  19.485  0.00  0.00    +0.000 A 
ENDBRANCH   1  16
BRANCH   7  17
ATOM     17  S   UNL     1       3.082   6.126  18.368  0.00  0.00    +0.000 S 
ATOM     18  O   UNL     1       2.059   5.215  17.898  0.00  0.00    +0.000 OA
ATOM     19  O   UNL     1       4.258   6.406  17.575  0.00  0.00    +0.000 OA
BRANCH  17  20
ATOM     20  N   UNL     1       3.501   5.580  19.916  0.00  0.00    +0.000 N 
ATOM     21  C   UNL     1       2.819   4.386  20.237  0.00  0.00    +0.000 A 
ATOM     22  N   UNL     1       1.781   4.407  21.037  0.00  0.00    +0.000 NA
ATOM     23  C   UNL     1       1.316   3.103  21.128  0.00  0.00    +0.000 A 
ATOM     24  N   UNL     1       1.986   2.098  20.561  0.00  0.00    +0.000 NA
ATOM     25  S   UNL     1       3.278   2.807  19.761  0.00  0.00    +0.000 S 
ATOM     26  H   UNL     1       3.209   6.316  20.560  0.00  0.00    +0.000 HD
ENDBRANCH  17  20
ENDBRANCH   7  17
TORSDOF 3
ENDMDL
