MODEL 1
REMARK VINA RESULT:      -8.0      0.000      0.000
REMARK  Name = 
REMARK  7 active torsions:
REMARK  status: ('A' for Active; 'I' for Inactive)
REMARK    1  A    between atoms: C_1  and  O_2
REMARK    2  A    between atoms: O_2  and  C_3
REMARK    3  A    between atoms: C_4  and  N_5
REMARK    4  A    between atoms: C_9  and  C_11
REMARK    5  A    between atoms: C_24  and  C_25
REMARK    6  A    between atoms: C_25  and  O_27
REMARK    7  A    between atoms: N_29  and  C_30
REMARK                            x       y       z     vdW  Elec       q    Type
REMARK                         _______ _______ _______ _____ _____    ______ ____
ROOT
ATOM      1  C   UNL     1       1.591   8.118  19.764  0.00  0.00    +0.000 A 
ATOM      2  C   UNL     1       1.379   9.384  19.123  0.00  0.00    +0.000 A 
ATOM      3  C   UNL     1       2.156   9.630  17.969  0.00  0.00    +0.000 A 
ATOM      4  F   UNL     1       2.006  10.768  17.267  0.00  0.00    +0.000 F 
ATOM      5  C   UNL     1       3.071   8.731  17.453  0.00  0.00    +0.000 A 
ATOM      6  C   UNL     1       3.203   7.490  18.062  0.00  0.00    +0.000 A 
ATOM      7  C   UNL     1       4.158   6.547  17.444  0.00  0.00    +0.000 A 
ATOM      8  O   UNL     1       4.861   6.865  16.461  0.00  0.00    +0.000 OA
ATOM      9  C   UNL     1       4.312   5.209  18.024  0.00  0.00    +0.000 A 
ATOM     10  C   UNL     1       3.537   4.926  19.086  0.00  0.00    +0.000 A 
ATOM     11  N   UNL     1       2.648   5.780  19.705  0.00  0.00    +0.000 N 
ATOM     12  C   UNL     1       2.461   7.123  19.202  0.00  0.00    +0.000 A 
ENDROOT
BRANCH   2  13
ATOM     13  N   UNL     1       0.436  10.333  19.520  0.00  0.00    +0.000 N 
ATOM     14  C   UNL     1       0.859  11.519  20.310  0.00  0.00    +0.000 C 
ATOM     15  C   UNL     1       0.097  12.760  19.806  0.00  0.00    +0.000 C 
ATOM     16  N   UNL     1      -1.353  12.520  19.773  0.00  0.00    +0.000 N 
ATOM     17  C   UNL     1      -2.209  13.311  20.538  0.00  0.00    +0.000 C 
ATOM     18  O   UNL     1      -1.792  14.329  21.091  0.00  0.00    +0.000 OA
ATOM     19  C   UNL     1      -1.737  11.360  18.959  0.00  0.00    +0.000 C 
ATOM     20  C   UNL     1      -1.029  10.121  19.495  0.00  0.00    +0.000 C 
BRANCH  17  21
ATOM     21  C   UNL     1      -3.606  12.924  20.633  0.00  0.00    +0.000 A 
ATOM     22  C   UNL     1      -4.408  12.731  21.742  0.00  0.00    +0.000 A 
ATOM     23  C   UNL     1      -5.696  12.384  21.265  0.00  0.00    +0.000 A 
ATOM     24  C   UNL     1      -5.597  12.351  19.893  0.00  0.00    +0.000 A 
ATOM     25  O   UNL     1      -4.327  12.627  19.505  0.00  0.00    +0.000 OA
ENDBRANCH  17  21
ENDBRANCH   2  13
BRANCH  11  26
ATOM     26  C   UNL     1       1.814   5.216  20.788  0.00  0.00    +0.000 C 
ATOM     27  C   UNL     1       0.899   4.011  20.652  0.00  0.00    +0.000 C 
ATOM     28  C   UNL     1       2.192   3.881  21.390  0.00  0.00    +0.000 C 
ENDBRANCH  11  26
BRANCH   1  30
ATOM     29  C   UNL     1       1.298   8.569  22.083  0.00  0.00    +0.000 C 
ATOM     30  O   UNL     1       0.940   7.799  20.933  0.00  0.00    +0.000 OA
ENDBRANCH   1  30
BRANCH   9  31
ATOM     31  C   UNL     1       5.270   4.194  17.519  0.00  0.00    +0.000 C 
ATOM     32  O   UNL     1       5.095   3.592  16.457  0.00  0.00    +0.000 OA
BRANCH  31  33
ATOM     33  O   UNL     1       6.322   3.969  18.334  0.00  0.00    +0.000 OA
ATOM     34  H   UNL     1       6.507   3.033  18.522  0.00  0.00    +0.000 HD
ENDBRANCH  31  33
ENDBRANCH   9  31
TORSDOF 6
ENDMDL
MODEL 2
REMARK VINA RESULT:      -7.4      1.094      2.067
REMARK  Name = 
REMARK  7 active torsions:
REMARK  status: ('A' for Active; 'I' for Inactive)
REMARK    1  A    between atoms: C_1  and  O_2
REMARK    2  A    between atoms: O_2  and  C_3
REMARK    3  A    between atoms: C_4  and  N_5
REMARK    4  A    between atoms: C_9  and  C_11
REMARK    5  A    between atoms: C_24  and  C_25
REMARK    6  A    between atoms: C_25  and  O_27
REMARK    7  A    between atoms: N_29  and  C_30
REMARK                            x       y       z     vdW  Elec       q    Type
REMARK                         _______ _______ _______ _____ _____    ______ ____
ROOT
ATOM      1  C   UNL     1       1.624   8.164  19.719  0.00  0.00    +0.000 A 
ATOM      2  C   UNL     1       1.450   9.437  19.082  0.00  0.00    +0.000 A 
ATOM      3  C   UNL     1       2.251   9.673  17.942  0.00  0.00    +0.000 A 
ATOM      4  F   UNL     1       2.137  10.818  17.244  0.00  0.00    +0.000 F 
ATOM      5  C   UNL     1       3.156   8.757  17.437  0.00  0.00    +0.000 A 
ATOM      6  C   UNL     1       3.252   7.511  18.040  0.00  0.00    +0.000 A 
ATOM      7  C   UNL     1       4.197   6.551  17.433  0.00  0.00    +0.000 A 
ATOM      8  O   UNL     1       4.923   6.859  16.464  0.00  0.00    +0.000 OA
ATOM      9  C   UNL     1       4.313   5.207  18.008  0.00  0.00    +0.000 A 
ATOM     10  C   UNL     1       3.514   4.935  19.056  0.00  0.00    +0.000 A 
ATOM     11  N   UNL     1       2.633   5.804  19.665  0.00  0.00    +0.000 N 
ATOM     12  C   UNL     1       2.483   7.153  19.165  0.00  0.00    +0.000 A 
ENDROOT
BRANCH   2  13
ATOM     13  N   UNL     1       0.520  10.404  19.468  0.00  0.00    +0.000 N 
ATOM     14  C   UNL     1      -0.801  10.478  18.791  0.00  0.00    +0.000 C 
ATOM     15  C   UNL     1      -1.892  10.764  19.842  0.00  0.00    +0.000 C 
ATOM     16  N   UNL     1      -1.548  11.934  20.663  0.00  0.00    +0.000 N 
ATOM     17  C   UNL     1      -2.386  13.048  20.678  0.00  0.00    +0.000 C 
ATOM     18  O   UNL     1      -3.505  12.995  20.166  0.00  0.00    +0.000 OA
ATOM     19  C   UNL     1      -0.251  11.813  21.341  0.00  0.00    +0.000 C 
ATOM     20  C   UNL     1       0.836  11.589  20.296  0.00  0.00    +0.000 C 
BRANCH  17  21
ATOM     21  C   UNL     1      -1.921  14.253  21.341  0.00  0.00    +0.000 A 
ATOM     22  C   UNL     1      -2.178  14.733  22.612  0.00  0.00    +0.000 A 
ATOM     23  C   UNL     1      -1.452  15.940  22.753  0.00  0.00    +0.000 A 
ATOM     24  C   UNL     1      -0.822  16.148  21.548  0.00  0.00    +0.000 A 
ATOM     25  O   UNL     1      -1.139  15.161  20.673  0.00  0.00    +0.000 OA
ENDBRANCH  17  21
ENDBRANCH   2  13
BRANCH  11  26
ATOM     26  C   UNL     1       1.769   5.252  20.729  0.00  0.00    +0.000 C 
ATOM     27  C   UNL     1       0.853   4.049  20.580  0.00  0.00    +0.000 C 
ATOM     28  C   UNL     1       2.127   3.920  21.352  0.00  0.00    +0.000 C 
ENDBRANCH  11  26
BRANCH   1  30
ATOM     29  C   UNL     1       1.324   8.587  22.042  0.00  0.00    +0.000 C 
ATOM     30  O   UNL     1       0.947   7.852  20.875  0.00  0.00    +0.000 OA
ENDBRANCH   1  30
BRANCH   9  31
ATOM     31  C   UNL     1       5.257   4.174  17.514  0.00  0.00    +0.000 C 
ATOM     32  O   UNL     1       5.071   3.560  16.461  0.00  0.00    +0.000 OA
BRANCH  31  33
ATOM     33  O   UNL     1       6.310   3.950  18.327  0.00  0.00    +0.000 OA
ATOM     34  H   UNL     1       6.135   3.355  19.076  0.00  0.00    +0.000 HD
ENDBRANCH  31  33
ENDBRANCH   9  31
TORSDOF 6
ENDMDL
MODEL 3
REMARK VINA RESULT:      -7.2      2.093      9.460
REMARK  Name = 
REMARK  7 active torsions:
REMARK  status: ('A' for Active; 'I' for Inactive)
REMARK    1  A    between atoms: C_1  and  O_2
REMARK    2  A    between atoms: O_2  and  C_3
REMARK    3  A    between atoms: C_4  and  N_5
REMARK    4  A    between atoms: C_9  and  C_11
REMARK    5  A    between atoms: C_24  and  C_25
REMARK    6  A    between atoms: C_25  and  O_27
REMARK    7  A    between atoms: N_29  and  C_30
REMARK                            x       y       z     vdW  Elec       q    Type
REMARK                         _______ _______ _______ _____ _____    ______ ____
ROOT
ATOM      1  C   UNL     1       0.537   9.326  19.502  0.00  0.00    +0.000 A 
ATOM      2  C   UNL     1       1.309   8.468  20.355  0.00  0.00    +0.000 A 
ATOM      3  C   UNL     1       1.235   8.743  21.738  0.00  0.00    +0.000 A 
ATOM      4  F   UNL     1       1.885   7.973  22.630  0.00  0.00    +0.000 F 
ATOM      5  C   UNL     1       0.474   9.764  22.279  0.00  0.00    +0.000 A 
ATOM      6  C   UNL     1      -0.309  10.534  21.431  0.00  0.00    +0.000 A 
ATOM      7  C   UNL     1      -1.141  11.579  22.062  0.00  0.00    +0.000 A 
ATOM      8  O   UNL     1      -1.099  11.807  23.289  0.00  0.00    +0.000 OA
ATOM      9  C   UNL     1      -2.016  12.399  21.217  0.00  0.00    +0.000 A 
ATOM     10  C   UNL     1      -2.012  12.115  19.902  0.00  0.00    +0.000 A 
ATOM     11  N   UNL     1      -1.240  11.163  19.269  0.00  0.00    +0.000 N 
ATOM     12  C   UNL     1      -0.338  10.333  20.036  0.00  0.00    +0.000 A 
ENDROOT
BRANCH   2  13
ATOM     13  N   UNL     1       2.054   7.371  19.921  0.00  0.00    +0.000 N 
ATOM     14  C   UNL     1       1.834   6.033  20.531  0.00  0.00    +0.000 C 
ATOM     15  C   UNL     1       1.886   4.959  19.426  0.00  0.00    +0.000 C 
ATOM     16  N   UNL     1       3.110   5.081  18.621  0.00  0.00    +0.000 N 
ATOM     17  C   UNL     1       4.016   4.024  18.562  0.00  0.00    +0.000 C 
ATOM     18  O   UNL     1       3.718   2.919  19.018  0.00  0.00    +0.000 OA
ATOM     19  C   UNL     1       3.280   6.406  18.009  0.00  0.00    +0.000 C 
ATOM     20  C   UNL     1       3.287   7.462  19.108  0.00  0.00    +0.000 C 
BRANCH  17  21
ATOM     21  C   UNL     1       5.300   4.248  17.921  0.00  0.00    +0.000 A 
ATOM     22  C   UNL     1       5.654   4.208  16.585  0.00  0.00    +0.000 A 
ATOM     23  C   UNL     1       7.031   4.528  16.513  0.00  0.00    +0.000 A 
ATOM     24  C   UNL     1       7.448   4.710  17.811  0.00  0.00    +0.000 A 
ATOM     25  O   UNL     1       6.422   4.494  18.671  0.00  0.00    +0.000 OA
ENDBRANCH  17  21
ENDBRANCH   2  13
BRANCH  11  26
ATOM     26  C   UNL     1      -1.488  10.944  17.828  0.00  0.00    +0.000 C 
ATOM     27  C   UNL     1      -2.469   9.938  17.250  0.00  0.00    +0.000 C 
ATOM     28  C   UNL     1      -2.802  11.394  17.230  0.00  0.00    +0.000 C 
ENDBRANCH  11  26
BRANCH   1  30
ATOM     29  C   UNL     1       1.708   9.798  17.484  0.00  0.00    +0.000 C 
ATOM     30  O   UNL     1       0.587   9.194  18.134  0.00  0.00    +0.000 OA
ENDBRANCH   1  30
BRANCH   9  31
ATOM     31  C   UNL     1      -2.861  13.506  21.730  0.00  0.00    +0.000 C 
ATOM     32  O   UNL     1      -2.759  14.662  21.313  0.00  0.00    +0.000 OA
BRANCH  31  33
ATOM     33  O   UNL     1      -3.721  13.142  22.704  0.00  0.00    +0.000 OA
ATOM     34  H   UNL     1      -3.317  12.989  23.575  0.00  0.00    +0.000 HD
ENDBRANCH  31  33
ENDBRANCH   9  31
TORSDOF 6
ENDMDL
MODEL 4
REMARK VINA RESULT:      -6.8      7.245     10.673
REMARK  Name = 
REMARK  7 active torsions:
REMARK  status: ('A' for Active; 'I' for Inactive)
REMARK    1  A    between atoms: C_1  and  O_2
REMARK    2  A    between atoms: O_2  and  C_3
REMARK    3  A    between atoms: C_4  and  N_5
REMARK    4  A    between atoms: C_9  and  C_11
REMARK    5  A    between atoms: C_24  and  C_25
REMARK    6  A    between atoms: C_25  and  O_27
REMARK    7  A    between atoms: N_29  and  C_30
REMARK                            x       y       z     vdW  Elec       q    Type
REMARK                         _______ _______ _______ _____ _____    ______ ____
ROOT
ATOM      1  C   UNL     1      -2.169  15.123  21.819  0.00  0.00    +0.000 A 
ATOM      2  C   UNL     1      -1.595  14.597  20.614  0.00  0.00    +0.000 A 
ATOM      3  C   UNL     1      -2.255  13.483  20.051  0.00  0.00    +0.000 A 
ATOM      4  F   UNL     1      -1.826  12.938  18.898  0.00  0.00    +0.000 F 
ATOM      5  C   UNL     1      -3.390  12.907  20.593  0.00  0.00    +0.000 A 
ATOM      6  C   UNL     1      -3.954  13.481  21.724  0.00  0.00    +0.000 A 
ATOM      7  C   UNL     1      -5.192  12.858  22.236  0.00  0.00    +0.000 A 
ATOM      8  O   UNL     1      -5.678  11.829  21.721  0.00  0.00    +0.000 OA
ATOM      9  C   UNL     1      -5.851  13.446  23.408  0.00  0.00    +0.000 A 
ATOM     10  C   UNL     1      -5.277  14.547  23.925  0.00  0.00    +0.000 A 
ATOM     11  N   UNL     1      -4.115  15.150  23.492  0.00  0.00    +0.000 N 
ATOM     12  C   UNL     1      -3.399  14.612  22.356  0.00  0.00    +0.000 A 
ENDROOT
BRANCH   2  13
ATOM     13  N   UNL     1      -0.496  15.142  19.948  0.00  0.00    +0.000 N 
ATOM     14  C   UNL     1      -0.701  15.985  18.740  0.00  0.00    +0.000 C 
ATOM     15  C   UNL     1       0.280  17.174  18.782  0.00  0.00    +0.000 C 
ATOM     16  N   UNL     1       1.662  16.719  18.996  0.00  0.00    +0.000 N 
ATOM     17  C   UNL     1       2.643  16.993  18.045  0.00  0.00    +0.000 C 
ATOM     18  O   UNL     1       2.416  17.774  17.120  0.00  0.00    +0.000 OA
ATOM     19  C   UNL     1       1.832  15.915  20.214  0.00  0.00    +0.000 C 
ATOM     20  C   UNL     1       0.905  14.707  20.145  0.00  0.00    +0.000 C 
BRANCH  17  21
ATOM     21  C   UNL     1       3.944  16.365  18.194  0.00  0.00    +0.000 A 
ATOM     22  C   UNL     1       4.380  15.108  17.820  0.00  0.00    +0.000 A 
ATOM     23  C   UNL     1       5.747  15.021  18.180  0.00  0.00    +0.000 A 
ATOM     24  C   UNL     1       6.058  16.216  18.785  0.00  0.00    +0.000 A 
ATOM     25  O   UNL     1       4.963  17.015  18.843  0.00  0.00    +0.000 OA
ENDBRANCH  17  21
ENDBRANCH   2  13
BRANCH  11  26
ATOM     26  C   UNL     1      -3.734  16.423  24.139  0.00  0.00    +0.000 C 
ATOM     27  C   UNL     1      -4.271  17.793  23.764  0.00  0.00    +0.000 C 
ATOM     28  C   UNL     1      -4.739  17.132  25.020  0.00  0.00    +0.000 C 
ENDBRANCH  11  26
BRANCH   1  30
ATOM     29  C   UNL     1      -0.444  15.825  23.302  0.00  0.00    +0.000 C 
ATOM     30  O   UNL     1      -1.571  16.164  22.491  0.00  0.00    +0.000 OA
ENDBRANCH   1  30
BRANCH   9  31
ATOM     31  C   UNL     1      -7.071  12.884  24.038  0.00  0.00    +0.000 C 
ATOM     32  O   UNL     1      -7.916  13.594  24.590  0.00  0.00    +0.000 OA
BRANCH  31  33
ATOM     33  O   UNL     1      -7.157  11.539  23.980  0.00  0.00    +0.000 OA
ATOM     34  H   UNL     1      -6.911  11.073  24.797  0.00  0.00    +0.000 HD
ENDBRANCH  31  33
ENDBRANCH   9  31
TORSDOF 6
ENDMDL
MODEL 5
REMARK VINA RESULT:      -6.7      2.144      8.980
REMARK  Name = 
REMARK  7 active torsions:
REMARK  status: ('A' for Active; 'I' for Inactive)
REMARK    1  A    between atoms: C_1  and  O_2
REMARK    2  A    between atoms: O_2  and  C_3
REMARK    3  A    between atoms: C_4  and  N_5
REMARK    4  A    between atoms: C_9  and  C_11
REMARK    5  A    between atoms: C_24  and  C_25
REMARK    6  A    between atoms: C_25  and  O_27
REMARK    7  A    between atoms: N_29  and  C_30
REMARK                            x       y       z     vdW  Elec       q    Type
REMARK                         _______ _______ _______ _____ _____    ______ ____
ROOT
ATOM      1  C   UNL     1      -0.276  11.420  19.302  0.00  0.00    +0.000 A 
ATOM      2  C   UNL     1       0.976  10.922  18.810  0.00  0.00    +0.000 A 
ATOM      3  C   UNL     1       1.912  11.898  18.401  0.00  0.00    +0.000 A 
ATOM      4  F   UNL     1       3.133  11.541  17.964  0.00  0.00    +0.000 F 
ATOM      5  C   UNL     1       1.677  13.259  18.461  0.00  0.00    +0.000 A 
ATOM      6  C   UNL     1       0.480  13.707  19.002  0.00  0.00    +0.000 A 
ATOM      7  C   UNL     1       0.297  15.171  19.087  0.00  0.00    +0.000 A 
ATOM      8  O   UNL     1       1.145  15.971  18.640  0.00  0.00    +0.000 OA
ATOM      9  C   UNL     1      -0.934  15.700  19.684  0.00  0.00    +0.000 A 
ATOM     10  C   UNL     1      -1.815  14.791  20.139  0.00  0.00    +0.000 A 
ATOM     11  N   UNL     1      -1.694  13.419  20.063  0.00  0.00    +0.000 N 
ATOM     12  C   UNL     1      -0.517  12.827  19.467  0.00  0.00    +0.000 A 
ENDROOT
BRANCH   2  13
ATOM     13  N   UNL     1       1.341   9.575  18.771  0.00  0.00    +0.000 N 
ATOM     14  C   UNL     1       1.777   8.958  17.491  0.00  0.00    +0.000 C 
ATOM     15  C   UNL     1       2.963   8.012  17.764  0.00  0.00    +0.000 C 
ATOM     16  N   UNL     1       2.648   7.058  18.838  0.00  0.00    +0.000 N 
ATOM     17  C   UNL     1       2.666   5.688  18.583  0.00  0.00    +0.000 C 
ATOM     18  O   UNL     1       3.126   5.255  17.526  0.00  0.00    +0.000 OA
ATOM     19  C   UNL     1       2.250   7.703  20.096  0.00  0.00    +0.000 C 
ATOM     20  C   UNL     1       1.041   8.593  19.838  0.00  0.00    +0.000 C 
BRANCH  17  21
ATOM     21  C   UNL     1       2.163   4.788  19.606  0.00  0.00    +0.000 A 
ATOM     22  C   UNL     1       1.032   3.993  19.624  0.00  0.00    +0.000 A 
ATOM     23  C   UNL     1       1.035   3.298  20.857  0.00  0.00    +0.000 A 
ATOM     24  C   UNL     1       2.147   3.735  21.538  0.00  0.00    +0.000 A 
ATOM     25  O   UNL     1       2.807   4.671  20.811  0.00  0.00    +0.000 OA
ENDBRANCH  17  21
ENDBRANCH   2  13
BRANCH  11  26
ATOM     26  C   UNL     1      -2.734  12.612  20.737  0.00  0.00    +0.000 C 
ATOM     27  C   UNL     1      -2.789  12.321  22.227  0.00  0.00    +0.000 C 
ATOM     28  C   UNL     1      -3.741  13.305  21.628  0.00  0.00    +0.000 C 
ENDBRANCH  11  26
BRANCH   1  30
ATOM     29  C   UNL     1      -2.106  10.069  18.599  0.00  0.00    +0.000 C 
ATOM     30  O   UNL     1      -1.287  10.560  19.663  0.00  0.00    +0.000 OA
ENDBRANCH   1  30
BRANCH   9  31
ATOM     31  C   UNL     1      -1.249  17.147  19.784  0.00  0.00    +0.000 C 
ATOM     32  O   UNL     1      -0.792  17.861  20.679  0.00  0.00    +0.000 OA
BRANCH  31  33
ATOM     33  O   UNL     1      -2.095  17.598  18.834  0.00  0.00    +0.000 OA
ATOM     34  H   UNL     1      -2.209  17.009  18.069  0.00  0.00    +0.000 HD
ENDBRANCH  31  33
ENDBRANCH   9  31
TORSDOF 6
ENDMDL
MODEL 6
REMARK VINA RESULT:      -6.5      2.786      4.380
REMARK  Name = 
REMARK  7 active torsions:
REMARK  status: ('A' for Active; 'I' for Inactive)
REMARK    1  A    between atoms: C_1  and  O_2
REMARK    2  A    between atoms: O_2  and  C_3
REMARK    3  A    between atoms: C_4  and  N_5
REMARK    4  A    between atoms: C_9  and  C_11
REMARK    5  A    between atoms: C_24  and  C_25
REMARK    6  A    between atoms: C_25  and  O_27
REMARK    7  A    between atoms: N_29  and  C_30
REMARK                            x       y       z     vdW  Elec       q    Type
REMARK                         _______ _______ _______ _____ _____    ______ ____
ROOT
ATOM      1  C   UNL     1       3.077   6.944  19.053  0.00  0.00    +0.000 A 
ATOM      2  C   UNL     1       1.925   7.472  19.726  0.00  0.00    +0.000 A 
ATOM      3  C   UNL     1       1.228   6.570  20.560  0.00  0.00    +0.000 A 
ATOM      4  F   UNL     1       0.159   6.974  21.270  0.00  0.00    +0.000 F 
ATOM      5  C   UNL     1       1.603   5.252  20.748  0.00  0.00    +0.000 A 
ATOM      6  C   UNL     1       2.758   4.792  20.132  0.00  0.00    +0.000 A 
ATOM      7  C   UNL     1       3.141   3.391  20.403  0.00  0.00    +0.000 A 
ATOM      8  O   UNL     1       2.433   2.634  21.099  0.00  0.00    +0.000 OA
ATOM      9  C   UNL     1       4.374   2.863  19.807  0.00  0.00    +0.000 A 
ATOM     10  C   UNL     1       5.090   3.722  19.059  0.00  0.00    +0.000 A 
ATOM     11  N   UNL     1       4.761   5.028  18.765  0.00  0.00    +0.000 N 
ATOM     12  C   UNL     1       3.549   5.609  19.300  0.00  0.00    +0.000 A 
ENDROOT
BRANCH   2  13
ATOM     13  N   UNL     1       1.501   8.800  19.660  0.00  0.00    +0.000 N 
ATOM     14  C   UNL     1       1.164   9.410  18.346  0.00  0.00    +0.000 C 
ATOM     15  C   UNL     1      -0.088  10.295  18.506  0.00  0.00    +0.000 C 
ATOM     16  N   UNL     1       0.072  11.251  19.613  0.00  0.00    +0.000 N 
ATOM     17  C   UNL     1       0.013  12.621  19.366  0.00  0.00    +0.000 C 
ATOM     18  O   UNL     1      -0.361  13.044  18.272  0.00  0.00    +0.000 OA
ATOM     19  C   UNL     1       0.374  10.611  20.900  0.00  0.00    +0.000 C 
ATOM     20  C   UNL     1       1.645   9.783  20.757  0.00  0.00    +0.000 C 
BRANCH  17  21
ATOM     21  C   UNL     1       0.368  13.532  20.440  0.00  0.00    +0.000 A 
ATOM     22  C   UNL     1       1.587  14.089  20.778  0.00  0.00    +0.000 A 
ATOM     23  C   UNL     1       1.364  14.926  21.898  0.00  0.00    +0.000 A 
ATOM     24  C   UNL     1       0.027  14.806  22.202  0.00  0.00    +0.000 A 
ATOM     25  O   UNL     1      -0.571  13.928  21.359  0.00  0.00    +0.000 OA
ENDBRANCH  17  21
ENDBRANCH   2  13
BRANCH  11  26
ATOM     26  C   UNL     1       5.759   5.823  18.018  0.00  0.00    +0.000 C 
ATOM     27  C   UNL     1       7.165   6.139  18.498  0.00  0.00    +0.000 C 
ATOM     28  C   UNL     1       6.960   5.124  17.421  0.00  0.00    +0.000 C 
ENDBRANCH  11  26
BRANCH   1  30
ATOM     29  C   UNL     1       3.473   7.534  16.781  0.00  0.00    +0.000 C 
ATOM     30  O   UNL     1       3.791   7.712  18.164  0.00  0.00    +0.000 OA
ENDBRANCH   1  30
BRANCH   9  31
ATOM     31  C   UNL     1       4.837   1.463  19.970  0.00  0.00    +0.000 C 
ATOM     32  O   UNL     1       5.469   1.088  20.961  0.00  0.00    +0.000 OA
BRANCH  31  33
ATOM     33  O   UNL     1       4.534   0.653  18.934  0.00  0.00    +0.000 OA
ATOM     34  H   UNL     1       5.300   0.279  18.465  0.00  0.00    +0.000 HD
ENDBRANCH  31  33
ENDBRANCH   9  31
TORSDOF 6
ENDMDL
MODEL 7
REMARK VINA RESULT:      -6.4      2.230      9.730
REMARK  Name = 
REMARK  7 active torsions:
REMARK  status: ('A' for Active; 'I' for Inactive)
REMARK    1  A    between atoms: C_1  and  O_2
REMARK    2  A    between atoms: O_2  and  C_3
REMARK    3  A    between atoms: C_4  and  N_5
REMARK    4  A    between atoms: C_9  and  C_11
REMARK    5  A    between atoms: C_24  and  C_25
REMARK    6  A    between atoms: C_25  and  O_27
REMARK    7  A    between atoms: N_29  and  C_30
REMARK                            x       y       z     vdW  Elec       q    Type
REMARK                         _______ _______ _______ _____ _____    ______ ____
ROOT
ATOM      1  C   UNL     1      -2.459  11.362  19.232  0.00  0.00    +0.000 A 
ATOM      2  C   UNL     1      -1.160  11.222  19.824  0.00  0.00    +0.000 A 
ATOM      3  C   UNL     1      -0.809  12.199  20.782  0.00  0.00    +0.000 A 
ATOM      4  F   UNL     1       0.368  12.138  21.430  0.00  0.00    +0.000 F 
ATOM      5  C   UNL     1      -1.639  13.240  21.157  0.00  0.00    +0.000 A 
ATOM      6  C   UNL     1      -2.913  13.308  20.610  0.00  0.00    +0.000 A 
ATOM      7  C   UNL     1      -3.778  14.410  21.079  0.00  0.00    +0.000 A 
ATOM      8  O   UNL     1      -3.370  15.277  21.879  0.00  0.00    +0.000 OA
ATOM      9  C   UNL     1      -5.148  14.509  20.561  0.00  0.00    +0.000 A 
ATOM     10  C   UNL     1      -5.528  13.552  19.695  0.00  0.00    +0.000 A 
ATOM     11  N   UNL     1      -4.750  12.519  19.217  0.00  0.00    +0.000 N 
ATOM     12  C   UNL     1      -3.383  12.372  19.667  0.00  0.00    +0.000 A 
ENDROOT
BRANCH   2  13
ATOM     13  N   UNL     1      -0.274  10.174  19.569  0.00  0.00    +0.000 N 
ATOM     14  C   UNL     1       0.356  10.042  18.228  0.00  0.00    +0.000 C 
ATOM     15  C   UNL     1       1.830   9.628  18.402  0.00  0.00    +0.000 C 
ATOM     16  N   UNL     1       1.955   8.445  19.267  0.00  0.00    +0.000 N 
ATOM     17  C   UNL     1       2.531   7.276  18.773  0.00  0.00    +0.000 C 
ATOM     18  O   UNL     1       3.110   7.275  17.687  0.00  0.00    +0.000 OA
ATOM     19  C   UNL     1       1.349   8.623  20.593  0.00  0.00    +0.000 C 
ATOM     20  C   UNL     1      -0.124   8.974  20.422  0.00  0.00    +0.000 C 
BRANCH  17  21
ATOM     21  C   UNL     1       2.461   6.075  19.586  0.00  0.00    +0.000 A 
ATOM     22  C   UNL     1       1.437   5.584  20.374  0.00  0.00    +0.000 A 
ATOM     23  C   UNL     1       1.891   4.363  20.929  0.00  0.00    +0.000 A 
ATOM     24  C   UNL     1       3.180   4.195  20.477  0.00  0.00    +0.000 A 
ATOM     25  O   UNL     1       3.550   5.248  19.706  0.00  0.00    +0.000 OA
ENDBRANCH  17  21
ENDBRANCH   2  13
BRANCH  11  26
ATOM     26  C   UNL     1      -5.415  11.514  18.361  0.00  0.00    +0.000 C 
ATOM     27  C   UNL     1      -6.419  10.480  18.840  0.00  0.00    +0.000 C 
ATOM     28  C   UNL     1      -6.890  11.664  18.060  0.00  0.00    +0.000 C 
ENDBRANCH  11  26
BRANCH   1  30
ATOM     29  C   UNL     1      -2.571  10.900  16.899  0.00  0.00    +0.000 C 
ATOM     30  O   UNL     1      -2.879  10.508  18.238  0.00  0.00    +0.000 OA
ENDBRANCH   1  30
BRANCH   9  31
ATOM     31  C   UNL     1      -6.092  15.594  20.924  0.00  0.00    +0.000 C 
ATOM     32  O   UNL     1      -7.229  15.367  21.343  0.00  0.00    +0.000 OA
BRANCH  31  33
ATOM     33  O   UNL     1      -5.609  16.839  20.727  0.00  0.00    +0.000 OA
ATOM     34  H   UNL     1      -5.040  17.179  21.439  0.00  0.00    +0.000 HD
ENDBRANCH  31  33
ENDBRANCH   9  31
TORSDOF 6
ENDMDL
MODEL 8
REMARK VINA RESULT:      -6.3      2.402      4.287
REMARK  Name = 
REMARK  7 active torsions:
REMARK  status: ('A' for Active; 'I' for Inactive)
REMARK    1  A    between atoms: C_1  and  O_2
REMARK    2  A    between atoms: O_2  and  C_3
REMARK    3  A    between atoms: C_4  and  N_5
REMARK    4  A    between atoms: C_9  and  C_11
REMARK    5  A    between atoms: C_24  and  C_25
REMARK    6  A    between atoms: C_25  and  O_27
REMARK    7  A    between atoms: N_29  and  C_30
REMARK                            x       y       z     vdW  Elec       q    Type
REMARK                         _______ _______ _______ _____ _____    ______ ____
ROOT
ATOM      1  C   UNL     1       2.032   8.145  19.132  0.00  0.00    +0.000 A 
ATOM      2  C   UNL     1       1.182   8.737  20.124  0.00  0.00    +0.000 A 
ATOM      3  C   UNL     1       0.805   7.897  21.195  0.00  0.00    +0.000 A 
ATOM      4  F   UNL     1       0.045   8.364  22.202  0.00  0.00    +0.000 F 
ATOM      5  C   UNL     1       1.213   6.582  21.320  0.00  0.00    +0.000 A 
ATOM      6  C   UNL     1       2.087   6.061  20.375  0.00  0.00    +0.000 A 
ATOM      7  C   UNL     1       2.531   4.667  20.579  0.00  0.00    +0.000 A 
ATOM      8  O   UNL     1       2.098   3.965  21.517  0.00  0.00    +0.000 OA
ATOM      9  C   UNL     1       3.483   4.077  19.631  0.00  0.00    +0.000 A 
ATOM     10  C   UNL     1       3.907   4.878  18.636  0.00  0.00    +0.000 A 
ATOM     11  N   UNL     1       3.506   6.176  18.398  0.00  0.00    +0.000 N 
ATOM     12  C   UNL     1       2.552   6.814  19.279  0.00  0.00    +0.000 A 
ENDROOT
BRANCH   2  13
ATOM     13  N   UNL     1       0.769  10.070  20.130  0.00  0.00    +0.000 N 
ATOM     14  C   UNL     1      -0.656  10.409  19.877  0.00  0.00    +0.000 C 
ATOM     15  C   UNL     1      -1.082  11.545  20.828  0.00  0.00    +0.000 C 
ATOM     16  N   UNL     1      -0.151  12.680  20.754  0.00  0.00    +0.000 N 
ATOM     17  C   UNL     1      -0.609  13.936  20.361  0.00  0.00    +0.000 C 
ATOM     18  O   UNL     1      -1.817  14.156  20.258  0.00  0.00    +0.000 OA
ATOM     19  C   UNL     1       1.243  12.314  21.040  0.00  0.00    +0.000 C 
ATOM     20  C   UNL     1       1.683  11.232  20.061  0.00  0.00    +0.000 C 
BRANCH  17  21
ATOM     21  C   UNL     1       0.367  14.982  20.113  0.00  0.00    +0.000 A 
ATOM     22  C   UNL     1       0.787  16.025  20.916  0.00  0.00    +0.000 A 
ATOM     23  C   UNL     1       1.776  16.733  20.191  0.00  0.00    +0.000 A 
ATOM     24  C   UNL     1       1.878  16.103  18.972  0.00  0.00    +0.000 A 
ATOM     25  O   UNL     1       0.996  15.076  18.897  0.00  0.00    +0.000 OA
ENDBRANCH  17  21
ENDBRANCH   2  13
BRANCH  11  26
ATOM     26  C   UNL     1       4.194   6.905  17.312  0.00  0.00    +0.000 C 
ATOM     27  C   UNL     1       5.698   7.078  17.188  0.00  0.00    +0.000 C 
ATOM     28  C   UNL     1       4.985   6.124  16.286  0.00  0.00    +0.000 C 
ENDBRANCH  11  26
BRANCH   1  30
ATOM     29  C   UNL     1       1.346   9.258  17.142  0.00  0.00    +0.000 C 
ATOM     30  O   UNL     1       2.406   8.848  18.010  0.00  0.00    +0.000 OA
ENDBRANCH   1  30
BRANCH   9  31
ATOM     31  C   UNL     1       3.966   2.677  19.707  0.00  0.00    +0.000 C 
ATOM     32  O   UNL     1       4.893   2.337  20.446  0.00  0.00    +0.000 OA
BRANCH  31  33
ATOM     33  O   UNL     1       3.325   1.823  18.882  0.00  0.00    +0.000 OA
ATOM     34  H   UNL     1       3.848   1.509  18.124  0.00  0.00    +0.000 HD
ENDBRANCH  31  33
ENDBRANCH   9  31
TORSDOF 6
ENDMDL
MODEL 9
REMARK VINA RESULT:      -6.3      2.108      3.419
REMARK  Name = 
REMARK  7 active torsions:
REMARK  status: ('A' for Active; 'I' for Inactive)
REMARK    1  A    between atoms: C_1  and  O_2
REMARK    2  A    between atoms: O_2  and  C_3
REMARK    3  A    between atoms: C_4  and  N_5
REMARK    4  A    between atoms: C_9  and  C_11
REMARK    5  A    between atoms: C_24  and  C_25
REMARK    6  A    between atoms: C_25  and  O_27
REMARK    7  A    between atoms: N_29  and  C_30
REMARK                            x       y       z     vdW  Elec       q    Type
REMARK                         _______ _______ _______ _____ _____    ______ ____
ROOT
ATOM      1  C   UNL     1       2.142   7.980  19.183  0.00  0.00    +0.000 A 
ATOM      2  C   UNL     1       1.277   8.418  20.240  0.00  0.00    +0.000 A 
ATOM      3  C   UNL     1       0.884   7.427  21.167  0.00  0.00    +0.000 A 
ATOM      4  F   UNL     1       0.108   7.739  22.221  0.00  0.00    +0.000 F 
ATOM      5  C   UNL     1       1.290   6.107  21.098  0.00  0.00    +0.000 A 
ATOM      6  C   UNL     1       2.177   5.732  20.099  0.00  0.00    +0.000 A 
ATOM      7  C   UNL     1       2.618   4.322  20.098  0.00  0.00    +0.000 A 
ATOM      8  O   UNL     1       2.170   3.488  20.913  0.00  0.00    +0.000 OA
ATOM      9  C   UNL     1       3.583   3.879  19.086  0.00  0.00    +0.000 A 
ATOM     10  C   UNL     1       4.023   4.819  18.230  0.00  0.00    +0.000 A 
ATOM     11  N   UNL     1       3.625   6.139  18.183  0.00  0.00    +0.000 N 
ATOM     12  C   UNL     1       2.659   6.640  19.135  0.00  0.00    +0.000 A 
ENDROOT
BRANCH   2  13
ATOM     13  N   UNL     1       0.864   9.736  20.441  0.00  0.00    +0.000 N 
ATOM     14  C   UNL     1       1.834  10.755  20.921  0.00  0.00    +0.000 C 
ATOM     15  C   UNL     1       1.588  12.079  20.171  0.00  0.00    +0.000 C 
ATOM     16  N   UNL     1       0.175  12.481  20.247  0.00  0.00    +0.000 N 
ATOM     17  C   UNL     1      -0.175  13.693  20.839  0.00  0.00    +0.000 C 
ATOM     18  O   UNL     1       0.690  14.521  21.128  0.00  0.00    +0.000 OA
ATOM     19  C   UNL     1      -0.752  11.463  19.737  0.00  0.00    +0.000 C 
ATOM     20  C   UNL     1      -0.549  10.170  20.518  0.00  0.00    +0.000 C 
BRANCH  17  21
ATOM     21  C   UNL     1      -1.582  13.967  21.072  0.00  0.00    +0.000 A 
ATOM     22  C   UNL     1      -2.414  14.920  20.514  0.00  0.00    +0.000 A 
ATOM     23  C   UNL     1      -3.698  14.730  21.080  0.00  0.00    +0.000 A 
ATOM     24  C   UNL     1      -3.569  13.695  21.978  0.00  0.00    +0.000 A 
ATOM     25  O   UNL     1      -2.284  13.262  22.016  0.00  0.00    +0.000 OA
ENDBRANCH  17  21
ENDBRANCH   2  13
BRANCH  11  26
ATOM     26  C   UNL     1       4.331   7.022  17.230  0.00  0.00    +0.000 C 
ATOM     27  C   UNL     1       5.839   7.170  17.122  0.00  0.00    +0.000 C 
ATOM     28  C   UNL     1       5.093   6.404  16.078  0.00  0.00    +0.000 C 
ENDBRANCH  11  26
BRANCH   1  30
ATOM     29  C   UNL     1       1.481   9.474  17.452  0.00  0.00    +0.000 C 
ATOM     30  O   UNL     1       2.533   8.843  18.185  0.00  0.00    +0.000 OA
ENDBRANCH   1  30
BRANCH   9  31
ATOM     31  C   UNL     1       4.065   2.482  18.958  0.00  0.00    +0.000 C 
ATOM     32  O   UNL     1       3.646   1.717  18.085  0.00  0.00    +0.000 OA
BRANCH  31  33
ATOM     33  O   UNL     1       4.969   2.118  19.891  0.00  0.00    +0.000 OA
ATOM     34  H   UNL     1       4.976   1.171  20.113  0.00  0.00    +0.000 HD
ENDBRANCH  31  33
ENDBRANCH   9  31
TORSDOF 6
ENDMDL
