MODEL 1
REMARK VINA RESULT:      -6.4      0.000      0.000
REMARK  Name = 
REMARK  16 active torsions:
REMARK  status: ('A' for Active; 'I' for Inactive)
REMARK    1  A    between atoms: C_1  and  C_2
REMARK    2  A    between atoms: C_2  and  O_3
REMARK    3  A    between atoms: O_3  and  C_4
REMARK    4  A    between atoms: N_11  and  C_12
REMARK    5  A    between atoms: C_12  and  C_13
REMARK    6  A    between atoms: C_13  and  O_14
REMARK    7  A    between atoms: O_14  and  C_15
REMARK    8  A    between atoms: C_15  and  P_16
REMARK    9  A    between atoms: P_16  and  O_18
REMARK   10  A    between atoms: P_16  and  O_22
REMARK   11  A    between atoms: O_18  and  C_19
REMARK   12  A    between atoms: C_19  and  C_20
REMARK   13  A    between atoms: C_19  and  C_21
REMARK   14  A    between atoms: O_22  and  C_23
REMARK   15  A    between atoms: C_23  and  C_24
REMARK   16  A    between atoms: C_23  and  C_25
REMARK                            x       y       z     vdW  Elec       q    Type
REMARK                         _______ _______ _______ _____ _____    ______ ____
ROOT
ATOM      1  C   UNL     1       3.611   3.716  18.698  0.00  0.00    +0.000 C 
ENDROOT
BRANCH   1   9
ATOM      2  C   UNL     1       0.957   9.008  20.432  0.00  0.00    +0.000 C 
ATOM      3  O   UNL     1       0.388   8.570  21.429  0.00  0.00    +0.000 OA
ATOM      4  N   UNL     1       1.910   8.384  19.692  0.00  0.00    +0.000 N 
ATOM      5  C   UNL     1       2.199   7.059  19.790  0.00  0.00    +0.000 A 
ATOM      6  N   UNL     1       1.798   6.225  20.674  0.00  0.00    +0.000 NA
ATOM      7  C   UNL     1       2.282   4.962  20.407  0.00  0.00    +0.000 A 
ATOM      8  O   UNL     1       1.984   3.975  21.066  0.00  0.00    +0.000 OA
ATOM      9  N   UNL     1       3.092   4.926  19.285  0.00  0.00    +0.000 N 
ATOM     10  S   UNL     1       3.215   6.429  18.519  0.00  0.00    +0.000 S 
ATOM     11  H   UNL     1       2.232   8.884  18.888  0.00  0.00    +0.000 HD
BRANCH   2  12
ATOM     12  O   UNL     1       0.703  10.230  19.892  0.00  0.00    +0.000 OA
BRANCH  12  14
ATOM     13  C   UNL     1      -1.004  10.052  18.224  0.00  0.00    +0.000 C 
ATOM     14  C   UNL     1      -0.692  10.493  19.641  0.00  0.00    +0.000 C 
ENDBRANCH  12  14
ENDBRANCH   2  12
ENDBRANCH   1   9
BRANCH   1  15
ATOM     15  C   UNL     1       3.365   3.629  17.173  0.00  0.00    +0.000 C 
BRANCH  15  16
ATOM     16  O   UNL     1       4.534   3.284  16.370  0.00  0.00    +0.000 OA
BRANCH  16  17
ATOM     17  C   UNL     1       5.613   4.147  16.737  0.00  0.00    +0.000 C 
BRANCH  17  18
ATOM     18  P   UNL     1       6.255   5.463  15.714  0.00  0.00    +0.000 P 
ATOM     19  O   UNL     1       5.203   6.528  15.556  0.00  0.00    +0.000 OA
BRANCH  18  20
ATOM     20  O   UNL     1       7.499   5.934  16.642  0.00  0.00    +0.000 OA
BRANCH  20  21
ATOM     21  C   UNL     1       7.269   6.759  17.772  0.00  0.00    +0.000 C 
ATOM     22  C   UNL     1       7.910   6.085  18.975  0.00  0.00    +0.000 C 
ATOM     23  C   UNL     1       7.710   8.206  17.556  0.00  0.00    +0.000 C 
ENDBRANCH  20  21
ENDBRANCH  18  20
BRANCH  18  24
ATOM     24  O   UNL     1       7.039   5.173  14.315  0.00  0.00    +0.000 OA
BRANCH  24  25
ATOM     25  C   UNL     1       6.479   4.043  13.603  0.00  0.00    +0.000 C 
ATOM     26  C   UNL     1       4.983   4.061  13.284  0.00  0.00    +0.000 C 
ATOM     27  C   UNL     1       7.301   3.886  12.339  0.00  0.00    +0.000 C 
ENDBRANCH  24  25
ENDBRANCH  18  24
ENDBRANCH  17  18
ENDBRANCH  16  17
ENDBRANCH  15  16
ENDBRANCH   1  15
TORSDOF 11
ENDMDL
MODEL 2
REMARK VINA RESULT:      -6.3      0.828      1.034
REMARK  Name = 
REMARK  16 active torsions:
REMARK  status: ('A' for Active; 'I' for Inactive)
REMARK    1  A    between atoms: C_1  and  C_2
REMARK    2  A    between atoms: C_2  and  O_3
REMARK    3  A    between atoms: O_3  and  C_4
REMARK    4  A    between atoms: N_11  and  C_12
REMARK    5  A    between atoms: C_12  and  C_13
REMARK    6  A    between atoms: C_13  and  O_14
REMARK    7  A    between atoms: O_14  and  C_15
REMARK    8  A    between atoms: C_15  and  P_16
REMARK    9  A    between atoms: P_16  and  O_18
REMARK   10  A    between atoms: P_16  and  O_22
REMARK   11  A    between atoms: O_18  and  C_19
REMARK   12  A    between atoms: C_19  and  C_20
REMARK   13  A    between atoms: C_19  and  C_21
REMARK   14  A    between atoms: O_22  and  C_23
REMARK   15  A    between atoms: C_23  and  C_24
REMARK   16  A    between atoms: C_23  and  C_25
REMARK                            x       y       z     vdW  Elec       q    Type
REMARK                         _______ _______ _______ _____ _____    ______ ____
ROOT
ATOM      1  C   UNL     1       2.644   3.776  18.559  0.00  0.00    +0.000 C 
ENDROOT
BRANCH   1   9
ATOM      2  C   UNL     1       0.964   9.210  20.950  0.00  0.00    +0.000 C 
ATOM      3  O   UNL     1       0.593   8.784  22.042  0.00  0.00    +0.000 OA
ATOM      4  N   UNL     1       1.664   8.533  20.002  0.00  0.00    +0.000 N 
ATOM      5  C   UNL     1       1.839   7.185  20.007  0.00  0.00    +0.000 A 
ATOM      6  N   UNL     1       1.567   6.355  20.942  0.00  0.00    +0.000 NA
ATOM      7  C   UNL     1       1.855   5.065  20.547  0.00  0.00    +0.000 A 
ATOM      8  O   UNL     1       1.619   4.083  21.238  0.00  0.00    +0.000 OA
ATOM      9  N   UNL     1       2.387   5.003  19.271  0.00  0.00    +0.000 N 
ATOM     10  S   UNL     1       2.479   6.519  18.527  0.00  0.00    +0.000 S 
ATOM     11  H   UNL     1       1.845   9.034  19.156  0.00  0.00    +0.000 HD
BRANCH   2  12
ATOM     12  O   UNL     1       0.715  10.469  20.506  0.00  0.00    +0.000 OA
BRANCH  12  14
ATOM     13  C   UNL     1      -0.497  11.230  18.587  0.00  0.00    +0.000 C 
ATOM     14  C   UNL     1       0.806  10.625  19.076  0.00  0.00    +0.000 C 
ENDBRANCH  12  14
ENDBRANCH   2  12
ENDBRANCH   1   9
BRANCH   1  15
ATOM     15  C   UNL     1       4.120   3.629  18.119  0.00  0.00    +0.000 C 
BRANCH  15  16
ATOM     16  O   UNL     1       4.352   3.694  16.679  0.00  0.00    +0.000 OA
BRANCH  16  17
ATOM     17  C   UNL     1       5.760   3.733  16.443  0.00  0.00    +0.000 C 
BRANCH  17  18
ATOM     18  P   UNL     1       6.621   5.080  15.645  0.00  0.00    +0.000 P 
ATOM     19  O   UNL     1       5.638   6.172  15.317  0.00  0.00    +0.000 OA
BRANCH  18  20
ATOM     20  O   UNL     1       7.641   5.484  16.838  0.00  0.00    +0.000 OA
BRANCH  20  21
ATOM     21  C   UNL     1       7.229   6.389  17.849  0.00  0.00    +0.000 C 
ATOM     22  C   UNL     1       7.602   5.783  19.193  0.00  0.00    +0.000 C 
ATOM     23  C   UNL     1       7.756   7.807  17.633  0.00  0.00    +0.000 C 
ENDBRANCH  20  21
ENDBRANCH  18  20
BRANCH  18  24
ATOM     24  O   UNL     1       7.684   4.836  14.433  0.00  0.00    +0.000 OA
BRANCH  24  25
ATOM     25  C   UNL     1       7.087   5.064  13.134  0.00  0.00    +0.000 C 
ATOM     26  C   UNL     1       7.928   5.767  12.067  0.00  0.00    +0.000 C 
ATOM     27  C   UNL     1       6.608   3.712  12.643  0.00  0.00    +0.000 C 
ENDBRANCH  24  25
ENDBRANCH  18  24
ENDBRANCH  17  18
ENDBRANCH  16  17
ENDBRANCH  15  16
ENDBRANCH   1  15
TORSDOF 11
ENDMDL
MODEL 3
REMARK VINA RESULT:      -6.2      1.277      1.453
REMARK  Name = 
REMARK  16 active torsions:
REMARK  status: ('A' for Active; 'I' for Inactive)
REMARK    1  A    between atoms: C_1  and  C_2
REMARK    2  A    between atoms: C_2  and  O_3
REMARK    3  A    between atoms: O_3  and  C_4
REMARK    4  A    between atoms: N_11  and  C_12
REMARK    5  A    between atoms: C_12  and  C_13
REMARK    6  A    between atoms: C_13  and  O_14
REMARK    7  A    between atoms: O_14  and  C_15
REMARK    8  A    between atoms: C_15  and  P_16
REMARK    9  A    between atoms: P_16  and  O_18
REMARK   10  A    between atoms: P_16  and  O_22
REMARK   11  A    between atoms: O_18  and  C_19
REMARK   12  A    between atoms: C_19  and  C_20
REMARK   13  A    between atoms: C_19  and  C_21
REMARK   14  A    between atoms: O_22  and  C_23
REMARK   15  A    between atoms: C_23  and  C_24
REMARK   16  A    between atoms: C_23  and  C_25
REMARK                            x       y       z     vdW  Elec       q    Type
REMARK                         _______ _______ _______ _____ _____    ______ ____
ROOT
ATOM      1  C   UNL     1       3.196   4.418  18.918  0.00  0.00    +0.000 C 
ENDROOT
BRANCH   1   9
ATOM      2  C   UNL     1       0.787  10.038  19.737  0.00  0.00    +0.000 C 
ATOM      3  O   UNL     1       0.281   9.825  20.837  0.00  0.00    +0.000 OA
ATOM      4  N   UNL     1       1.671   9.248  19.075  0.00  0.00    +0.000 N 
ATOM      5  C   UNL     1       1.938   7.958  19.415  0.00  0.00    +0.000 A 
ATOM      6  N   UNL     1       1.583   7.329  20.471  0.00  0.00    +0.000 NA
ATOM      7  C   UNL     1       2.019   6.021  20.428  0.00  0.00    +0.000 A 
ATOM      8  O   UNL     1       1.748   5.195  21.288  0.00  0.00    +0.000 OA
ATOM      9  N   UNL     1       2.747   5.738  19.286  0.00  0.00    +0.000 N 
ATOM     10  S   UNL     1       2.846   7.055  18.230  0.00  0.00    +0.000 S 
ATOM     11  H   UNL     1       1.946   9.568  18.169  0.00  0.00    +0.000 HD
BRANCH   2  12
ATOM     12  O   UNL     1       0.522  11.138  18.983  0.00  0.00    +0.000 OA
BRANCH  12  14
ATOM     13  C   UNL     1       1.104  13.399  18.458  0.00  0.00    +0.000 C 
ATOM     14  C   UNL     1       1.644  12.026  18.810  0.00  0.00    +0.000 C 
ENDBRANCH  12  14
ENDBRANCH   2  12
ENDBRANCH   1   9
BRANCH   1  15
ATOM     15  C   UNL     1       3.349   4.235  17.389  0.00  0.00    +0.000 C 
BRANCH  15  16
ATOM     16  O   UNL     1       4.473   3.405  16.968  0.00  0.00    +0.000 OA
BRANCH  16  17
ATOM     17  C   UNL     1       5.685   4.126  17.192  0.00  0.00    +0.000 C 
BRANCH  17  18
ATOM     18  P   UNL     1       6.528   5.106  15.959  0.00  0.00    +0.000 P 
ATOM     19  O   UNL     1       5.586   6.153  15.427  0.00  0.00    +0.000 OA
BRANCH  18  20
ATOM     20  O   UNL     1       7.711   5.726  16.878  0.00  0.00    +0.000 OA
BRANCH  20  21
ATOM     21  C   UNL     1       7.391   6.556  17.983  0.00  0.00    +0.000 C 
ATOM     22  C   UNL     1       7.975   5.912  19.230  0.00  0.00    +0.000 C 
ATOM     23  C   UNL     1       7.804   8.012  17.777  0.00  0.00    +0.000 C 
ENDBRANCH  20  21
ENDBRANCH  18  20
BRANCH  18  24
ATOM     24  O   UNL     1       7.417   4.431  14.770  0.00  0.00    +0.000 OA
BRANCH  24  25
ATOM     25  C   UNL     1       6.997   4.877  13.459  0.00  0.00    +0.000 C 
ATOM     26  C   UNL     1       8.045   5.508  12.541  0.00  0.00    +0.000 C 
ATOM     27  C   UNL     1       6.341   3.683  12.793  0.00  0.00    +0.000 C 
ENDBRANCH  24  25
ENDBRANCH  18  24
ENDBRANCH  17  18
ENDBRANCH  16  17
ENDBRANCH  15  16
ENDBRANCH   1  15
TORSDOF 11
ENDMDL
MODEL 4
REMARK VINA RESULT:      -6.1      4.985      8.089
REMARK  Name = 
REMARK  16 active torsions:
REMARK  status: ('A' for Active; 'I' for Inactive)
REMARK    1  A    between atoms: C_1  and  C_2
REMARK    2  A    between atoms: C_2  and  O_3
REMARK    3  A    between atoms: O_3  and  C_4
REMARK    4  A    between atoms: N_11  and  C_12
REMARK    5  A    between atoms: C_12  and  C_13
REMARK    6  A    between atoms: C_13  and  O_14
REMARK    7  A    between atoms: O_14  and  C_15
REMARK    8  A    between atoms: C_15  and  P_16
REMARK    9  A    between atoms: P_16  and  O_18
REMARK   10  A    between atoms: P_16  and  O_22
REMARK   11  A    between atoms: O_18  and  C_19
REMARK   12  A    between atoms: C_19  and  C_20
REMARK   13  A    between atoms: C_19  and  C_21
REMARK   14  A    between atoms: O_22  and  C_23
REMARK   15  A    between atoms: C_23  and  C_24
REMARK   16  A    between atoms: C_23  and  C_25
REMARK                            x       y       z     vdW  Elec       q    Type
REMARK                         _______ _______ _______ _____ _____    ______ ____
ROOT
ATOM      1  C   UNL     1       7.697   7.380  17.220  0.00  0.00    +0.000 C 
ENDROOT
BRANCH   1   9
ATOM      2  C   UNL     1       4.132   2.773  19.253  0.00  0.00    +0.000 C 
ATOM      3  O   UNL     1       4.855   2.425  20.184  0.00  0.00    +0.000 OA
ATOM      4  N   UNL     1       4.242   3.905  18.509  0.00  0.00    +0.000 N 
ATOM      5  C   UNL     1       5.337   4.711  18.513  0.00  0.00    +0.000 A 
ATOM      6  N   UNL     1       6.340   4.680  19.307  0.00  0.00    +0.000 NA
ATOM      7  C   UNL     1       7.266   5.642  18.960  0.00  0.00    +0.000 A 
ATOM      8  O   UNL     1       8.344   5.769  19.524  0.00  0.00    +0.000 OA
ATOM      9  N   UNL     1       6.864   6.405  17.879  0.00  0.00    +0.000 N 
ATOM     10  S   UNL     1       5.377   5.907  17.243  0.00  0.00    +0.000 S 
ATOM     11  H   UNL     1       3.582   4.001  17.764  0.00  0.00    +0.000 HD
BRANCH   2  12
ATOM     12  O   UNL     1       3.076   2.046  18.802  0.00  0.00    +0.000 OA
BRANCH  12  14
ATOM     13  C   UNL     1       0.744   2.581  18.743  0.00  0.00    +0.000 C 
ATOM     14  C   UNL     1       1.896   2.137  19.625  0.00  0.00    +0.000 C 
ENDBRANCH  12  14
ENDBRANCH   2  12
ENDBRANCH   1   9
BRANCH   1  15
ATOM     15  C   UNL     1       7.582   8.792  17.842  0.00  0.00    +0.000 C 
BRANCH  15  16
ATOM     16  O   UNL     1       8.751   9.242  18.590  0.00  0.00    +0.000 OA
BRANCH  16  17
ATOM     17  C   UNL     1       9.095  10.559  18.156  0.00  0.00    +0.000 C 
BRANCH  17  18
ATOM     18  P   UNL     1       9.597  11.888  19.239  0.00  0.00    +0.000 P 
ATOM     19  O   UNL     1      10.947  11.570  19.822  0.00  0.00    +0.000 OA
BRANCH  18  20
ATOM     20  O   UNL     1       9.641  13.101  18.164  0.00  0.00    +0.000 OA
BRANCH  20  21
ATOM     21  C   UNL     1      10.858  13.786  17.915  0.00  0.00    +0.000 C 
ATOM     22  C   UNL     1      11.454  13.221  16.635  0.00  0.00    +0.000 C 
ATOM     23  C   UNL     1      10.699  15.306  17.915  0.00  0.00    +0.000 C 
ENDBRANCH  20  21
ENDBRANCH  18  20
BRANCH  18  24
ATOM     24  O   UNL     1       8.592  12.531  20.350  0.00  0.00    +0.000 OA
BRANCH  24  25
ATOM     25  C   UNL     1       9.213  13.618  21.078  0.00  0.00    +0.000 C 
ATOM     26  C   UNL     1       8.618  15.019  20.929  0.00  0.00    +0.000 C 
ATOM     27  C   UNL     1       9.242  13.194  22.533  0.00  0.00    +0.000 C 
ENDBRANCH  24  25
ENDBRANCH  18  24
ENDBRANCH  17  18
ENDBRANCH  16  17
ENDBRANCH  15  16
ENDBRANCH   1  15
TORSDOF 11
ENDMDL
MODEL 5
REMARK VINA RESULT:      -6.0      1.806      3.929
REMARK  Name = 
REMARK  16 active torsions:
REMARK  status: ('A' for Active; 'I' for Inactive)
REMARK    1  A    between atoms: C_1  and  C_2
REMARK    2  A    between atoms: C_2  and  O_3
REMARK    3  A    between atoms: O_3  and  C_4
REMARK    4  A    between atoms: N_11  and  C_12
REMARK    5  A    between atoms: C_12  and  C_13
REMARK    6  A    between atoms: C_13  and  O_14
REMARK    7  A    between atoms: O_14  and  C_15
REMARK    8  A    between atoms: C_15  and  P_16
REMARK    9  A    between atoms: P_16  and  O_18
REMARK   10  A    between atoms: P_16  and  O_22
REMARK   11  A    between atoms: O_18  and  C_19
REMARK   12  A    between atoms: C_19  and  C_20
REMARK   13  A    between atoms: C_19  and  C_21
REMARK   14  A    between atoms: O_22  and  C_23
REMARK   15  A    between atoms: C_23  and  C_24
REMARK   16  A    between atoms: C_23  and  C_25
REMARK                            x       y       z     vdW  Elec       q    Type
REMARK                         _______ _______ _______ _____ _____    ______ ____
ROOT
ATOM      1  C   UNL     1       3.309   5.737  18.009  0.00  0.00    +0.000 C 
ENDROOT
BRANCH   1   9
ATOM      2  C   UNL     1       0.668  10.395  21.073  0.00  0.00    +0.000 C 
ATOM      3  O   UNL     1       0.751  11.230  20.175  0.00  0.00    +0.000 OA
ATOM      4  N   UNL     1       0.886   9.058  20.971  0.00  0.00    +0.000 N 
ATOM      5  C   UNL     1       1.488   8.467  19.905  0.00  0.00    +0.000 A 
ATOM      6  N   UNL     1       1.777   8.987  18.772  0.00  0.00    +0.000 NA
ATOM      7  C   UNL     1       2.418   8.070  17.965  0.00  0.00    +0.000 A 
ATOM      8  O   UNL     1       2.859   8.343  16.857  0.00  0.00    +0.000 OA
ATOM      9  N   UNL     1       2.554   6.831  18.567  0.00  0.00    +0.000 N 
ATOM     10  S   UNL     1       1.951   6.802  20.147  0.00  0.00    +0.000 S 
ATOM     11  H   UNL     1       0.808   8.539  21.822  0.00  0.00    +0.000 HD
BRANCH   2  12
ATOM     12  O   UNL     1       0.341  10.696  22.358  0.00  0.00    +0.000 OA
BRANCH  12  14
ATOM     13  C   UNL     1      -1.814  11.327  23.186  0.00  0.00    +0.000 C 
ATOM     14  C   UNL     1      -0.554  11.817  22.498  0.00  0.00    +0.000 C 
ENDBRANCH  12  14
ENDBRANCH   2  12
ENDBRANCH   1   9
BRANCH   1  15
ATOM     15  C   UNL     1       4.029   4.888  19.084  0.00  0.00    +0.000 C 
BRANCH  15  16
ATOM     16  O   UNL     1       5.125   4.058  18.594  0.00  0.00    +0.000 OA
BRANCH  16  17
ATOM     17  C   UNL     1       5.313   4.323  17.203  0.00  0.00    +0.000 C 
BRANCH  17  18
ATOM     18  P   UNL     1       6.640   5.309  16.526  0.00  0.00    +0.000 P 
ATOM     19  O   UNL     1       7.947   4.591  16.729  0.00  0.00    +0.000 OA
BRANCH  18  20
ATOM     20  O   UNL     1       6.174   5.348  14.974  0.00  0.00    +0.000 OA
BRANCH  20  21
ATOM     21  C   UNL     1       6.758   4.462  14.034  0.00  0.00    +0.000 C 
ATOM     22  C   UNL     1       5.630   3.732  13.322  0.00  0.00    +0.000 C 
ATOM     23  C   UNL     1       7.749   5.152  13.096  0.00  0.00    +0.000 C 
ENDBRANCH  20  21
ENDBRANCH  18  20
BRANCH  18  24
ATOM     24  O   UNL     1       6.774   6.907  16.822  0.00  0.00    +0.000 OA
BRANCH  24  25
ATOM     25  C   UNL     1       7.909   7.208  17.669  0.00  0.00    +0.000 C 
ATOM     26  C   UNL     1       8.193   8.675  18.000  0.00  0.00    +0.000 C 
ATOM     27  C   UNL     1       7.724   6.393  18.933  0.00  0.00    +0.000 C 
ENDBRANCH  24  25
ENDBRANCH  18  24
ENDBRANCH  17  18
ENDBRANCH  16  17
ENDBRANCH  15  16
ENDBRANCH   1  15
TORSDOF 11
ENDMDL
MODEL 6
REMARK VINA RESULT:      -6.0      2.773      8.108
REMARK  Name = 
REMARK  16 active torsions:
REMARK  status: ('A' for Active; 'I' for Inactive)
REMARK    1  A    between atoms: C_1  and  C_2
REMARK    2  A    between atoms: C_2  and  O_3
REMARK    3  A    between atoms: O_3  and  C_4
REMARK    4  A    between atoms: N_11  and  C_12
REMARK    5  A    between atoms: C_12  and  C_13
REMARK    6  A    between atoms: C_13  and  O_14
REMARK    7  A    between atoms: O_14  and  C_15
REMARK    8  A    between atoms: C_15  and  P_16
REMARK    9  A    between atoms: P_16  and  O_18
REMARK   10  A    between atoms: P_16  and  O_22
REMARK   11  A    between atoms: O_18  and  C_19
REMARK   12  A    between atoms: C_19  and  C_20
REMARK   13  A    between atoms: C_19  and  C_21
REMARK   14  A    between atoms: O_22  and  C_23
REMARK   15  A    between atoms: C_23  and  C_24
REMARK   16  A    between atoms: C_23  and  C_25
REMARK                            x       y       z     vdW  Elec       q    Type
REMARK                         _______ _______ _______ _____ _____    ______ ____
ROOT
ATOM      1  C   UNL     1       3.253   5.139  19.819  0.00  0.00    +0.000 C 
ENDROOT
BRANCH   1   9
ATOM      2  C   UNL     1       6.749   4.298  14.805  0.00  0.00    +0.000 C 
ATOM      3  O   UNL     1       7.817   4.640  15.309  0.00  0.00    +0.000 OA
ATOM      4  N   UNL     1       5.581   4.046  15.453  0.00  0.00    +0.000 N 
ATOM      5  C   UNL     1       5.343   4.391  16.746  0.00  0.00    +0.000 A 
ATOM      6  N   UNL     1       6.177   4.816  17.618  0.00  0.00    +0.000 NA
ATOM      7  C   UNL     1       5.537   5.092  18.809  0.00  0.00    +0.000 A 
ATOM      8  O   UNL     1       6.104   5.577  19.779  0.00  0.00    +0.000 OA
ATOM      9  N   UNL     1       4.183   4.812  18.766  0.00  0.00    +0.000 N 
ATOM     10  S   UNL     1       3.676   4.267  17.247  0.00  0.00    +0.000 S 
ATOM     11  H   UNL     1       4.804   3.815  14.870  0.00  0.00    +0.000 HD
BRANCH   2  12
ATOM     12  O   UNL     1       6.566   4.117  13.471  0.00  0.00    +0.000 OA
BRANCH  12  14
ATOM     13  C   UNL     1       5.244   3.080  11.766  0.00  0.00    +0.000 C 
ATOM     14  C   UNL     1       5.208   3.819  13.091  0.00  0.00    +0.000 C 
ENDBRANCH  12  14
ENDBRANCH   2  12
ENDBRANCH   1   9
BRANCH   1  15
ATOM     15  C   UNL     1       2.184   6.169  19.382  0.00  0.00    +0.000 C 
BRANCH  15  16
ATOM     16  O   UNL     1       2.611   7.564  19.412  0.00  0.00    +0.000 OA
BRANCH  16  17
ATOM     17  C   UNL     1       1.925   8.276  18.381  0.00  0.00    +0.000 C 
BRANCH  17  18
ATOM     18  P   UNL     1       1.148   9.871  18.590  0.00  0.00    +0.000 P 
ATOM     19  O   UNL     1      -0.209   9.852  17.940  0.00  0.00    +0.000 OA
BRANCH  18  20
ATOM     20  O   UNL     1       1.074   9.917  20.209  0.00  0.00    +0.000 OA
BRANCH  20  21
ATOM     21  C   UNL     1      -0.167   9.730  20.869  0.00  0.00    +0.000 C 
ATOM     22  C   UNL     1      -0.134   8.365  21.539  0.00  0.00    +0.000 C 
ATOM     23  C   UNL     1      -0.525  10.881  21.809  0.00  0.00    +0.000 C 
ENDBRANCH  20  21
ENDBRANCH  18  20
BRANCH  18  24
ATOM     24  O   UNL     1       1.939  11.268  18.303  0.00  0.00    +0.000 OA
BRANCH  24  25
ATOM     25  C   UNL     1       1.499  12.331  19.182  0.00  0.00    +0.000 C 
ATOM     26  C   UNL     1       2.530  13.365  19.636  0.00  0.00    +0.000 C 
ATOM     27  C   UNL     1       0.330  13.000  18.487  0.00  0.00    +0.000 C 
ENDBRANCH  24  25
ENDBRANCH  18  24
ENDBRANCH  17  18
ENDBRANCH  16  17
ENDBRANCH  15  16
ENDBRANCH   1  15
TORSDOF 11
ENDMDL
MODEL 7
REMARK VINA RESULT:      -6.0      3.358      7.777
REMARK  Name = 
REMARK  16 active torsions:
REMARK  status: ('A' for Active; 'I' for Inactive)
REMARK    1  A    between atoms: C_1  and  C_2
REMARK    2  A    between atoms: C_2  and  O_3
REMARK    3  A    between atoms: O_3  and  C_4
REMARK    4  A    between atoms: N_11  and  C_12
REMARK    5  A    between atoms: C_12  and  C_13
REMARK    6  A    between atoms: C_13  and  O_14
REMARK    7  A    between atoms: O_14  and  C_15
REMARK    8  A    between atoms: C_15  and  P_16
REMARK    9  A    between atoms: P_16  and  O_18
REMARK   10  A    between atoms: P_16  and  O_22
REMARK   11  A    between atoms: O_18  and  C_19
REMARK   12  A    between atoms: C_19  and  C_20
REMARK   13  A    between atoms: C_19  and  C_21
REMARK   14  A    between atoms: O_22  and  C_23
REMARK   15  A    between atoms: C_23  and  C_24
REMARK   16  A    between atoms: C_23  and  C_25
REMARK                            x       y       z     vdW  Elec       q    Type
REMARK                         _______ _______ _______ _____ _____    ______ ____
ROOT
ATOM      1  C   UNL     1       6.201   5.226  18.549  0.00  0.00    +0.000 C 
ENDROOT
BRANCH   1   9
ATOM      2  C   UNL     1       6.638   4.027  12.512  0.00  0.00    +0.000 C 
ATOM      3  O   UNL     1       7.394   4.954  12.230  0.00  0.00    +0.000 OA
ATOM      4  N   UNL     1       6.309   3.587  13.755  0.00  0.00    +0.000 N 
ATOM      5  C   UNL     1       6.566   4.279  14.897  0.00  0.00    +0.000 A 
ATOM      6  N   UNL     1       7.294   5.321  15.043  0.00  0.00    +0.000 NA
ATOM      7  C   UNL     1       7.274   5.748  16.355  0.00  0.00    +0.000 A 
ATOM      8  O   UNL     1       7.836   6.766  16.738  0.00  0.00    +0.000 OA
ATOM      9  N   UNL     1       6.510   4.933  17.171  0.00  0.00    +0.000 N 
ATOM     10  S   UNL     1       5.762   3.675  16.323  0.00  0.00    +0.000 S 
ATOM     11  H   UNL     1       5.645   2.841  13.790  0.00  0.00    +0.000 HD
BRANCH   2  12
ATOM     12  O   UNL     1       5.984   3.276  11.587  0.00  0.00    +0.000 OA
BRANCH  12  14
ATOM     13  C   UNL     1       3.797   3.485  10.639  0.00  0.00    +0.000 C 
ATOM     14  C   UNL     1       4.585   3.070  11.866  0.00  0.00    +0.000 C 
ENDBRANCH  12  14
ENDBRANCH   2  12
ENDBRANCH   1   9
BRANCH   1  15
ATOM     15  C   UNL     1       4.730   4.920  18.917  0.00  0.00    +0.000 C 
BRANCH  15  16
ATOM     16  O   UNL     1       4.462   3.546  19.330  0.00  0.00    +0.000 OA
BRANCH  16  17
ATOM     17  C   UNL     1       3.882   3.565  20.636  0.00  0.00    +0.000 C 
BRANCH  17  18
ATOM     18  P   UNL     1       2.192   4.019  20.991  0.00  0.00    +0.000 P 
ATOM     19  O   UNL     1       1.737   3.305  22.235  0.00  0.00    +0.000 OA
BRANCH  18  20
ATOM     20  O   UNL     1       2.387   5.613  21.211  0.00  0.00    +0.000 OA
BRANCH  20  21
ATOM     21  C   UNL     1       1.607   6.534  20.465  0.00  0.00    +0.000 C 
ATOM     22  C   UNL     1       0.955   7.492  21.449  0.00  0.00    +0.000 C 
ATOM     23  C   UNL     1       2.395   7.220  19.350  0.00  0.00    +0.000 C 
ENDBRANCH  20  21
ENDBRANCH  18  20
BRANCH  18  24
ATOM     24  O   UNL     1       1.035   4.031  19.842  0.00  0.00    +0.000 OA
BRANCH  24  25
ATOM     25  C   UNL     1       1.387   3.201  18.709  0.00  0.00    +0.000 C 
ATOM     26  C   UNL     1       0.547   1.950  18.442  0.00  0.00    +0.000 C 
ATOM     27  C   UNL     1       1.398   4.114  17.499  0.00  0.00    +0.000 C 
ENDBRANCH  24  25
ENDBRANCH  18  24
ENDBRANCH  17  18
ENDBRANCH  16  17
ENDBRANCH  15  16
ENDBRANCH   1  15
TORSDOF 11
ENDMDL
MODEL 8
REMARK VINA RESULT:      -6.0      2.725      4.805
REMARK  Name = 
REMARK  16 active torsions:
REMARK  status: ('A' for Active; 'I' for Inactive)
REMARK    1  A    between atoms: C_1  and  C_2
REMARK    2  A    between atoms: C_2  and  O_3
REMARK    3  A    between atoms: O_3  and  C_4
REMARK    4  A    between atoms: N_11  and  C_12
REMARK    5  A    between atoms: C_12  and  C_13
REMARK    6  A    between atoms: C_13  and  O_14
REMARK    7  A    between atoms: O_14  and  C_15
REMARK    8  A    between atoms: C_15  and  P_16
REMARK    9  A    between atoms: P_16  and  O_18
REMARK   10  A    between atoms: P_16  and  O_22
REMARK   11  A    between atoms: O_18  and  C_19
REMARK   12  A    between atoms: C_19  and  C_20
REMARK   13  A    between atoms: C_19  and  C_21
REMARK   14  A    between atoms: O_22  and  C_23
REMARK   15  A    between atoms: C_23  and  C_24
REMARK   16  A    between atoms: C_23  and  C_25
REMARK                            x       y       z     vdW  Elec       q    Type
REMARK                         _______ _______ _______ _____ _____    ______ ____
ROOT
ATOM      1  C   UNL     1       2.774   7.165  18.677  0.00  0.00    +0.000 C 
ENDROOT
BRANCH   1   9
ATOM      2  C   UNL     1      -0.238  11.643  21.668  0.00  0.00    +0.000 C 
ATOM      3  O   UNL     1      -0.314  12.427  20.724  0.00  0.00    +0.000 OA
ATOM      4  N   UNL     1       0.138  10.338  21.620  0.00  0.00    +0.000 N 
ATOM      5  C   UNL     1       0.744   9.762  20.547  0.00  0.00    +0.000 A 
ATOM      6  N   UNL     1       0.898  10.245  19.372  0.00  0.00    +0.000 NA
ATOM      7  C   UNL     1       1.599   9.366  18.573  0.00  0.00    +0.000 A 
ATOM      8  O   UNL     1       1.936   9.625  17.426  0.00  0.00    +0.000 OA
ATOM      9  N   UNL     1       1.924   8.191  19.227  0.00  0.00    +0.000 N 
ATOM     10  S   UNL     1       1.425   8.183  20.843  0.00  0.00    +0.000 S 
ATOM     11  H   UNL     1       0.177   9.865  22.500  0.00  0.00    +0.000 HD
BRANCH   2  12
ATOM     12  O   UNL     1      -0.522  11.977  22.954  0.00  0.00    +0.000 OA
BRANCH  12  14
ATOM     13  C   UNL     1      -2.881  12.178  23.307  0.00  0.00    +0.000 C 
ATOM     14  C   UNL     1      -1.586  12.939  23.098  0.00  0.00    +0.000 C 
ENDBRANCH  12  14
ENDBRANCH   2  12
ENDBRANCH   1   9
BRANCH   1  15
ATOM     15  C   UNL     1       3.283   6.165  19.743  0.00  0.00    +0.000 C 
BRANCH  15  16
ATOM     16  O   UNL     1       4.608   5.606  19.492  0.00  0.00    +0.000 OA
BRANCH  16  17
ATOM     17  C   UNL     1       4.489   4.188  19.358  0.00  0.00    +0.000 C 
BRANCH  17  18
ATOM     18  P   UNL     1       3.762   3.358  17.954  0.00  0.00    +0.000 P 
ATOM     19  O   UNL     1       4.086   1.889  18.023  0.00  0.00    +0.000 OA
BRANCH  18  20
ATOM     20  O   UNL     1       2.198   3.675  18.241  0.00  0.00    +0.000 OA
BRANCH  20  21
ATOM     21  C   UNL     1       1.502   2.965  19.253  0.00  0.00    +0.000 C 
ATOM     22  C   UNL     1       0.906   3.986  20.209  0.00  0.00    +0.000 C 
ATOM     23  C   UNL     1       0.492   1.964  18.694  0.00  0.00    +0.000 C 
ENDBRANCH  20  21
ENDBRANCH  18  20
BRANCH  18  24
ATOM     24  O   UNL     1       3.895   3.937  16.436  0.00  0.00    +0.000 OA
BRANCH  24  25
ATOM     25  C   UNL     1       5.235   4.404  16.149  0.00  0.00    +0.000 C 
ATOM     26  C   UNL     1       5.967   3.802  14.948  0.00  0.00    +0.000 C 
ATOM     27  C   UNL     1       5.143   5.912  16.028  0.00  0.00    +0.000 C 
ENDBRANCH  24  25
ENDBRANCH  18  24
ENDBRANCH  17  18
ENDBRANCH  16  17
ENDBRANCH  15  16
ENDBRANCH   1  15
TORSDOF 11
ENDMDL
MODEL 9
REMARK VINA RESULT:      -6.0      1.256      1.390
REMARK  Name = 
REMARK  16 active torsions:
REMARK  status: ('A' for Active; 'I' for Inactive)
REMARK    1  A    between atoms: C_1  and  C_2
REMARK    2  A    between atoms: C_2  and  O_3
REMARK    3  A    between atoms: O_3  and  C_4
REMARK    4  A    between atoms: N_11  and  C_12
REMARK    5  A    between atoms: C_12  and  C_13
REMARK    6  A    between atoms: C_13  and  O_14
REMARK    7  A    between atoms: O_14  and  C_15
REMARK    8  A    between atoms: C_15  and  P_16
REMARK    9  A    between atoms: P_16  and  O_18
REMARK   10  A    between atoms: P_16  and  O_22
REMARK   11  A    between atoms: O_18  and  C_19
REMARK   12  A    between atoms: C_19  and  C_20
REMARK   13  A    between atoms: C_19  and  C_21
REMARK   14  A    between atoms: O_22  and  C_23
REMARK   15  A    between atoms: C_23  and  C_24
REMARK   16  A    between atoms: C_23  and  C_25
REMARK                            x       y       z     vdW  Elec       q    Type
REMARK                         _______ _______ _______ _____ _____    ______ ____
ROOT
ATOM      1  C   UNL     1       3.688   2.749  19.394  0.00  0.00    +0.000 C 
ENDROOT
BRANCH   1   9
ATOM      2  C   UNL     1       0.904   8.045  20.900  0.00  0.00    +0.000 C 
ATOM      3  O   UNL     1      -0.160   7.553  21.271  0.00  0.00    +0.000 OA
ATOM      4  N   UNL     1       2.062   7.385  20.633  0.00  0.00    +0.000 N 
ATOM      5  C   UNL     1       2.149   6.036  20.483  0.00  0.00    +0.000 A 
ATOM      6  N   UNL     1       1.259   5.153  20.737  0.00  0.00    +0.000 NA
ATOM      7  C   UNL     1       1.717   3.893  20.416  0.00  0.00    +0.000 A 
ATOM      8  O   UNL     1       1.028   2.885  20.502  0.00  0.00    +0.000 OA
ATOM      9  N   UNL     1       3.016   3.903  19.937  0.00  0.00    +0.000 N 
ATOM     10  S   UNL     1       3.658   5.463  19.822  0.00  0.00    +0.000 S 
ATOM     11  H   UNL     1       2.818   7.951  20.304  0.00  0.00    +0.000 HD
BRANCH   2  12
ATOM     12  O   UNL     1       1.090   9.374  20.686  0.00  0.00    +0.000 OA
BRANCH  12  14
ATOM     13  C   UNL     1      -0.250  11.053  21.742  0.00  0.00    +0.000 C 
ATOM     14  C   UNL     1      -0.128  10.130  20.544  0.00  0.00    +0.000 C 
ENDBRANCH  12  14
ENDBRANCH   2  12
ENDBRANCH   1   9
BRANCH   1  15
ATOM     15  C   UNL     1       3.658   2.703  17.848  0.00  0.00    +0.000 C 
BRANCH  15  16
ATOM     16  O   UNL     1       4.765   3.383  17.182  0.00  0.00    +0.000 OA
BRANCH  16  17
ATOM     17  C   UNL     1       4.277   4.595  16.603  0.00  0.00    +0.000 C 
BRANCH  17  18
ATOM     18  P   UNL     1       5.306   5.953  16.069  0.00  0.00    +0.000 P 
ATOM     19  O   UNL     1       4.650   7.254  16.450  0.00  0.00    +0.000 OA
BRANCH  18  20
ATOM     20  O   UNL     1       6.635   5.636  16.942  0.00  0.00    +0.000 OA
BRANCH  20  21
ATOM     21  C   UNL     1       6.989   6.475  18.029  0.00  0.00    +0.000 C 
ATOM     22  C   UNL     1       7.661   5.609  19.083  0.00  0.00    +0.000 C 
ATOM     23  C   UNL     1       7.808   7.693  17.603  0.00  0.00    +0.000 C 
ENDBRANCH  20  21
ENDBRANCH  18  20
BRANCH  18  24
ATOM     24  O   UNL     1       5.957   6.017  14.575  0.00  0.00    +0.000 OA
BRANCH  24  25
ATOM     25  C   UNL     1       6.694   4.814  14.253  0.00  0.00    +0.000 C 
ATOM     26  C   UNL     1       5.964   3.699  13.502  0.00  0.00    +0.000 C 
ATOM     27  C   UNL     1       7.928   5.262  13.494  0.00  0.00    +0.000 C 
ENDBRANCH  24  25
ENDBRANCH  18  24
ENDBRANCH  17  18
ENDBRANCH  16  17
ENDBRANCH  15  16
ENDBRANCH   1  15
TORSDOF 11
ENDMDL
