MODEL 1
REMARK VINA RESULT:      -8.2      0.000      0.000
REMARK  Name = 
REMARK  5 active torsions:
REMARK  status: ('A' for Active; 'I' for Inactive)
REMARK    1  A    between atoms: C_1  and  C_2
REMARK    2  A    between atoms: C_2  and  C_3
REMARK    3  A    between atoms: C_3  and  O_4
REMARK    4  A    between atoms: C_20  and  N_21
REMARK    5  A    between atoms: N_23  and  C_24
REMARK                            x       y       z     vdW  Elec       q    Type
REMARK                         _______ _______ _______ _____ _____    ______ ____
ROOT
ATOM      1  C   UNL     1      -1.653  15.555  23.845  0.00  0.00    +0.000 C 
ATOM      2  C   UNL     1      -3.209  15.818  23.981  0.00  0.00    +0.000 C 
ATOM      3  O   UNL     1      -3.841  16.758  23.527  0.00  0.00    +0.000 OA
ATOM      4  O   UNL     1      -3.856  14.720  24.434  0.00  0.00    +0.000 OA
ATOM      5  C   UNL     1      -4.020  13.950  23.260  0.00  0.00    +0.000 C 
ATOM      6  C   UNL     1      -2.670  13.613  22.703  0.00  0.00    +0.000 A 
ATOM      7  C   UNL     1      -1.584  14.452  22.639  0.00  0.00    +0.000 A 
ATOM      8  C   UNL     1      -0.421  13.820  21.817  0.00  0.00    +0.000 A 
ATOM      9  C   UNL     1      -0.319  12.451  21.679  0.00  0.00    +0.000 A 
ATOM     10  N   UNL     1      -1.175  11.748  22.515  0.00  0.00    +0.000 N 
ATOM     11  C   UNL     1      -2.328  12.204  23.039  0.00  0.00    +0.000 A 
ATOM     12  O   UNL     1      -3.045  11.522  23.755  0.00  0.00    +0.000 OA
ATOM     13  C   UNL     1      -0.759  10.407  22.804  0.00  0.00    +0.000 C 
ATOM     14  C   UNL     1       0.201  10.157  21.721  0.00  0.00    +0.000 A 
ATOM     15  C   UNL     1       0.648   8.892  21.391  0.00  0.00    +0.000 A 
ATOM     16  C   UNL     1       1.369   8.697  20.231  0.00  0.00    +0.000 A 
ATOM     17  C   UNL     1       1.897   7.394  19.928  0.00  0.00    +0.000 A 
ATOM     18  C   UNL     1       2.381   7.160  18.644  0.00  0.00    +0.000 A 
ATOM     19  C   UNL     1       2.343   8.184  17.705  0.00  0.00    +0.000 A 
ATOM     20  C   UNL     1       1.893   9.480  18.070  0.00  0.00    +0.000 A 
ATOM     21  C   UNL     1       1.433   9.825  19.355  0.00  0.00    +0.000 A 
ATOM     22  N   UNL     1       1.016  11.134  19.740  0.00  0.00    +0.000 NA
ATOM     23  C   UNL     1       0.468  11.298  20.971  0.00  0.00    +0.000 A 
ENDROOT
BRANCH  17  24
ATOM     24  N   UNL     1       2.074   6.354  20.880  0.00  0.00    +0.000 N 
ATOM     25  C   UNL     1       1.942   5.010  20.704  0.00  0.00    +0.000 C 
ATOM     26  N   UNL     1       2.214   4.130  21.605  0.00  0.00    +0.000 NA
ATOM     27  C   UNL     1       2.042   2.756  21.127  0.00  0.00    +0.000 C 
ATOM     28  H   UNL     1       2.263   6.637  21.836  0.00  0.00    +0.000 HD
ENDBRANCH  17  24
BRANCH   1  30
ATOM     29  C   UNL     1      -0.394  17.970  23.270  0.00  0.00    +0.000 C 
ATOM     30  C   UNL     1      -1.058  16.983  24.257  0.00  0.00    +0.000 C 
ENDBRANCH   1  30
BRANCH   1  31
ATOM     31  O   UNL     1      -1.102  14.715  24.906  0.00  0.00    +0.000 OA
ATOM     32  H   UNL     1      -0.649  13.949  24.517  0.00  0.00    +0.000 HD
ENDBRANCH   1  31
TORSDOF 3
ENDMDL
MODEL 2
REMARK VINA RESULT:      -8.0      3.562      5.364
REMARK  Name = 
REMARK  5 active torsions:
REMARK  status: ('A' for Active; 'I' for Inactive)
REMARK    1  A    between atoms: C_1  and  C_2
REMARK    2  A    between atoms: C_2  and  C_3
REMARK    3  A    between atoms: C_3  and  O_4
REMARK    4  A    between atoms: C_20  and  N_21
REMARK    5  A    between atoms: N_23  and  C_24
REMARK                            x       y       z     vdW  Elec       q    Type
REMARK                         _______ _______ _______ _____ _____    ______ ____
ROOT
ATOM      1  C   UNL     1      -1.991  12.601  19.909  0.00  0.00    +0.000 C 
ATOM      2  C   UNL     1      -1.542  14.004  20.491  0.00  0.00    +0.000 C 
ATOM      3  O   UNL     1      -1.883  14.508  21.548  0.00  0.00    +0.000 OA
ATOM      4  O   UNL     1      -0.485  14.503  19.809  0.00  0.00    +0.000 OA
ATOM      5  C   UNL     1       0.609  13.831  20.399  0.00  0.00    +0.000 C 
ATOM      6  C   UNL     1       0.453  12.357  20.184  0.00  0.00    +0.000 A 
ATOM      7  C   UNL     1      -0.717  11.641  20.272  0.00  0.00    +0.000 A 
ATOM      8  C   UNL     1      -0.458  10.108  20.183  0.00  0.00    +0.000 A 
ATOM      9  C   UNL     1       0.674   9.619  19.561  0.00  0.00    +0.000 A 
ATOM     10  N   UNL     1       1.373  10.587  18.854  0.00  0.00    +0.000 N 
ATOM     11  C   UNL     1       1.353  11.913  19.085  0.00  0.00    +0.000 A 
ATOM     12  O   UNL     1       2.011  12.709  18.433  0.00  0.00    +0.000 OA
ATOM     13  C   UNL     1       2.198  10.075  17.800  0.00  0.00    +0.000 C 
ATOM     14  C   UNL     1       2.320   8.662  18.181  0.00  0.00    +0.000 A 
ATOM     15  C   UNL     1       3.270   7.817  17.640  0.00  0.00    +0.000 A 
ATOM     16  C   UNL     1       3.480   6.572  18.194  0.00  0.00    +0.000 A 
ATOM     17  C   UNL     1       4.416   5.665  17.584  0.00  0.00    +0.000 A 
ATOM     18  C   UNL     1       4.807   4.539  18.302  0.00  0.00    +0.000 A 
ATOM     19  C   UNL     1       4.283   4.324  19.571  0.00  0.00    +0.000 A 
ATOM     20  C   UNL     1       3.298   5.196  20.101  0.00  0.00    +0.000 A 
ATOM     21  C   UNL     1       2.803   6.332  19.431  0.00  0.00    +0.000 A 
ATOM     22  N   UNL     1       1.785   7.192  19.940  0.00  0.00    +0.000 NA
ATOM     23  C   UNL     1       1.499   8.326  19.253  0.00  0.00    +0.000 A 
ENDROOT
BRANCH  17  24
ATOM     24  N   UNL     1       4.884   5.771  16.247  0.00  0.00    +0.000 N 
ATOM     25  C   UNL     1       5.433   4.803  15.461  0.00  0.00    +0.000 C 
ATOM     26  N   UNL     1       5.746   4.966  14.221  0.00  0.00    +0.000 NA
ATOM     27  C   UNL     1       6.260   3.743  13.601  0.00  0.00    +0.000 C 
ATOM     28  H   UNL     1       4.871   6.695  15.830  0.00  0.00    +0.000 HD
ENDBRANCH  17  24
BRANCH   1  30
ATOM     29  C   UNL     1      -4.604  12.002  19.158  0.00  0.00    +0.000 C 
ATOM     30  C   UNL     1      -3.579  12.679  20.096  0.00  0.00    +0.000 C 
ENDBRANCH   1  30
BRANCH   1  31
ATOM     31  O   UNL     1      -1.895  12.507  18.454  0.00  0.00    +0.000 OA
ATOM     32  H   UNL     1      -2.017  13.385  18.059  0.00  0.00    +0.000 HD
ENDBRANCH   1  31
TORSDOF 3
ENDMDL
MODEL 3
REMARK VINA RESULT:      -7.7      3.526      5.546
REMARK  Name = 
REMARK  5 active torsions:
REMARK  status: ('A' for Active; 'I' for Inactive)
REMARK    1  A    between atoms: C_1  and  C_2
REMARK    2  A    between atoms: C_2  and  C_3
REMARK    3  A    between atoms: C_3  and  O_4
REMARK    4  A    between atoms: C_20  and  N_21
REMARK    5  A    between atoms: N_23  and  C_24
REMARK                            x       y       z     vdW  Elec       q    Type
REMARK                         _______ _______ _______ _____ _____    ______ ____
ROOT
ATOM      1  C   UNL     1       1.066  12.130  19.257  0.00  0.00    +0.000 C 
ATOM      2  C   UNL     1      -0.265  12.654  19.936  0.00  0.00    +0.000 C 
ATOM      3  O   UNL     1      -1.182  13.253  19.398  0.00  0.00    +0.000 OA
ATOM      4  O   UNL     1      -0.434  12.117  21.167  0.00  0.00    +0.000 OA
ATOM      5  C   UNL     1      -0.996  10.853  20.879  0.00  0.00    +0.000 C 
ATOM      6  C   UNL     1      -0.028  10.062  20.054  0.00  0.00    +0.000 A 
ATOM      7  C   UNL     1       0.747  10.542  19.026  0.00  0.00    +0.000 A 
ATOM      8  C   UNL     1       1.477   9.391  18.273  0.00  0.00    +0.000 A 
ATOM      9  C   UNL     1       1.729   8.187  18.901  0.00  0.00    +0.000 A 
ATOM     10  N   UNL     1       1.493   8.221  20.268  0.00  0.00    +0.000 N 
ATOM     11  C   UNL     1       0.659   9.059  20.913  0.00  0.00    +0.000 A 
ATOM     12  O   UNL     1       0.485   9.020  22.121  0.00  0.00    +0.000 OA
ATOM     13  C   UNL     1       2.211   7.236  21.022  0.00  0.00    +0.000 C 
ATOM     14  C   UNL     1       2.581   6.275  19.974  0.00  0.00    +0.000 A 
ATOM     15  C   UNL     1       3.025   4.997  20.250  0.00  0.00    +0.000 A 
ATOM     16  C   UNL     1       3.142   4.073  19.232  0.00  0.00    +0.000 A 
ATOM     17  C   UNL     1       3.676   2.766  19.509  0.00  0.00    +0.000 A 
ATOM     18  C   UNL     1       3.534   1.777  18.540  0.00  0.00    +0.000 A 
ATOM     19  C   UNL     1       2.894   2.081  17.345  0.00  0.00    +0.000 A 
ATOM     20  C   UNL     1       2.458   3.404  17.077  0.00  0.00    +0.000 A 
ATOM     21  C   UNL     1       2.601   4.482  17.973  0.00  0.00    +0.000 A 
ATOM     22  N   UNL     1       2.202   5.822  17.695  0.00  0.00    +0.000 NA
ATOM     23  C   UNL     1       2.273   6.735  18.697  0.00  0.00    +0.000 A 
ENDROOT
BRANCH  17  24
ATOM     24  N   UNL     1       4.446   2.438  20.657  0.00  0.00    +0.000 N 
ATOM     25  C   UNL     1       5.046   1.254  20.965  0.00  0.00    +0.000 C 
ATOM     26  N   UNL     1       5.808   1.073  21.989  0.00  0.00    +0.000 NA
ATOM     27  C   UNL     1       6.371  -0.279  22.045  0.00  0.00    +0.000 C 
ATOM     28  H   UNL     1       4.517   3.146  21.378  0.00  0.00    +0.000 HD
ENDBRANCH  17  24
BRANCH   1  30
ATOM     29  C   UNL     1       3.011  13.873  18.294  0.00  0.00    +0.000 C 
ATOM     30  C   UNL     1       1.539  13.431  18.453  0.00  0.00    +0.000 C 
ENDBRANCH   1  30
BRANCH   1  31
ATOM     31  O   UNL     1       2.179  11.968  20.189  0.00  0.00    +0.000 OA
ATOM     32  H   UNL     1       1.934  11.343  20.890  0.00  0.00    +0.000 HD
ENDBRANCH   1  31
TORSDOF 3
ENDMDL
MODEL 4
REMARK VINA RESULT:      -7.5      3.652      5.798
REMARK  Name = 
REMARK  5 active torsions:
REMARK  status: ('A' for Active; 'I' for Inactive)
REMARK    1  A    between atoms: C_1  and  C_2
REMARK    2  A    between atoms: C_2  and  C_3
REMARK    3  A    between atoms: C_3  and  O_4
REMARK    4  A    between atoms: C_20  and  N_21
REMARK    5  A    between atoms: N_23  and  C_24
REMARK                            x       y       z     vdW  Elec       q    Type
REMARK                         _______ _______ _______ _____ _____    ______ ____
ROOT
ATOM      1  C   UNL     1      -1.210  12.435  19.467  0.00  0.00    +0.000 C 
ATOM      2  C   UNL     1      -0.515  13.829  19.756  0.00  0.00    +0.000 C 
ATOM      3  O   UNL     1      -0.689  14.555  20.722  0.00  0.00    +0.000 OA
ATOM      4  O   UNL     1       0.542  14.031  18.936  0.00  0.00    +0.000 OA
ATOM      5  C   UNL     1       1.574  13.306  19.576  0.00  0.00    +0.000 C 
ATOM      6  C   UNL     1       1.187  11.861  19.643  0.00  0.00    +0.000 A 
ATOM      7  C   UNL     1      -0.062  11.364  19.927  0.00  0.00    +0.000 A 
ATOM      8  C   UNL     1      -0.036   9.817  20.105  0.00  0.00    +0.000 A 
ATOM      9  C   UNL     1       0.956   9.057  19.520  0.00  0.00    +0.000 A 
ATOM     10  N   UNL     1       1.727   9.765  18.609  0.00  0.00    +0.000 N 
ATOM     11  C   UNL     1       1.919  11.098  18.594  0.00  0.00    +0.000 A 
ATOM     12  O   UNL     1       2.627  11.656  17.771  0.00  0.00    +0.000 OA
ATOM     13  C   UNL     1       2.377   8.956  17.621  0.00  0.00    +0.000 C 
ATOM     14  C   UNL     1       2.325   7.628  18.246  0.00  0.00    +0.000 A 
ATOM     15  C   UNL     1       3.093   6.564  17.816  0.00  0.00    +0.000 A 
ATOM     16  C   UNL     1       3.167   5.415  18.576  0.00  0.00    +0.000 A 
ATOM     17  C   UNL     1       3.906   4.282  18.089  0.00  0.00    +0.000 A 
ATOM     18  C   UNL     1       4.189   3.248  18.977  0.00  0.00    +0.000 A 
ATOM     19  C   UNL     1       3.748   3.340  20.292  0.00  0.00    +0.000 A 
ATOM     20  C   UNL     1       2.948   4.435  20.709  0.00  0.00    +0.000 A 
ATOM     21  C   UNL     1       2.568   5.502  19.872  0.00  0.00    +0.000 A 
ATOM     22  N   UNL     1       1.732   6.586  20.272  0.00  0.00    +0.000 NA
ATOM     23  C   UNL     1       1.556   7.616  19.406  0.00  0.00    +0.000 A 
ENDROOT
BRANCH  17  24
ATOM     24  N   UNL     1       4.271   4.081  16.731  0.00  0.00    +0.000 N 
ATOM     25  C   UNL     1       5.390   4.507  16.080  0.00  0.00    +0.000 C 
ATOM     26  N   UNL     1       5.685   4.197  14.865  0.00  0.00    +0.000 NA
ATOM     27  C   UNL     1       6.976   4.741  14.438  0.00  0.00    +0.000 C 
ATOM     28  H   UNL     1       3.593   3.613  16.140  0.00  0.00    +0.000 HD
ENDBRANCH  17  24
BRANCH   1  30
ATOM     29  C   UNL     1      -3.938  12.082  19.045  0.00  0.00    +0.000 C 
ATOM     30  C   UNL     1      -2.748  12.794  19.728  0.00  0.00    +0.000 C 
ENDBRANCH   1  30
BRANCH   1  31
ATOM     31  O   UNL     1      -1.250  12.078  18.051  0.00  0.00    +0.000 OA
ATOM     32  H   UNL     1      -1.050  11.134  17.944  0.00  0.00    +0.000 HD
ENDBRANCH   1  31
TORSDOF 3
ENDMDL
MODEL 5
REMARK VINA RESULT:      -7.3      9.760     11.547
REMARK  Name = 
REMARK  5 active torsions:
REMARK  status: ('A' for Active; 'I' for Inactive)
REMARK    1  A    between atoms: C_1  and  C_2
REMARK    2  A    between atoms: C_2  and  C_3
REMARK    3  A    between atoms: C_3  and  O_4
REMARK    4  A    between atoms: C_20  and  N_21
REMARK    5  A    between atoms: N_23  and  C_24
REMARK                            x       y       z     vdW  Elec       q    Type
REMARK                         _______ _______ _______ _____ _____    ______ ____
ROOT
ATOM      1  C   UNL     1       9.651  14.792  18.552  0.00  0.00    +0.000 C 
ATOM      2  C   UNL     1      10.929  14.226  17.808  0.00  0.00    +0.000 C 
ATOM      3  O   UNL     1      11.903  14.856  17.428  0.00  0.00    +0.000 OA
ATOM      4  O   UNL     1      10.977  12.875  17.872  0.00  0.00    +0.000 OA
ATOM      5  C   UNL     1      11.535  12.645  19.150  0.00  0.00    +0.000 C 
ATOM      6  C   UNL     1      10.626  13.221  20.192  0.00  0.00    +0.000 A 
ATOM      7  C   UNL     1       9.955  14.418  20.115  0.00  0.00    +0.000 A 
ATOM      8  C   UNL     1       9.268  14.777  21.466  0.00  0.00    +0.000 A 
ATOM      9  C   UNL     1       8.936  13.790  22.372  0.00  0.00    +0.000 A 
ATOM     10  N   UNL     1       9.052  12.507  21.855  0.00  0.00    +0.000 N 
ATOM     11  C   UNL     1       9.844  12.128  20.833  0.00  0.00    +0.000 A 
ATOM     12  O   UNL     1       9.911  10.974  20.440  0.00  0.00    +0.000 OA
ATOM     13  C   UNL     1       8.249  11.522  22.517  0.00  0.00    +0.000 C 
ATOM     14  C   UNL     1       7.952  12.191  23.790  0.00  0.00    +0.000 A 
ATOM     15  C   UNL     1       7.457  11.523  24.893  0.00  0.00    +0.000 A 
ATOM     16  C   UNL     1       7.410  12.154  26.118  0.00  0.00    +0.000 A 
ATOM     17  C   UNL     1       6.826  11.482  27.248  0.00  0.00    +0.000 A 
ATOM     18  C   UNL     1       7.030  12.022  28.514  0.00  0.00    +0.000 A 
ATOM     19  C   UNL     1       7.780  13.185  28.646  0.00  0.00    +0.000 A 
ATOM     20  C   UNL     1       8.266  13.863  27.499  0.00  0.00    +0.000 A 
ATOM     21  C   UNL     1       8.068  13.423  26.176  0.00  0.00    +0.000 A 
ATOM     22  N   UNL     1       8.519  14.119  25.016  0.00  0.00    +0.000 NA
ATOM     23  C   UNL     1       8.380  13.515  23.809  0.00  0.00    +0.000 A 
ENDROOT
BRANCH  17  24
ATOM     24  N   UNL     1       5.951  10.367  27.157  0.00  0.00    +0.000 N 
ATOM     25  C   UNL     1       4.616  10.311  27.425  0.00  0.00    +0.000 C 
ATOM     26  N   UNL     1       3.879   9.273  27.224  0.00  0.00    +0.000 NA
ATOM     27  C   UNL     1       2.468   9.510  27.541  0.00  0.00    +0.000 C 
ATOM     28  H   UNL     1       6.370   9.474  26.922  0.00  0.00    +0.000 HD
ENDBRANCH  17  24
BRANCH   1  30
ATOM     29  C   UNL     1       9.553  17.518  17.998  0.00  0.00    +0.000 C 
ATOM     30  C   UNL     1       9.279  16.043  17.625  0.00  0.00    +0.000 C 
ENDBRANCH   1  30
BRANCH   1  31
ATOM     31  O   UNL     1       8.457  13.967  18.385  0.00  0.00    +0.000 OA
ATOM     32  H   UNL     1       8.460  13.558  17.504  0.00  0.00    +0.000 HD
ENDBRANCH   1  31
TORSDOF 3
ENDMDL
MODEL 6
REMARK VINA RESULT:      -7.0      2.849      4.527
REMARK  Name = 
REMARK  5 active torsions:
REMARK  status: ('A' for Active; 'I' for Inactive)
REMARK    1  A    between atoms: C_1  and  C_2
REMARK    2  A    between atoms: C_2  and  C_3
REMARK    3  A    between atoms: C_3  and  O_4
REMARK    4  A    between atoms: C_20  and  N_21
REMARK    5  A    between atoms: N_23  and  C_24
REMARK                            x       y       z     vdW  Elec       q    Type
REMARK                         _______ _______ _______ _____ _____    ______ ____
ROOT
ATOM      1  C   UNL     1      -2.001  13.475  20.854  0.00  0.00    +0.000 C 
ATOM      2  C   UNL     1      -1.367  14.774  21.499  0.00  0.00    +0.000 C 
ATOM      3  O   UNL     1      -1.648  15.277  22.575  0.00  0.00    +0.000 OA
ATOM      4  O   UNL     1      -0.239  15.146  20.850  0.00  0.00    +0.000 OA
ATOM      5  C   UNL     1       0.740  14.301  21.420  0.00  0.00    +0.000 C 
ATOM      6  C   UNL     1       0.379  12.874  21.140  0.00  0.00    +0.000 A 
ATOM      7  C   UNL     1      -0.882  12.329  21.186  0.00  0.00    +0.000 A 
ATOM      8  C   UNL     1      -0.842  10.780  21.034  0.00  0.00    +0.000 A 
ATOM      9  C   UNL     1       0.218  10.161  20.401  0.00  0.00    +0.000 A 
ATOM     10  N   UNL     1       1.059  11.048  19.743  0.00  0.00    +0.000 N 
ATOM     11  C   UNL     1       1.224  12.353  20.031  0.00  0.00    +0.000 A 
ATOM     12  O   UNL     1       1.997  13.073  19.419  0.00  0.00    +0.000 OA
ATOM     13  C   UNL     1       1.818  10.468  18.675  0.00  0.00    +0.000 C 
ATOM     14  C   UNL     1       1.733   9.037  18.995  0.00  0.00    +0.000 A 
ATOM     15  C   UNL     1       2.560   8.088  18.427  0.00  0.00    +0.000 A 
ATOM     16  C   UNL     1       2.584   6.804  18.929  0.00  0.00    +0.000 A 
ATOM     17  C   UNL     1       3.390   5.800  18.288  0.00  0.00    +0.000 A 
ATOM     18  C   UNL     1       3.606   4.600  18.960  0.00  0.00    +0.000 A 
ATOM     19  C   UNL     1       3.038   4.409  20.214  0.00  0.00    +0.000 A 
ATOM     20  C   UNL     1       2.179   5.391  20.773  0.00  0.00    +0.000 A 
ATOM     21  C   UNL     1       1.861   6.612  20.148  0.00  0.00    +0.000 A 
ATOM     22  N   UNL     1       0.968   7.586  20.684  0.00  0.00    +0.000 NA
ATOM     23  C   UNL     1       0.856   8.778  20.044  0.00  0.00    +0.000 A 
ENDROOT
BRANCH  17  24
ATOM     24  N   UNL     1       3.889   5.893  16.961  0.00  0.00    +0.000 N 
ATOM     25  C   UNL     1       5.043   5.381  16.450  0.00  0.00    +0.000 C 
ATOM     26  N   UNL     1       5.372   5.435  15.205  0.00  0.00    +0.000 NA
ATOM     27  C   UNL     1       6.637   4.751  14.923  0.00  0.00    +0.000 C 
ATOM     28  H   UNL     1       3.358   6.463  16.312  0.00  0.00    +0.000 HD
ENDBRANCH  17  24
BRANCH   1  30
ATOM     29  C   UNL     1      -4.486  13.032  22.028  0.00  0.00    +0.000 C 
ATOM     30  C   UNL     1      -3.565  13.770  21.030  0.00  0.00    +0.000 C 
ENDBRANCH   1  30
BRANCH   1  31
ATOM     31  O   UNL     1      -1.897  13.428  19.397  0.00  0.00    +0.000 OA
ATOM     32  H   UNL     1      -2.601  12.865  19.035  0.00  0.00    +0.000 HD
ENDBRANCH   1  31
TORSDOF 3
ENDMDL
MODEL 7
REMARK VINA RESULT:      -6.9      4.647      9.846
REMARK  Name = 
REMARK  5 active torsions:
REMARK  status: ('A' for Active; 'I' for Inactive)
REMARK    1  A    between atoms: C_1  and  C_2
REMARK    2  A    between atoms: C_2  and  C_3
REMARK    3  A    between atoms: C_3  and  O_4
REMARK    4  A    between atoms: C_20  and  N_21
REMARK    5  A    between atoms: N_23  and  C_24
REMARK                            x       y       z     vdW  Elec       q    Type
REMARK                         _______ _______ _______ _____ _____    ______ ____
ROOT
ATOM      1  C   UNL     1       3.756   4.715  17.440  0.00  0.00    +0.000 C 
ATOM      2  C   UNL     1       4.346   3.823  18.609  0.00  0.00    +0.000 C 
ATOM      3  O   UNL     1       5.491   3.417  18.722  0.00  0.00    +0.000 OA
ATOM      4  O   UNL     1       3.500   3.772  19.664  0.00  0.00    +0.000 OA
ATOM      5  C   UNL     1       3.784   4.977  20.347  0.00  0.00    +0.000 C 
ATOM      6  C   UNL     1       3.482   6.134  19.445  0.00  0.00    +0.000 A 
ATOM      7  C   UNL     1       3.756   6.211  18.101  0.00  0.00    +0.000 A 
ATOM      8  C   UNL     1       3.484   7.639  17.542  0.00  0.00    +0.000 A 
ATOM      9  C   UNL     1       2.596   8.486  18.175  0.00  0.00    +0.000 A 
ATOM     10  N   UNL     1       1.840   7.857  19.155  0.00  0.00    +0.000 N 
ATOM     11  C   UNL     1       2.182   6.746  19.834  0.00  0.00    +0.000 A 
ATOM     12  O   UNL     1       1.475   6.256  20.700  0.00  0.00    +0.000 OA
ATOM     13  C   UNL     1       0.595   8.501  19.452  0.00  0.00    +0.000 C 
ATOM     14  C   UNL     1       0.819   9.845  18.903  0.00  0.00    +0.000 A 
ATOM     15  C   UNL     1       0.018  10.927  19.214  0.00  0.00    +0.000 A 
ATOM     16  C   UNL     1       0.407  12.199  18.850  0.00  0.00    +0.000 A 
ATOM     17  C   UNL     1      -0.464  13.314  19.108  0.00  0.00    +0.000 A 
ATOM     18  C   UNL     1       0.055  14.600  18.981  0.00  0.00    +0.000 A 
ATOM     19  C   UNL     1       1.383  14.764  18.608  0.00  0.00    +0.000 A 
ATOM     20  C   UNL     1       2.184  13.640  18.280  0.00  0.00    +0.000 A 
ATOM     21  C   UNL     1       1.734  12.306  18.329  0.00  0.00    +0.000 A 
ATOM     22  N   UNL     1       2.520  11.173  17.964  0.00  0.00    +0.000 NA
ATOM     23  C   UNL     1       2.009   9.936  18.188  0.00  0.00    +0.000 A 
ENDROOT
BRANCH  17  24
ATOM     24  N   UNL     1      -1.856  13.206  19.369  0.00  0.00    +0.000 N 
ATOM     25  C   UNL     1      -2.491  13.129  20.572  0.00  0.00    +0.000 C 
ATOM     26  N   UNL     1      -3.771  13.128  20.719  0.00  0.00    +0.000 NA
ATOM     27  C   UNL     1      -4.182  13.100  22.125  0.00  0.00    +0.000 C 
ATOM     28  H   UNL     1      -2.467  13.111  18.565  0.00  0.00    +0.000 HD
ENDBRANCH  17  24
BRANCH   1  30
ATOM     29  C   UNL     1       5.429   4.419  15.235  0.00  0.00    +0.000 C 
ATOM     30  C   UNL     1       4.284   3.927  16.150  0.00  0.00    +0.000 C 
ENDBRANCH   1  30
BRANCH   1  31
ATOM     31  O   UNL     1       2.312   4.580  17.267  0.00  0.00    +0.000 OA
ATOM     32  H   UNL     1       1.870   5.399  17.544  0.00  0.00    +0.000 HD
ENDBRANCH   1  31
TORSDOF 3
ENDMDL
MODEL 8
REMARK VINA RESULT:      -6.9      3.646      5.227
REMARK  Name = 
REMARK  5 active torsions:
REMARK  status: ('A' for Active; 'I' for Inactive)
REMARK    1  A    between atoms: C_1  and  C_2
REMARK    2  A    between atoms: C_2  and  C_3
REMARK    3  A    between atoms: C_3  and  O_4
REMARK    4  A    between atoms: C_20  and  N_21
REMARK    5  A    between atoms: N_23  and  C_24
REMARK                            x       y       z     vdW  Elec       q    Type
REMARK                         _______ _______ _______ _____ _____    ______ ____
ROOT
ATOM      1  C   UNL     1       1.214  12.746  19.507  0.00  0.00    +0.000 C 
ATOM      2  C   UNL     1      -0.311  13.166  19.592  0.00  0.00    +0.000 C 
ATOM      3  O   UNL     1      -0.917  13.904  18.832  0.00  0.00    +0.000 OA
ATOM      4  O   UNL     1      -0.988  12.385  20.464  0.00  0.00    +0.000 OA
ATOM      5  C   UNL     1      -1.276  11.235  19.693  0.00  0.00    +0.000 C 
ATOM      6  C   UNL     1       0.010  10.602  19.259  0.00  0.00    +0.000 A 
ATOM      7  C   UNL     1       1.136  11.260  18.828  0.00  0.00    +0.000 A 
ATOM      8  C   UNL     1       2.201  10.269  18.272  0.00  0.00    +0.000 A 
ATOM      9  C   UNL     1       2.214   8.949  18.677  0.00  0.00    +0.000 A 
ATOM     10  N   UNL     1       1.378   8.697  19.756  0.00  0.00    +0.000 N 
ATOM     11  C   UNL     1       0.291   9.410  20.106  0.00  0.00    +0.000 A 
ATOM     12  O   UNL     1      -0.412   9.120  21.060  0.00  0.00    +0.000 OA
ATOM     13  C   UNL     1       1.734   7.544  20.529  0.00  0.00    +0.000 C 
ATOM     14  C   UNL     1       2.601   6.817  19.593  0.00  0.00    +0.000 A 
ATOM     15  C   UNL     1       2.951   5.492  19.767  0.00  0.00    +0.000 A 
ATOM     16  C   UNL     1       3.577   4.805  18.748  0.00  0.00    +0.000 A 
ATOM     17  C   UNL     1       4.007   3.448  18.958  0.00  0.00    +0.000 A 
ATOM     18  C   UNL     1       4.387   2.697  17.849  0.00  0.00    +0.000 A 
ATOM     19  C   UNL     1       4.344   3.277  16.587  0.00  0.00    +0.000 A 
ATOM     20  C   UNL     1       3.996   4.644  16.433  0.00  0.00    +0.000 A 
ATOM     21  C   UNL     1       3.646   5.497  17.498  0.00  0.00    +0.000 A 
ATOM     22  N   UNL     1       3.334   6.881  17.357  0.00  0.00    +0.000 NA
ATOM     23  C   UNL     1       2.882   7.553  18.446  0.00  0.00    +0.000 A 
ENDROOT
BRANCH  17  24
ATOM     24  N   UNL     1       4.188   2.849  20.233  0.00  0.00    +0.000 N 
ATOM     25  C   UNL     1       4.916   1.744  20.557  0.00  0.00    +0.000 C 
ATOM     26  N   UNL     1       5.101   1.324  21.761  0.00  0.00    +0.000 NA
ATOM     27  C   UNL     1       5.976   0.150  21.824  0.00  0.00    +0.000 C 
ATOM     28  H   UNL     1       3.664   3.248  21.005  0.00  0.00    +0.000 HD
ENDBRANCH  17  24
BRANCH   1  30
ATOM     29  C   UNL     1       2.943  14.484  18.189  0.00  0.00    +0.000 C 
ATOM     30  C   UNL     1       1.918  14.169  19.302  0.00  0.00    +0.000 C 
ENDBRANCH   1  30
BRANCH   1  31
ATOM     31  O   UNL     1       1.787  12.342  20.789  0.00  0.00    +0.000 OA
ATOM     32  H   UNL     1       2.756  12.371  20.739  0.00  0.00    +0.000 HD
ENDBRANCH   1  31
TORSDOF 3
ENDMDL
MODEL 9
REMARK VINA RESULT:      -6.7      7.465     10.636
REMARK  Name = 
REMARK  5 active torsions:
REMARK  status: ('A' for Active; 'I' for Inactive)
REMARK    1  A    between atoms: C_1  and  C_2
REMARK    2  A    between atoms: C_2  and  C_3
REMARK    3  A    between atoms: C_3  and  O_4
REMARK    4  A    between atoms: C_20  and  N_21
REMARK    5  A    between atoms: N_23  and  C_24
REMARK                            x       y       z     vdW  Elec       q    Type
REMARK                         _______ _______ _______ _____ _____    ______ ____
ROOT
ATOM      1  C   UNL     1       9.330  13.906  18.614  0.00  0.00    +0.000 C 
ATOM      2  C   UNL     1      10.312  14.310  19.788  0.00  0.00    +0.000 C 
ATOM      3  O   UNL     1      11.352  14.942  19.697  0.00  0.00    +0.000 OA
ATOM      4  O   UNL     1       9.737  14.119  20.998  0.00  0.00    +0.000 OA
ATOM      5  C   UNL     1       8.956  15.287  21.157  0.00  0.00    +0.000 C 
ATOM      6  C   UNL     1       7.939  15.350  20.059  0.00  0.00    +0.000 A 
ATOM      7  C   UNL     1       8.145  15.027  18.740  0.00  0.00    +0.000 A 
ATOM      8  C   UNL     1       6.918  15.407  17.860  0.00  0.00    +0.000 A 
ATOM      9  C   UNL     1       5.659  15.517  18.416  0.00  0.00    +0.000 A 
ATOM     10  N   UNL     1       5.588  15.034  19.714  0.00  0.00    +0.000 N 
ATOM     11  C   UNL     1       6.610  14.933  20.585  0.00  0.00    +0.000 A 
ATOM     12  O   UNL     1       6.472  14.515  21.723  0.00  0.00    +0.000 OA
ATOM     13  C   UNL     1       4.275  14.635  20.131  0.00  0.00    +0.000 C 
ATOM     14  C   UNL     1       3.431  15.326  19.147  0.00  0.00    +0.000 A 
ATOM     15  C   UNL     1       2.071  15.496  19.312  0.00  0.00    +0.000 A 
ATOM     16  C   UNL     1       1.375  16.340  18.472  0.00  0.00    +0.000 A 
ATOM     17  C   UNL     1      -0.053  16.458  18.598  0.00  0.00    +0.000 A 
ATOM     18  C   UNL     1      -0.691  17.501  17.932  0.00  0.00    +0.000 A 
ATOM     19  C   UNL     1       0.064  18.383  17.169  0.00  0.00    +0.000 A 
ATOM     20  C   UNL     1       1.458  18.181  17.001  0.00  0.00    +0.000 A 
ATOM     21  C   UNL     1       2.182  17.127  17.593  0.00  0.00    +0.000 A 
ATOM     22  N   UNL     1       3.575  16.894  17.398  0.00  0.00    +0.000 NA
ATOM     23  C   UNL     1       4.175  15.925  18.135  0.00  0.00    +0.000 A 
ENDROOT
BRANCH  17  24
ATOM     24  N   UNL     1      -0.884  15.515  19.261  0.00  0.00    +0.000 N 
ATOM     25  C   UNL     1      -1.532  15.645  20.452  0.00  0.00    +0.000 C 
ATOM     26  N   UNL     1      -2.345  14.768  20.935  0.00  0.00    +0.000 NA
ATOM     27  C   UNL     1      -2.948  15.191  22.201  0.00  0.00    +0.000 C 
ATOM     28  H   UNL     1      -0.967  14.599  18.834  0.00  0.00    +0.000 HD
ENDBRANCH  17  24
BRANCH   1  30
ATOM     29  C   UNL     1      11.084  11.945  17.705  0.00  0.00    +0.000 C 
ATOM     30  C   UNL     1      10.354  13.298  17.545  0.00  0.00    +0.000 C 
ENDBRANCH   1  30
BRANCH   1  31
ATOM     31  O   UNL     1       8.513  12.730  18.905  0.00  0.00    +0.000 OA
ATOM     32  H   UNL     1       8.266  12.288  18.077  0.00  0.00    +0.000 HD
ENDBRANCH   1  31
TORSDOF 3
ENDMDL
