MODEL 1
REMARK VINA RESULT:      -8.4      0.000      0.000
REMARK  Name = 
REMARK  6 active torsions:
REMARK  status: ('A' for Active; 'I' for Inactive)
REMARK    1  A    between atoms: C_1  and  C_2
REMARK    2  A    between atoms: C_4  and  C_5
REMARK    3  A    between atoms: C_7  and  N_8
REMARK    4  A    between atoms: N_10  and  C_11
REMARK    5  A    between atoms: C_11  and  C_12
REMARK    6  A    between atoms: N_24  and  C_25
REMARK                            x       y       z     vdW  Elec       q    Type
REMARK                         _______ _______ _______ _____ _____    ______ ____
ROOT
ATOM      1  N   UNL     1      -1.926  11.712  19.202  0.00  0.00    +0.000 NA
ATOM      2  C   UNL     1      -1.590  12.571  20.096  0.00  0.00    +0.000 C 
ATOM      3  N   UNL     1      -2.206  13.744  20.465  0.00  0.00    +0.000 N 
ATOM      4  N   UNL     1      -0.417  12.289  20.780  0.00  0.00    +0.000 N 
ATOM      5  C   UNL     1       0.517  11.270  20.700  0.00  0.00    +0.000 C 
ATOM      6  O   UNL     1       1.439  11.296  21.513  0.00  0.00    +0.000 OA
ATOM      7  N   UNL     1       0.338  10.353  19.697  0.00  0.00    +0.000 N 
ATOM      8  H   UNL     1      -3.055  13.893  19.919  0.00  0.00    +0.000 HD
ATOM      9  H   UNL     1      -0.144  12.946  21.492  0.00  0.00    +0.000 HD
ATOM     10  H   UNL     1      -0.421  10.567  19.051  0.00  0.00    +0.000 HD
ENDROOT
BRANCH   1  17
ATOM     11  C   UNL     1      -3.495  10.548  14.936  0.00  0.00    +0.000 C 
ATOM     12  C   UNL     1      -3.810  11.085  16.301  0.00  0.00    +0.000 A 
ATOM     13  C   UNL     1      -5.103  11.384  16.664  0.00  0.00    +0.000 A 
ATOM     14  C   UNL     1      -5.297  11.840  17.958  0.00  0.00    +0.000 A 
ATOM     15  C   UNL     1      -6.695  12.179  18.393  0.00  0.00    +0.000 C 
ATOM     16  N   UNL     1      -4.285  11.991  18.858  0.00  0.00    +0.000 NA
ATOM     17  C   UNL     1      -3.062  11.676  18.402  0.00  0.00    +0.000 A 
ATOM     18  N   UNL     1      -2.783  11.234  17.160  0.00  0.00    +0.000 NA
ENDBRANCH   1  17
BRANCH   7  19
ATOM     19  C   UNL     1       1.159   9.242  19.412  0.00  0.00    +0.000 A 
ATOM     20  C   UNL     1       1.359   8.191  20.312  0.00  0.00    +0.000 A 
ATOM     21  C   UNL     1       2.194   7.120  19.994  0.00  0.00    +0.000 A 
ATOM     22  C   UNL     1       2.854   7.089  18.768  0.00  0.00    +0.000 A 
ATOM     23  C   UNL     1       2.659   8.124  17.856  0.00  0.00    +0.000 A 
ATOM     24  C   UNL     1       1.805   9.189  18.170  0.00  0.00    +0.000 A 
ENDBRANCH   7  19
BRANCH   3  25
ATOM     25  C   UNL     1      -2.379  14.156  21.860  0.00  0.00    +0.000 C 
BRANCH  25  26
ATOM     26  C   UNL     1      -3.570  13.558  22.603  0.00  0.00    +0.000 A 
ATOM     27  C   UNL     1      -3.513  13.056  23.925  0.00  0.00    +0.000 A 
ATOM     28  C   UNL     1      -4.648  12.509  24.549  0.00  0.00    +0.000 A 
ATOM     29  C   UNL     1      -5.832  12.475  23.842  0.00  0.00    +0.000 A 
ATOM     30  C   UNL     1      -5.910  12.964  22.563  0.00  0.00    +0.000 A 
ATOM     31  C   UNL     1      -4.811  13.506  21.924  0.00  0.00    +0.000 A 
ATOM     32  O   UNL     1      -7.161  12.843  22.037  0.00  0.00    +0.000 OA
ATOM     33  C   UNL     1      -7.851  12.184  23.121  0.00  0.00    +0.000 C 
ATOM     34  O   UNL     1      -7.021  11.983  24.284  0.00  0.00    +0.000 OA
ENDBRANCH  25  26
ENDBRANCH   3  25
TORSDOF 4
ENDMDL
MODEL 2
REMARK VINA RESULT:      -8.3      2.578      8.136
REMARK  Name = 
REMARK  6 active torsions:
REMARK  status: ('A' for Active; 'I' for Inactive)
REMARK    1  A    between atoms: C_1  and  C_2
REMARK    2  A    between atoms: C_4  and  C_5
REMARK    3  A    between atoms: C_7  and  N_8
REMARK    4  A    between atoms: N_10  and  C_11
REMARK    5  A    between atoms: C_11  and  C_12
REMARK    6  A    between atoms: N_24  and  C_25
REMARK                            x       y       z     vdW  Elec       q    Type
REMARK                         _______ _______ _______ _____ _____    ______ ____
ROOT
ATOM      1  N   UNL     1      -1.651  10.782  18.870  0.00  0.00    +0.000 NA
ATOM      2  C   UNL     1      -0.537  10.158  19.003  0.00  0.00    +0.000 C 
ATOM      3  N   UNL     1       0.094   9.288  18.144  0.00  0.00    +0.000 N 
ATOM      4  N   UNL     1       0.125  10.373  20.204  0.00  0.00    +0.000 N 
ATOM      5  C   UNL     1      -0.164  11.114  21.337  0.00  0.00    +0.000 C 
ATOM      6  O   UNL     1       0.687  11.128  22.224  0.00  0.00    +0.000 OA
ATOM      7  N   UNL     1      -1.388  11.730  21.370  0.00  0.00    +0.000 N 
ATOM      8  H   UNL     1      -0.449   9.170  17.288  0.00  0.00    +0.000 HD
ATOM      9  H   UNL     1       1.006   9.901  20.321  0.00  0.00    +0.000 HD
ATOM     10  H   UNL     1      -2.003  11.504  20.589  0.00  0.00    +0.000 HD
ENDROOT
BRANCH   1  17
ATOM     11  C   UNL     1      -5.782  12.436  17.381  0.00  0.00    +0.000 C 
ATOM     12  C   UNL     1      -4.537  11.660  17.066  0.00  0.00    +0.000 A 
ATOM     13  C   UNL     1      -4.308  11.173  15.800  0.00  0.00    +0.000 A 
ATOM     14  C   UNL     1      -3.114  10.500  15.598  0.00  0.00    +0.000 A 
ATOM     15  C   UNL     1      -2.826   9.952  14.228  0.00  0.00    +0.000 C 
ATOM     16  N   UNL     1      -2.184  10.316  16.576  0.00  0.00    +0.000 NA
ATOM     17  C   UNL     1      -2.508  10.825  17.777  0.00  0.00    +0.000 A 
ATOM     18  N   UNL     1      -3.647  11.485  18.061  0.00  0.00    +0.000 NA
ENDBRANCH   1  17
BRANCH   7  19
ATOM     19  C   UNL     1      -1.906  12.523  22.415  0.00  0.00    +0.000 A 
ATOM     20  C   UNL     1      -3.087  12.210  23.095  0.00  0.00    +0.000 A 
ATOM     21  C   UNL     1      -3.572  13.032  24.113  0.00  0.00    +0.000 A 
ATOM     22  C   UNL     1      -2.884  14.191  24.460  0.00  0.00    +0.000 A 
ATOM     23  C   UNL     1      -1.701  14.514  23.799  0.00  0.00    +0.000 A 
ATOM     24  C   UNL     1      -1.206  13.677  22.791  0.00  0.00    +0.000 A 
ENDBRANCH   7  19
BRANCH   3  25
ATOM     25  C   UNL     1       1.533   9.328  17.874  0.00  0.00    +0.000 C 
BRANCH  25  26
ATOM     26  C   UNL     1       2.330   8.082  18.247  0.00  0.00    +0.000 A 
ATOM     27  C   UNL     1       2.127   7.332  19.430  0.00  0.00    +0.000 A 
ATOM     28  C   UNL     1       2.905   6.196  19.718  0.00  0.00    +0.000 A 
ATOM     29  C   UNL     1       3.877   5.820  18.814  0.00  0.00    +0.000 A 
ATOM     30  C   UNL     1       4.084   6.530  17.658  0.00  0.00    +0.000 A 
ATOM     31  C   UNL     1       3.336   7.650  17.350  0.00  0.00    +0.000 A 
ATOM     32  O   UNL     1       5.083   6.000  16.897  0.00  0.00    +0.000 OA
ATOM     33  C   UNL     1       5.507   4.899  17.730  0.00  0.00    +0.000 C 
ATOM     34  O   UNL     1       4.718   4.757  18.930  0.00  0.00    +0.000 OA
ENDBRANCH  25  26
ENDBRANCH   3  25
TORSDOF 4
ENDMDL
MODEL 3
REMARK VINA RESULT:      -8.2      2.497      7.878
REMARK  Name = 
REMARK  6 active torsions:
REMARK  status: ('A' for Active; 'I' for Inactive)
REMARK    1  A    between atoms: C_1  and  C_2
REMARK    2  A    between atoms: C_4  and  C_5
REMARK    3  A    between atoms: C_7  and  N_8
REMARK    4  A    between atoms: N_10  and  C_11
REMARK    5  A    between atoms: C_11  and  C_12
REMARK    6  A    between atoms: N_24  and  C_25
REMARK                            x       y       z     vdW  Elec       q    Type
REMARK                         _______ _______ _______ _____ _____    ______ ____
ROOT
ATOM      1  N   UNL     1      -1.788  10.902  19.082  0.00  0.00    +0.000 NA
ATOM      2  C   UNL     1      -0.653  10.323  19.241  0.00  0.00    +0.000 C 
ATOM      3  N   UNL     1       0.037   9.489  18.391  0.00  0.00    +0.000 N 
ATOM      4  N   UNL     1      -0.035  10.550  20.462  0.00  0.00    +0.000 N 
ATOM      5  C   UNL     1      -0.386  11.264  21.595  0.00  0.00    +0.000 C 
ATOM      6  O   UNL     1       0.438  11.302  22.506  0.00  0.00    +0.000 OA
ATOM      7  N   UNL     1      -1.635  11.830  21.600  0.00  0.00    +0.000 N 
ATOM      8  H   UNL     1      -0.476   9.360  17.518  0.00  0.00    +0.000 HD
ATOM      9  H   UNL     1       0.861  10.112  20.600  0.00  0.00    +0.000 HD
ATOM     10  H   UNL     1      -2.217  11.588  20.798  0.00  0.00    +0.000 HD
ENDROOT
BRANCH   1  17
ATOM     11  C   UNL     1      -5.894  12.492  17.462  0.00  0.00    +0.000 C 
ATOM     12  C   UNL     1      -4.632  11.727  17.190  0.00  0.00    +0.000 A 
ATOM     13  C   UNL     1      -4.362  11.230  15.935  0.00  0.00    +0.000 A 
ATOM     14  C   UNL     1      -3.155  10.569  15.774  0.00  0.00    +0.000 A 
ATOM     15  C   UNL     1      -2.823  10.010  14.419  0.00  0.00    +0.000 C 
ATOM     16  N   UNL     1      -2.251  10.405  16.780  0.00  0.00    +0.000 NA
ATOM     17  C   UNL     1      -2.614  10.924  17.965  0.00  0.00    +0.000 A 
ATOM     18  N   UNL     1      -3.769  11.574  18.211  0.00  0.00    +0.000 NA
ENDBRANCH   1  17
BRANCH   7  19
ATOM     19  C   UNL     1      -2.215  12.588  22.638  0.00  0.00    +0.000 A 
ATOM     20  C   UNL     1      -3.308  12.143  23.386  0.00  0.00    +0.000 A 
ATOM     21  C   UNL     1      -3.861  12.934  24.394  0.00  0.00    +0.000 A 
ATOM     22  C   UNL     1      -3.331  14.193  24.663  0.00  0.00    +0.000 A 
ATOM     23  C   UNL     1      -2.235  14.648  23.933  0.00  0.00    +0.000 A 
ATOM     24  C   UNL     1      -1.670  13.844  22.934  0.00  0.00    +0.000 A 
ENDBRANCH   7  19
BRANCH   3  25
ATOM     25  C   UNL     1       1.481   9.591  18.163  0.00  0.00    +0.000 C 
BRANCH  25  26
ATOM     26  C   UNL     1       2.282   8.299  18.286  0.00  0.00    +0.000 A 
ATOM     27  C   UNL     1       3.323   7.920  17.406  0.00  0.00    +0.000 A 
ATOM     28  C   UNL     1       4.016   6.708  17.572  0.00  0.00    +0.000 A 
ATOM     29  C   UNL     1       3.661   5.888  18.622  0.00  0.00    +0.000 A 
ATOM     30  C   UNL     1       2.660   6.240  19.491  0.00  0.00    +0.000 A 
ATOM     31  C   UNL     1       1.961   7.424  19.352  0.00  0.00    +0.000 A 
ATOM     32  O   UNL     1       2.461   5.303  20.461  0.00  0.00    +0.000 OA
ATOM     33  C   UNL     1       3.427   4.302  20.075  0.00  0.00    +0.000 C 
ATOM     34  O   UNL     1       4.219   4.686  18.931  0.00  0.00    +0.000 OA
ENDBRANCH  25  26
ENDBRANCH   3  25
TORSDOF 4
ENDMDL
MODEL 4
REMARK VINA RESULT:      -8.2      1.058      1.115
REMARK  Name = 
REMARK  6 active torsions:
REMARK  status: ('A' for Active; 'I' for Inactive)
REMARK    1  A    between atoms: C_1  and  C_2
REMARK    2  A    between atoms: C_4  and  C_5
REMARK    3  A    between atoms: C_7  and  N_8
REMARK    4  A    between atoms: N_10  and  C_11
REMARK    5  A    between atoms: C_11  and  C_12
REMARK    6  A    between atoms: N_24  and  C_25
REMARK                            x       y       z     vdW  Elec       q    Type
REMARK                         _______ _______ _______ _____ _____    ______ ____
ROOT
ATOM      1  N   UNL     1      -1.293  10.835  19.475  0.00  0.00    +0.000 NA
ATOM      2  C   UNL     1      -1.044  11.434  20.583  0.00  0.00    +0.000 C 
ATOM      3  N   UNL     1      -1.684  12.501  21.170  0.00  0.00    +0.000 N 
ATOM      4  N   UNL     1       0.048  10.950  21.288  0.00  0.00    +0.000 N 
ATOM      5  C   UNL     1       0.976   9.950  21.049  0.00  0.00    +0.000 C 
ATOM      6  O   UNL     1       1.807   9.741  21.930  0.00  0.00    +0.000 OA
ATOM      7  N   UNL     1       0.893   9.315  19.837  0.00  0.00    +0.000 N 
ATOM      8  H   UNL     1      -2.470  12.810  20.598  0.00  0.00    +0.000 HD
ATOM      9  H   UNL     1       0.252  11.400  22.165  0.00  0.00    +0.000 HD
ATOM     10  H   UNL     1       0.208   9.710  19.193  0.00  0.00    +0.000 HD
ENDROOT
BRANCH   1  17
ATOM     11  C   UNL     1      -2.707  10.021  15.075  0.00  0.00    +0.000 C 
ATOM     12  C   UNL     1      -3.015  10.614  16.418  0.00  0.00    +0.000 A 
ATOM     13  C   UNL     1      -4.242  11.181  16.677  0.00  0.00    +0.000 A 
ATOM     14  C   UNL     1      -4.444  11.671  17.957  0.00  0.00    +0.000 A 
ATOM     15  C   UNL     1      -5.771  12.298  18.281  0.00  0.00    +0.000 C 
ATOM     16  N   UNL     1      -3.503  11.606  18.941  0.00  0.00    +0.000 NA
ATOM     17  C   UNL     1      -2.339  11.038  18.583  0.00  0.00    +0.000 A 
ATOM     18  N   UNL     1      -2.057  10.544  17.361  0.00  0.00    +0.000 NA
ENDBRANCH   1  17
BRANCH   7  19
ATOM     19  C   UNL     1       1.729   8.281  19.367  0.00  0.00    +0.000 A 
ATOM     20  C   UNL     1       1.926   7.085  20.062  0.00  0.00    +0.000 A 
ATOM     21  C   UNL     1       2.776   6.095  19.567  0.00  0.00    +0.000 A 
ATOM     22  C   UNL     1       3.452   6.293  18.367  0.00  0.00    +0.000 A 
ATOM     23  C   UNL     1       3.260   7.476  17.655  0.00  0.00    +0.000 A 
ATOM     24  C   UNL     1       2.391   8.460  18.145  0.00  0.00    +0.000 A 
ENDBRANCH   7  19
BRANCH   3  25
ATOM     25  C   UNL     1      -1.997  12.562  22.600  0.00  0.00    +0.000 C 
BRANCH  25  26
ATOM     26  C   UNL     1      -3.476  12.621  22.970  0.00  0.00    +0.000 A 
ATOM     27  C   UNL     1      -3.977  12.443  24.282  0.00  0.00    +0.000 A 
ATOM     28  C   UNL     1      -5.356  12.502  24.552  0.00  0.00    +0.000 A 
ATOM     29  C   UNL     1      -6.220  12.743  23.505  0.00  0.00    +0.000 A 
ATOM     30  C   UNL     1      -5.754  12.926  22.228  0.00  0.00    +0.000 A 
ATOM     31  C   UNL     1      -4.405  12.873  21.932  0.00  0.00    +0.000 A 
ATOM     32  O   UNL     1      -6.760  13.155  21.337  0.00  0.00    +0.000 OA
ATOM     33  C   UNL     1      -7.915  13.053  22.197  0.00  0.00    +0.000 C 
ATOM     34  O   UNL     1      -7.576  12.830  23.582  0.00  0.00    +0.000 OA
ENDBRANCH  25  26
ENDBRANCH   3  25
TORSDOF 4
ENDMDL
MODEL 5
REMARK VINA RESULT:      -8.0      0.978      2.140
REMARK  Name = 
REMARK  6 active torsions:
REMARK  status: ('A' for Active; 'I' for Inactive)
REMARK    1  A    between atoms: C_1  and  C_2
REMARK    2  A    between atoms: C_4  and  C_5
REMARK    3  A    between atoms: C_7  and  N_8
REMARK    4  A    between atoms: N_10  and  C_11
REMARK    5  A    between atoms: C_11  and  C_12
REMARK    6  A    between atoms: N_24  and  C_25
REMARK                            x       y       z     vdW  Elec       q    Type
REMARK                         _______ _______ _______ _____ _____    ______ ____
ROOT
ATOM      1  N   UNL     1      -1.437  11.071  18.712  0.00  0.00    +0.000 NA
ATOM      2  C   UNL     1      -1.191  11.986  19.579  0.00  0.00    +0.000 C 
ATOM      3  N   UNL     1      -1.767  13.225  19.739  0.00  0.00    +0.000 N 
ATOM      4  N   UNL     1      -0.176  11.695  20.479  0.00  0.00    +0.000 N 
ATOM      5  C   UNL     1       0.676  10.616  20.646  0.00  0.00    +0.000 C 
ATOM      6  O   UNL     1       1.446  10.659  21.603  0.00  0.00    +0.000 OA
ATOM      7  N   UNL     1       0.598   9.623  19.705  0.00  0.00    +0.000 N 
ATOM      8  H   UNL     1      -2.497  13.376  19.043  0.00  0.00    +0.000 HD
ATOM      9  H   UNL     1       0.023  12.397  21.173  0.00  0.00    +0.000 HD
ATOM     10  H   UNL     1      -0.022   9.825  18.920  0.00  0.00    +0.000 HD
ENDROOT
BRANCH   1  17
ATOM     11  C   UNL     1      -5.843  12.357  17.739  0.00  0.00    +0.000 C 
ATOM     12  C   UNL     1      -4.584  11.687  17.273  0.00  0.00    +0.000 A 
ATOM     13  C   UNL     1      -4.469  11.211  15.988  0.00  0.00    +0.000 A 
ATOM     14  C   UNL     1      -3.255  10.639  15.641  0.00  0.00    +0.000 A 
ATOM     15  C   UNL     1      -3.089  10.106  14.245  0.00  0.00    +0.000 C 
ATOM     16  N   UNL     1      -2.201  10.542  16.499  0.00  0.00    +0.000 NA
ATOM     17  C   UNL     1      -2.420  11.033  17.731  0.00  0.00    +0.000 A 
ATOM     18  N   UNL     1      -3.569  11.596  18.153  0.00  0.00    +0.000 NA
ENDBRANCH   1  17
BRANCH   7  19
ATOM     19  C   UNL     1       1.366   8.442  19.658  0.00  0.00    +0.000 A 
ATOM     20  C   UNL     1       1.359   7.487  20.679  0.00  0.00    +0.000 A 
ATOM     21  C   UNL     1       2.148   6.340  20.598  0.00  0.00    +0.000 A 
ATOM     22  C   UNL     1       2.970   6.134  19.493  0.00  0.00    +0.000 A 
ATOM     23  C   UNL     1       2.983   7.071  18.462  0.00  0.00    +0.000 A 
ATOM     24  C   UNL     1       2.174   8.213  18.536  0.00  0.00    +0.000 A 
ENDBRANCH   7  19
BRANCH   3  25
ATOM     25  C   UNL     1      -2.140  13.775  21.045  0.00  0.00    +0.000 C 
BRANCH  25  26
ATOM     26  C   UNL     1      -3.621  13.718  21.408  0.00  0.00    +0.000 A 
ATOM     27  C   UNL     1      -4.649  14.336  20.657  0.00  0.00    +0.000 A 
ATOM     28  C   UNL     1      -5.996  14.252  21.054  0.00  0.00    +0.000 A 
ATOM     29  C   UNL     1      -6.299  13.546  22.198  0.00  0.00    +0.000 A 
ATOM     30  C   UNL     1      -5.318  12.933  22.936  0.00  0.00    +0.000 A 
ATOM     31  C   UNL     1      -3.987  13.000  22.571  0.00  0.00    +0.000 A 
ATOM     32  O   UNL     1      -5.817  12.285  24.026  0.00  0.00    +0.000 OA
ATOM     33  C   UNL     1      -7.222  12.596  23.909  0.00  0.00    +0.000 C 
ATOM     34  O   UNL     1      -7.539  13.364  22.729  0.00  0.00    +0.000 OA
ENDBRANCH  25  26
ENDBRANCH   3  25
TORSDOF 4
ENDMDL
MODEL 6
REMARK VINA RESULT:      -8.0      0.696      1.895
REMARK  Name = 
REMARK  6 active torsions:
REMARK  status: ('A' for Active; 'I' for Inactive)
REMARK    1  A    between atoms: C_1  and  C_2
REMARK    2  A    between atoms: C_4  and  C_5
REMARK    3  A    between atoms: C_7  and  N_8
REMARK    4  A    between atoms: N_10  and  C_11
REMARK    5  A    between atoms: C_11  and  C_12
REMARK    6  A    between atoms: N_24  and  C_25
REMARK                            x       y       z     vdW  Elec       q    Type
REMARK                         _______ _______ _______ _____ _____    ______ ____
ROOT
ATOM      1  N   UNL     1      -1.571  11.465  18.787  0.00  0.00    +0.000 NA
ATOM      2  C   UNL     1      -1.199  12.445  19.528  0.00  0.00    +0.000 C 
ATOM      3  N   UNL     1      -1.732  13.708  19.649  0.00  0.00    +0.000 N 
ATOM      4  N   UNL     1      -0.078  12.209  20.309  0.00  0.00    +0.000 N 
ATOM      5  C   UNL     1       0.774  11.127  20.460  0.00  0.00    +0.000 C 
ATOM      6  O   UNL     1       1.665  11.234  21.300  0.00  0.00    +0.000 OA
ATOM      7  N   UNL     1       0.558  10.058  19.630  0.00  0.00    +0.000 N 
ATOM      8  H   UNL     1      -2.546  13.815  19.044  0.00  0.00    +0.000 HD
ATOM      9  H   UNL     1       0.221  12.963  20.905  0.00  0.00    +0.000 HD
ATOM     10  H   UNL     1      -0.158  10.205  18.919  0.00  0.00    +0.000 HD
ENDROOT
BRANCH   1  17
ATOM     11  C   UNL     1      -6.132  12.506  18.428  0.00  0.00    +0.000 C 
ATOM     12  C   UNL     1      -4.914  11.899  17.794  0.00  0.00    +0.000 A 
ATOM     13  C   UNL     1      -4.952  11.419  16.506  0.00  0.00    +0.000 A 
ATOM     14  C   UNL     1      -3.768  10.910  15.996  0.00  0.00    +0.000 A 
ATOM     15  C   UNL     1      -3.767  10.374  14.591  0.00  0.00    +0.000 C 
ATOM     16  N   UNL     1      -2.602  10.876  16.701  0.00  0.00    +0.000 NA
ATOM     17  C   UNL     1      -2.676  11.365  17.950  0.00  0.00    +0.000 A 
ATOM     18  N   UNL     1      -3.784  11.871  18.526  0.00  0.00    +0.000 NA
ENDBRANCH   1  17
BRANCH   7  19
ATOM     19  C   UNL     1       1.297   8.858  19.590  0.00  0.00    +0.000 A 
ATOM     20  C   UNL     1       2.050   8.463  18.480  0.00  0.00    +0.000 A 
ATOM     21  C   UNL     1       2.754   7.259  18.478  0.00  0.00    +0.000 A 
ATOM     22  C   UNL     1       2.705   6.420  19.589  0.00  0.00    +0.000 A 
ATOM     23  C   UNL     1       1.967   6.802  20.707  0.00  0.00    +0.000 A 
ATOM     24  C   UNL     1       1.277   8.021  20.714  0.00  0.00    +0.000 A 
ENDBRANCH   7  19
BRANCH   3  25
ATOM     25  C   UNL     1      -1.921  14.379  20.938  0.00  0.00    +0.000 C 
BRANCH  25  26
ATOM     26  C   UNL     1      -2.946  13.760  21.883  0.00  0.00    +0.000 A 
ATOM     27  C   UNL     1      -2.617  13.084  23.082  0.00  0.00    +0.000 A 
ATOM     28  C   UNL     1      -3.613  12.528  23.905  0.00  0.00    +0.000 A 
ATOM     29  C   UNL     1      -4.930  12.658  23.519  0.00  0.00    +0.000 A 
ATOM     30  C   UNL     1      -5.271  13.316  22.364  0.00  0.00    +0.000 A 
ATOM     31  C   UNL     1      -4.314  13.871  21.536  0.00  0.00    +0.000 A 
ATOM     32  O   UNL     1      -6.618  13.340  22.160  0.00  0.00    +0.000 OA
ATOM     33  C   UNL     1      -7.081  12.585  23.299  0.00  0.00    +0.000 C 
ATOM     34  O   UNL     1      -6.017  12.183  24.187  0.00  0.00    +0.000 OA
ENDBRANCH  25  26
ENDBRANCH   3  25
TORSDOF 4
ENDMDL
MODEL 7
REMARK VINA RESULT:      -7.9      3.350      8.177
REMARK  Name = 
REMARK  6 active torsions:
REMARK  status: ('A' for Active; 'I' for Inactive)
REMARK    1  A    between atoms: C_1  and  C_2
REMARK    2  A    between atoms: C_4  and  C_5
REMARK    3  A    between atoms: C_7  and  N_8
REMARK    4  A    between atoms: N_10  and  C_11
REMARK    5  A    between atoms: C_11  and  C_12
REMARK    6  A    between atoms: N_24  and  C_25
REMARK                            x       y       z     vdW  Elec       q    Type
REMARK                         _______ _______ _______ _____ _____    ______ ____
ROOT
ATOM      1  N   UNL     1      -0.972  11.506  18.839  0.00  0.00    +0.000 NA
ATOM      2  C   UNL     1       0.100  10.811  18.975  0.00  0.00    +0.000 C 
ATOM      3  N   UNL     1       0.453   9.615  18.395  0.00  0.00    +0.000 N 
ATOM      4  N   UNL     1       1.037  11.330  19.856  0.00  0.00    +0.000 N 
ATOM      5  C   UNL     1       1.071  12.452  20.667  0.00  0.00    +0.000 C 
ATOM      6  O   UNL     1       2.106  12.649  21.300  0.00  0.00    +0.000 OA
ATOM      7  N   UNL     1      -0.068  13.214  20.706  0.00  0.00    +0.000 N 
ATOM      8  H   UNL     1      -0.282   9.288  17.767  0.00  0.00    +0.000 HD
ATOM      9  H   UNL     1       1.888  10.805  19.966  0.00  0.00    +0.000 HD
ATOM     10  H   UNL     1      -0.862  12.823  20.201  0.00  0.00    +0.000 HD
ENDROOT
BRANCH   1  17
ATOM     11  C   UNL     1      -5.600  12.152  18.417  0.00  0.00    +0.000 C 
ATOM     12  C   UNL     1      -4.330  11.632  17.810  0.00  0.00    +0.000 A 
ATOM     13  C   UNL     1      -4.315  11.115  16.535  0.00  0.00    +0.000 A 
ATOM     14  C   UNL     1      -3.088  10.692  16.049  0.00  0.00    +0.000 A 
ATOM     15  C   UNL     1      -3.028  10.120  14.660  0.00  0.00    +0.000 C 
ATOM     16  N   UNL     1      -1.930  10.776  16.763  0.00  0.00    +0.000 NA
ATOM     17  C   UNL     1      -2.057  11.291  17.998  0.00  0.00    +0.000 A 
ATOM     18  N   UNL     1      -3.209  11.718  18.550  0.00  0.00    +0.000 NA
ENDBRANCH   1  17
BRANCH   7  19
ATOM     19  C   UNL     1      -0.273  14.387  21.462  0.00  0.00    +0.000 A 
ATOM     20  C   UNL     1      -0.635  14.369  22.812  0.00  0.00    +0.000 A 
ATOM     21  C   UNL     1      -0.845  15.555  23.517  0.00  0.00    +0.000 A 
ATOM     22  C   UNL     1      -0.705  16.782  22.875  0.00  0.00    +0.000 A 
ATOM     23  C   UNL     1      -0.336  16.818  21.532  0.00  0.00    +0.000 A 
ATOM     24  C   UNL     1      -0.107  15.627  20.831  0.00  0.00    +0.000 A 
ENDBRANCH   7  19
BRANCH   3  25
ATOM     25  C   UNL     1       1.788   9.347  17.854  0.00  0.00    +0.000 C 
BRANCH  25  26
ATOM     26  C   UNL     1       2.457   8.052  18.303  0.00  0.00    +0.000 A 
ATOM     27  C   UNL     1       2.139   7.365  19.499  0.00  0.00    +0.000 A 
ATOM     28  C   UNL     1       2.802   6.178  19.858  0.00  0.00    +0.000 A 
ATOM     29  C   UNL     1       3.775   5.688  19.012  0.00  0.00    +0.000 A 
ATOM     30  C   UNL     1       4.092   6.335  17.845  0.00  0.00    +0.000 A 
ATOM     31  C   UNL     1       3.458   7.503  17.467  0.00  0.00    +0.000 A 
ATOM     32  O   UNL     1       5.072   5.694  17.148  0.00  0.00    +0.000 OA
ATOM     33  C   UNL     1       5.363   4.592  18.034  0.00  0.00    +0.000 C 
ATOM     34  O   UNL     1       4.514   4.561  19.200  0.00  0.00    +0.000 OA
ENDBRANCH  25  26
ENDBRANCH   3  25
TORSDOF 4
ENDMDL
MODEL 8
REMARK VINA RESULT:      -7.8      0.846      1.560
REMARK  Name = 
REMARK  6 active torsions:
REMARK  status: ('A' for Active; 'I' for Inactive)
REMARK    1  A    between atoms: C_1  and  C_2
REMARK    2  A    between atoms: C_4  and  C_5
REMARK    3  A    between atoms: C_7  and  N_8
REMARK    4  A    between atoms: N_10  and  C_11
REMARK    5  A    between atoms: C_11  and  C_12
REMARK    6  A    between atoms: N_24  and  C_25
REMARK                            x       y       z     vdW  Elec       q    Type
REMARK                         _______ _______ _______ _____ _____    ______ ____
ROOT
ATOM      1  N   UNL     1      -1.683  11.542  18.861  0.00  0.00    +0.000 NA
ATOM      2  C   UNL     1      -1.387  12.427  19.743  0.00  0.00    +0.000 C 
ATOM      3  N   UNL     1      -1.993  13.630  20.020  0.00  0.00    +0.000 N 
ATOM      4  N   UNL     1      -0.275  12.142  20.522  0.00  0.00    +0.000 N 
ATOM      5  C   UNL     1       0.632  11.096  20.550  0.00  0.00    +0.000 C 
ATOM      6  O   UNL     1       1.493  11.130  21.427  0.00  0.00    +0.000 OA
ATOM      7  N   UNL     1       0.499  10.144  19.574  0.00  0.00    +0.000 N 
ATOM      8  H   UNL     1      -2.796  13.779  19.408  0.00  0.00    +0.000 HD
ATOM      9  H   UNL     1      -0.035  12.820  21.226  0.00  0.00    +0.000 HD
ATOM     10  H   UNL     1      -0.205  10.352  18.865  0.00  0.00    +0.000 HD
ENDROOT
BRANCH   1  17
ATOM     11  C   UNL     1      -2.992  10.182  14.565  0.00  0.00    +0.000 C 
ATOM     12  C   UNL     1      -3.379  10.815  15.870  0.00  0.00    +0.000 A 
ATOM     13  C   UNL     1      -4.680  11.189  16.116  0.00  0.00    +0.000 A 
ATOM     14  C   UNL     1      -4.945  11.732  17.363  0.00  0.00    +0.000 A 
ATOM     15  C   UNL     1      -6.355  12.154  17.672  0.00  0.00    +0.000 C 
ATOM     16  N   UNL     1      -3.996  11.896  18.327  0.00  0.00    +0.000 NA
ATOM     17  C   UNL     1      -2.758  11.503  17.982  0.00  0.00    +0.000 A 
ATOM     18  N   UNL     1      -2.411  10.974  16.792  0.00  0.00    +0.000 NA
ENDBRANCH   1  17
BRANCH   7  19
ATOM     19  C   UNL     1       1.305   9.001  19.393  0.00  0.00    +0.000 A 
ATOM     20  C   UNL     1       2.018   8.750  18.216  0.00  0.00    +0.000 A 
ATOM     21  C   UNL     1       2.791   7.598  18.075  0.00  0.00    +0.000 A 
ATOM     22  C   UNL     1       2.855   6.669  19.110  0.00  0.00    +0.000 A 
ATOM     23  C   UNL     1       2.158   6.907  20.293  0.00  0.00    +0.000 A 
ATOM     24  C   UNL     1       1.398   8.075  20.440  0.00  0.00    +0.000 A 
ENDBRANCH   7  19
BRANCH   3  25
ATOM     25  C   UNL     1      -2.254  14.103  21.382  0.00  0.00    +0.000 C 
BRANCH  25  26
ATOM     26  C   UNL     1      -3.717  14.167  21.812  0.00  0.00    +0.000 A 
ATOM     27  C   UNL     1      -4.613  15.194  21.435  0.00  0.00    +0.000 A 
ATOM     28  C   UNL     1      -5.949  15.197  21.875  0.00  0.00    +0.000 A 
ATOM     29  C   UNL     1      -6.375  14.165  22.685  0.00  0.00    +0.000 A 
ATOM     30  C   UNL     1      -5.523  13.155  23.055  0.00  0.00    +0.000 A 
ATOM     31  C   UNL     1      -4.206  13.127  22.639  0.00  0.00    +0.000 A 
ATOM     32  O   UNL     1      -6.130  12.231  23.851  0.00  0.00    +0.000 OA
ATOM     33  C   UNL     1      -7.452  12.800  23.972  0.00  0.00    +0.000 C 
ATOM     34  O   UNL     1      -7.624  14.008  23.202  0.00  0.00    +0.000 OA
ENDBRANCH  25  26
ENDBRANCH   3  25
TORSDOF 4
ENDMDL
MODEL 9
REMARK VINA RESULT:      -7.8      2.473      7.793
REMARK  Name = 
REMARK  6 active torsions:
REMARK  status: ('A' for Active; 'I' for Inactive)
REMARK    1  A    between atoms: C_1  and  C_2
REMARK    2  A    between atoms: C_4  and  C_5
REMARK    3  A    between atoms: C_7  and  N_8
REMARK    4  A    between atoms: N_10  and  C_11
REMARK    5  A    between atoms: C_11  and  C_12
REMARK    6  A    between atoms: N_24  and  C_25
REMARK                            x       y       z     vdW  Elec       q    Type
REMARK                         _______ _______ _______ _____ _____    ______ ____
ROOT
ATOM      1  N   UNL     1      -2.057  11.188  19.246  0.00  0.00    +0.000 NA
ATOM      2  C   UNL     1      -0.950  10.545  19.339  0.00  0.00    +0.000 C 
ATOM      3  N   UNL     1      -0.332   9.719  18.428  0.00  0.00    +0.000 N 
ATOM      4  N   UNL     1      -0.282  10.680  20.548  0.00  0.00    +0.000 N 
ATOM      5  C   UNL     1      -0.559  11.356  21.724  0.00  0.00    +0.000 C 
ATOM      6  O   UNL     1       0.294  11.308  22.607  0.00  0.00    +0.000 OA
ATOM      7  N   UNL     1      -1.776  11.984  21.798  0.00  0.00    +0.000 N 
ATOM      8  H   UNL     1      -0.878   9.659  17.569  0.00  0.00    +0.000 HD
ATOM      9  H   UNL     1       0.593  10.191  20.635  0.00  0.00    +0.000 HD
ATOM     10  H   UNL     1      -2.395  11.811  21.006  0.00  0.00    +0.000 HD
ENDROOT
BRANCH   1  17
ATOM     11  C   UNL     1      -2.640   9.971  14.752  0.00  0.00    +0.000 C 
ATOM     12  C   UNL     1      -3.183  10.684  15.955  0.00  0.00    +0.000 A 
ATOM     13  C   UNL     1      -4.428  11.269  15.929  0.00  0.00    +0.000 A 
ATOM     14  C   UNL     1      -4.858  11.874  17.100  0.00  0.00    +0.000 A 
ATOM     15  C   UNL     1      -6.213  12.524  17.112  0.00  0.00    +0.000 C 
ATOM     16  N   UNL     1      -4.117  11.901  18.243  0.00  0.00    +0.000 NA
ATOM     17  C   UNL     1      -2.915  11.306  18.160  0.00  0.00    +0.000 A 
ATOM     18  N   UNL     1      -2.418  10.704  17.063  0.00  0.00    +0.000 NA
ENDBRANCH   1  17
BRANCH   7  19
ATOM     19  C   UNL     1      -2.282  12.719  22.890  0.00  0.00    +0.000 A 
ATOM     20  C   UNL     1      -3.410  12.326  23.616  0.00  0.00    +0.000 A 
ATOM     21  C   UNL     1      -3.885  13.094  24.679  0.00  0.00    +0.000 A 
ATOM     22  C   UNL     1      -3.242  14.278  25.027  0.00  0.00    +0.000 A 
ATOM     23  C   UNL     1      -2.111  14.681  24.320  0.00  0.00    +0.000 A 
ATOM     24  C   UNL     1      -1.624  13.898  23.265  0.00  0.00    +0.000 A 
ENDBRANCH   7  19
BRANCH   3  25
ATOM     25  C   UNL     1       1.107   9.758  18.156  0.00  0.00    +0.000 C 
BRANCH  25  26
ATOM     26  C   UNL     1       1.896   8.493  18.483  0.00  0.00    +0.000 A 
ATOM     27  C   UNL     1       1.767   7.765  19.690  0.00  0.00    +0.000 A 
ATOM     28  C   UNL     1       2.533   6.610  19.932  0.00  0.00    +0.000 A 
ATOM     29  C   UNL     1       3.417   6.194  18.959  0.00  0.00    +0.000 A 
ATOM     30  C   UNL     1       3.551   6.882  17.779  0.00  0.00    +0.000 A 
ATOM     31  C   UNL     1       2.813   8.020  17.515  0.00  0.00    +0.000 A 
ATOM     32  O   UNL     1       4.469   6.313  16.949  0.00  0.00    +0.000 OA
ATOM     33  C   UNL     1       4.927   5.211  17.762  0.00  0.00    +0.000 C 
ATOM     34  O   UNL     1       4.234   5.108  19.023  0.00  0.00    +0.000 OA
ENDBRANCH  25  26
ENDBRANCH   3  25
TORSDOF 4
ENDMDL
