MODEL 1
REMARK VINA RESULT:      -8.2      0.000      0.000
REMARK  Name = 
REMARK  7 active torsions:
REMARK  status: ('A' for Active; 'I' for Inactive)
REMARK    1  A    between atoms: C_1  and  O_2
REMARK    2  A    between atoms: O_2  and  C_3
REMARK    3  A    between atoms: C_5  and  C_6
REMARK    4  A    between atoms: C_12  and  N_13
REMARK    5  A    between atoms: C_19  and  S_20
REMARK    6  A    between atoms: S_20  and  N_23
REMARK    7  A    between atoms: C_29  and  C_30
REMARK                            x       y       z     vdW  Elec       q    Type
REMARK                         _______ _______ _______ _____ _____    ______ ____
ROOT
ATOM      1  N   UNL     1       1.108   9.022  21.049  0.00  0.00    +0.000 N 
ATOM      2  C   UNL     1       0.725   9.477  19.667  0.00  0.00    +0.000 C 
ATOM      3  C   UNL     1       1.007   8.971  18.294  0.00  0.00    +0.000 C 
ATOM      4  O   UNL     1       2.353   8.631  18.293  0.00  0.00    +0.000 OA
ATOM      5  C   UNL     1       2.275   7.584  19.168  0.00  0.00    +0.000 A 
ATOM      6  C   UNL     1       2.606   6.401  18.502  0.00  0.00    +0.000 A 
ATOM      7  C   UNL     1       2.487   5.170  19.095  0.00  0.00    +0.000 A 
ATOM      8  C   UNL     1       2.103   5.159  20.465  0.00  0.00    +0.000 A 
ATOM      9  C   UNL     1       1.693   6.431  21.125  0.00  0.00    +0.000 A 
ATOM     10  C   UNL     1       1.688   7.705  20.456  0.00  0.00    +0.000 A 
ENDROOT
BRANCH   1  16
ATOM     11  C   UNL     1       0.899  11.937  20.874  0.00  0.00    +0.000 A 
ATOM     12  C   UNL     1       0.300  13.148  21.245  0.00  0.00    +0.000 A 
ATOM     13  C   UNL     1      -0.589  13.213  22.292  0.00  0.00    +0.000 A 
ATOM     14  C   UNL     1      -1.068  11.976  22.793  0.00  0.00    +0.000 A 
ATOM     15  C   UNL     1      -0.606  10.680  22.315  0.00  0.00    +0.000 A 
ATOM     16  C   UNL     1       0.455  10.569  21.375  0.00  0.00    +0.000 A 
BRANCH  13  17
ATOM     17  C   UNL     1      -0.864  14.612  22.836  0.00  0.00    +0.000 C 
ATOM     18  F   UNL     1      -1.781  15.301  22.076  0.00  0.00    +0.000 F 
ATOM     19  F   UNL     1      -1.372  14.630  24.095  0.00  0.00    +0.000 F 
ATOM     20  F   UNL     1       0.235  15.414  22.843  0.00  0.00    +0.000 F 
ENDBRANCH  13  17
BRANCH  11  22
ATOM     21  C   UNL     1       1.880  13.330  19.183  0.00  0.00    +0.000 C 
ATOM     22  O   UNL     1       2.018  12.200  20.075  0.00  0.00    +0.000 OA
ENDBRANCH  11  22
ENDBRANCH   1  16
BRANCH   7  23
ATOM     23  S   UNL     1       3.140   3.859  18.037  0.00  0.00    +0.000 S 
ATOM     24  O   UNL     1       2.311   2.688  18.272  0.00  0.00    +0.000 OA
ATOM     25  O   UNL     1       3.266   4.376  16.697  0.00  0.00    +0.000 OA
BRANCH  23  26
ATOM     26  N   UNL     1       4.697   3.375  18.511  0.00  0.00    +0.000 N 
ATOM     27  C   UNL     1       5.727   4.272  18.199  0.00  0.00    +0.000 A 
ATOM     28  N   UNL     1       6.401   4.067  17.101  0.00  0.00    +0.000 NA
ATOM     29  C   UNL     1       7.373   5.038  16.984  0.00  0.00    +0.000 A 
ATOM     30  C   UNL     1       7.455   5.924  18.037  0.00  0.00    +0.000 A 
ATOM     31  S   UNL     1       6.283   5.514  19.225  0.00  0.00    +0.000 S 
ATOM     32  H   UNL     1       4.884   2.533  17.958  0.00  0.00    +0.000 HD
ENDBRANCH  23  26
ENDBRANCH   7  23
BRANCH   8  33
ATOM     33  C   UNL     1       2.044   3.918  21.212  0.00  0.00    +0.000 C 
ATOM     34  N   UNL     1       2.065   2.922  21.828  0.00  0.00    +0.000 NA
ENDBRANCH   8  33
TORSDOF 6
ENDMDL
MODEL 2
REMARK VINA RESULT:      -8.1      1.616      1.850
REMARK  Name = 
REMARK  7 active torsions:
REMARK  status: ('A' for Active; 'I' for Inactive)
REMARK    1  A    between atoms: C_1  and  O_2
REMARK    2  A    between atoms: O_2  and  C_3
REMARK    3  A    between atoms: C_5  and  C_6
REMARK    4  A    between atoms: C_12  and  N_13
REMARK    5  A    between atoms: C_19  and  S_20
REMARK    6  A    between atoms: S_20  and  N_23
REMARK    7  A    between atoms: C_29  and  C_30
REMARK                            x       y       z     vdW  Elec       q    Type
REMARK                         _______ _______ _______ _____ _____    ______ ____
ROOT
ATOM      1  N   UNL     1       1.080   9.086  20.254  0.00  0.00    +0.000 N 
ATOM      2  C   UNL     1       1.075   9.364  18.775  0.00  0.00    +0.000 C 
ATOM      3  C   UNL     1       1.732   8.728  17.598  0.00  0.00    +0.000 C 
ATOM      4  O   UNL     1       3.036   8.467  17.998  0.00  0.00    +0.000 OA
ATOM      5  C   UNL     1       2.750   7.520  18.940  0.00  0.00    +0.000 A 
ATOM      6  C   UNL     1       3.278   6.291  18.533  0.00  0.00    +0.000 A 
ATOM      7  C   UNL     1       3.034   5.128  19.218  0.00  0.00    +0.000 A 
ATOM      8  C   UNL     1       2.293   5.245  20.426  0.00  0.00    +0.000 A 
ATOM      9  C   UNL     1       1.688   6.556  20.795  0.00  0.00    +0.000 A 
ATOM     10  C   UNL     1       1.832   7.747  20.000  0.00  0.00    +0.000 A 
ENDROOT
BRANCH   1  16
ATOM     11  C   UNL     1       0.885  11.992  20.555  0.00  0.00    +0.000 A 
ATOM     12  C   UNL     1       0.148  13.182  20.509  0.00  0.00    +0.000 A 
ATOM     13  C   UNL     1      -1.220  13.170  20.378  0.00  0.00    +0.000 A 
ATOM     14  C   UNL     1      -1.811  11.931  20.025  0.00  0.00    +0.000 A 
ATOM     15  C   UNL     1      -1.059  10.691  19.883  0.00  0.00    +0.000 A 
ATOM     16  C   UNL     1       0.325  10.619  20.205  0.00  0.00    +0.000 A 
BRANCH  13  17
ATOM     17  C   UNL     1      -1.926  14.477  20.727  0.00  0.00    +0.000 C 
ATOM     18  F   UNL     1      -1.509  15.526  19.941  0.00  0.00    +0.000 F 
ATOM     19  F   UNL     1      -3.275  14.440  20.571  0.00  0.00    +0.000 F 
ATOM     20  F   UNL     1      -1.688  14.897  21.999  0.00  0.00    +0.000 F 
ENDBRANCH  13  17
BRANCH  11  22
ATOM     21  C   UNL     1       2.684  13.567  20.767  0.00  0.00    +0.000 C 
ATOM     22  O   UNL     1       2.159  12.254  21.073  0.00  0.00    +0.000 OA
ENDBRANCH  11  22
ENDBRANCH   1  16
BRANCH   7  23
ATOM     23  S   UNL     1       3.983   3.748  18.537  0.00  0.00    +0.000 S 
ATOM     24  O   UNL     1       4.253   2.848  19.646  0.00  0.00    +0.000 OA
ATOM     25  O   UNL     1       3.290   3.249  17.376  0.00  0.00    +0.000 OA
BRANCH  23  26
ATOM     26  N   UNL     1       5.520   4.235  18.005  0.00  0.00    +0.000 N 
ATOM     27  C   UNL     1       5.640   4.443  16.624  0.00  0.00    +0.000 A 
ATOM     28  N   UNL     1       6.108   3.464  15.899  0.00  0.00    +0.000 NA
ATOM     29  C   UNL     1       6.166   3.870  14.583  0.00  0.00    +0.000 A 
ATOM     30  C   UNL     1       5.800   5.179  14.349  0.00  0.00    +0.000 A 
ATOM     31  S   UNL     1       5.384   5.933  15.836  0.00  0.00    +0.000 S 
ATOM     32  H   UNL     1       6.130   3.441  18.221  0.00  0.00    +0.000 HD
ENDBRANCH  23  26
ENDBRANCH   7  23
BRANCH   8  33
ATOM     33  C   UNL     1       2.065   4.092  21.274  0.00  0.00    +0.000 C 
ATOM     34  N   UNL     1       1.920   3.191  22.008  0.00  0.00    +0.000 NA
ENDBRANCH   8  33
TORSDOF 6
ENDMDL
MODEL 3
REMARK VINA RESULT:      -8.0      5.776      9.402
REMARK  Name = 
REMARK  7 active torsions:
REMARK  status: ('A' for Active; 'I' for Inactive)
REMARK    1  A    between atoms: C_1  and  O_2
REMARK    2  A    between atoms: O_2  and  C_3
REMARK    3  A    between atoms: C_5  and  C_6
REMARK    4  A    between atoms: C_12  and  N_13
REMARK    5  A    between atoms: C_19  and  S_20
REMARK    6  A    between atoms: S_20  and  N_23
REMARK    7  A    between atoms: C_29  and  C_30
REMARK                            x       y       z     vdW  Elec       q    Type
REMARK                         _______ _______ _______ _____ _____    ______ ____
ROOT
ATOM      1  N   UNL     1       2.378   7.365  19.003  0.00  0.00    +0.000 N 
ATOM      2  C   UNL     1       2.615   8.411  17.948  0.00  0.00    +0.000 C 
ATOM      3  C   UNL     1       2.009   9.740  17.651  0.00  0.00    +0.000 C 
ATOM      4  O   UNL     1       0.640   9.566  17.805  0.00  0.00    +0.000 OA
ATOM      5  C   UNL     1       0.638   9.344  19.153  0.00  0.00    +0.000 A 
ATOM      6  C   UNL     1      -0.043  10.386  19.790  0.00  0.00    +0.000 A 
ATOM      7  C   UNL     1      -0.092  10.499  21.156  0.00  0.00    +0.000 A 
ATOM      8  C   UNL     1       0.502   9.444  21.904  0.00  0.00    +0.000 A 
ATOM      9  C   UNL     1       1.276   8.385  21.196  0.00  0.00    +0.000 A 
ATOM     10  C   UNL     1       1.441   8.346  19.766  0.00  0.00    +0.000 A 
ENDROOT
BRANCH   1  16
ATOM     11  C   UNL     1       3.452   5.030  17.601  0.00  0.00    +0.000 A 
ATOM     12  C   UNL     1       4.359   4.447  16.708  0.00  0.00    +0.000 A 
ATOM     13  C   UNL     1       5.436   5.150  16.223  0.00  0.00    +0.000 A 
ATOM     14  C   UNL     1       5.433   6.549  16.452  0.00  0.00    +0.000 A 
ATOM     15  C   UNL     1       4.410   7.236  17.229  0.00  0.00    +0.000 A 
ATOM     16  C   UNL     1       3.389   6.519  17.914  0.00  0.00    +0.000 A 
BRANCH  13  17
ATOM     17  C   UNL     1       6.539   4.310  15.586  0.00  0.00    +0.000 C 
ATOM     18  F   UNL     1       6.141   3.014  15.347  0.00  0.00    +0.000 F 
ATOM     19  F   UNL     1       6.965   4.771  14.382  0.00  0.00    +0.000 F 
ATOM     20  F   UNL     1       7.642   4.181  16.372  0.00  0.00    +0.000 F 
ENDBRANCH  13  17
BRANCH  11  22
ATOM     21  C   UNL     1       2.502   2.832  17.435  0.00  0.00    +0.000 C 
ATOM     22  O   UNL     1       2.707   4.024  18.228  0.00  0.00    +0.000 OA
ENDBRANCH  11  22
ENDBRANCH   1  16
BRANCH   7  23
ATOM     23  S   UNL     1      -1.175  11.852  21.670  0.00  0.00    +0.000 S 
ATOM     24  O   UNL     1      -1.924  12.251  20.490  0.00  0.00    +0.000 OA
ATOM     25  O   UNL     1      -1.888  11.439  22.853  0.00  0.00    +0.000 OA
BRANCH  23  26
ATOM     26  N   UNL     1      -0.296  13.240  22.101  0.00  0.00    +0.000 N 
ATOM     27  C   UNL     1       0.690  13.636  21.187  0.00  0.00    +0.000 A 
ATOM     28  N   UNL     1       1.915  13.245  21.406  0.00  0.00    +0.000 NA
ATOM     29  C   UNL     1       2.730  13.748  20.414  0.00  0.00    +0.000 A 
ATOM     30  C   UNL     1       2.109  14.570  19.497  0.00  0.00    +0.000 A 
ATOM     31  S   UNL     1       0.447  14.730  19.903  0.00  0.00    +0.000 S 
ATOM     32  H   UNL     1       0.206  12.972  22.953  0.00  0.00    +0.000 HD
ENDBRANCH  23  26
ENDBRANCH   7  23
BRANCH   8  33
ATOM     33  C   UNL     1       0.417   9.417  23.350  0.00  0.00    +0.000 C 
ATOM     34  N   UNL     1       0.382   9.457  24.520  0.00  0.00    +0.000 NA
ENDBRANCH   8  33
TORSDOF 6
ENDMDL
MODEL 4
REMARK VINA RESULT:      -8.0      1.162      1.350
REMARK  Name = 
REMARK  7 active torsions:
REMARK  status: ('A' for Active; 'I' for Inactive)
REMARK    1  A    between atoms: C_1  and  O_2
REMARK    2  A    between atoms: O_2  and  C_3
REMARK    3  A    between atoms: C_5  and  C_6
REMARK    4  A    between atoms: C_12  and  N_13
REMARK    5  A    between atoms: C_19  and  S_20
REMARK    6  A    between atoms: S_20  and  N_23
REMARK    7  A    between atoms: C_29  and  C_30
REMARK                            x       y       z     vdW  Elec       q    Type
REMARK                         _______ _______ _______ _____ _____    ______ ____
ROOT
ATOM      1  N   UNL     1       0.861   9.149  21.160  0.00  0.00    +0.000 N 
ATOM      2  C   UNL     1       0.561   9.716  19.799  0.00  0.00    +0.000 C 
ATOM      3  C   UNL     1       0.920   9.318  18.408  0.00  0.00    +0.000 C 
ATOM      4  O   UNL     1       2.262   8.966  18.457  0.00  0.00    +0.000 OA
ATOM      5  C   UNL     1       2.128   7.854  19.240  0.00  0.00    +0.000 A 
ATOM      6  C   UNL     1       2.490   6.724  18.501  0.00  0.00    +0.000 A 
ATOM      7  C   UNL     1       2.331   5.451  18.986  0.00  0.00    +0.000 A 
ATOM      8  C   UNL     1       1.867   5.335  20.326  0.00  0.00    +0.000 A 
ATOM      9  C   UNL     1       1.427   6.554  21.061  0.00  0.00    +0.000 A 
ATOM     10  C   UNL     1       1.468   7.878  20.497  0.00  0.00    +0.000 A 
ENDROOT
BRANCH   1  16
ATOM     11  C   UNL     1       0.652  12.069  21.170  0.00  0.00    +0.000 A 
ATOM     12  C   UNL     1       0.042  13.253  21.605  0.00  0.00    +0.000 A 
ATOM     13  C   UNL     1      -0.871  13.250  22.633  0.00  0.00    +0.000 A 
ATOM     14  C   UNL     1      -1.360  11.983  23.040  0.00  0.00    +0.000 A 
ATOM     15  C   UNL     1      -0.886  10.721  22.490  0.00  0.00    +0.000 A 
ATOM     16  C   UNL     1       0.198  10.671  21.570  0.00  0.00    +0.000 A 
BRANCH  13  17
ATOM     17  C   UNL     1      -1.161  14.610  23.260  0.00  0.00    +0.000 C 
ATOM     18  F   UNL     1      -0.264  15.575  22.861  0.00  0.00    +0.000 F 
ATOM     19  F   UNL     1      -2.381  15.119  22.946  0.00  0.00    +0.000 F 
ATOM     20  F   UNL     1      -1.071  14.610  24.617  0.00  0.00    +0.000 F 
ENDBRANCH  13  17
BRANCH  11  22
ATOM     21  C   UNL     1       2.411  13.646  20.747  0.00  0.00    +0.000 C 
ATOM     22  O   UNL     1       1.789  12.383  20.417  0.00  0.00    +0.000 OA
ENDBRANCH  11  22
ENDBRANCH   1  16
BRANCH   7  23
ATOM     23  S   UNL     1       3.037   4.222  17.865  0.00  0.00    +0.000 S 
ATOM     24  O   UNL     1       4.152   3.612  18.572  0.00  0.00    +0.000 OA
ATOM     25  O   UNL     1       1.970   3.386  17.376  0.00  0.00    +0.000 OA
BRANCH  23  26
ATOM     26  N   UNL     1       3.746   4.940  16.500  0.00  0.00    +0.000 N 
ATOM     27  C   UNL     1       5.148   4.975  16.497  0.00  0.00    +0.000 A 
ATOM     28  N   UNL     1       5.730   6.065  16.913  0.00  0.00    +0.000 NA
ATOM     29  C   UNL     1       7.096   5.908  16.816  0.00  0.00    +0.000 A 
ATOM     30  C   UNL     1       7.518   4.717  16.262  0.00  0.00    +0.000 A 
ATOM     31  S   UNL     1       6.152   3.769  15.832  0.00  0.00    +0.000 S 
ATOM     32  H   UNL     1       3.444   5.919  16.538  0.00  0.00    +0.000 HD
ENDBRANCH  23  26
ENDBRANCH   7  23
BRANCH   8  33
ATOM     33  C   UNL     1       1.759   4.039  20.967  0.00  0.00    +0.000 C 
ATOM     34  N   UNL     1       1.640   2.969  21.427  0.00  0.00    +0.000 NA
ENDBRANCH   8  33
TORSDOF 6
ENDMDL
MODEL 5
REMARK VINA RESULT:      -8.0      1.876      2.259
REMARK  Name = 
REMARK  7 active torsions:
REMARK  status: ('A' for Active; 'I' for Inactive)
REMARK    1  A    between atoms: C_1  and  O_2
REMARK    2  A    between atoms: O_2  and  C_3
REMARK    3  A    between atoms: C_5  and  C_6
REMARK    4  A    between atoms: C_12  and  N_13
REMARK    5  A    between atoms: C_19  and  S_20
REMARK    6  A    between atoms: S_20  and  N_23
REMARK    7  A    between atoms: C_29  and  C_30
REMARK                            x       y       z     vdW  Elec       q    Type
REMARK                         _______ _______ _______ _____ _____    ______ ____
ROOT
ATOM      1  N   UNL     1       1.177   8.931  20.367  0.00  0.00    +0.000 N 
ATOM      2  C   UNL     1       1.181   9.279  18.903  0.00  0.00    +0.000 C 
ATOM      3  C   UNL     1       1.793   8.662  17.692  0.00  0.00    +0.000 C 
ATOM      4  O   UNL     1       3.082   8.306  18.068  0.00  0.00    +0.000 OA
ATOM      5  C   UNL     1       2.744   7.334  18.967  0.00  0.00    +0.000 A 
ATOM      6  C   UNL     1       3.198   6.097  18.499  0.00  0.00    +0.000 A 
ATOM      7  C   UNL     1       2.889   4.919  19.130  0.00  0.00    +0.000 A 
ATOM      8  C   UNL     1       2.162   5.022  20.349  0.00  0.00    +0.000 A 
ATOM      9  C   UNL     1       1.637   6.347  20.784  0.00  0.00    +0.000 A 
ATOM     10  C   UNL     1       1.848   7.564  20.045  0.00  0.00    +0.000 A 
ENDROOT
BRANCH   1  16
ATOM     11  C   UNL     1      -0.777  11.030  19.776  0.00  0.00    +0.000 A 
ATOM     12  C   UNL     1      -1.199  12.364  19.838  0.00  0.00    +0.000 A 
ATOM     13  C   UNL     1      -0.352  13.363  20.256  0.00  0.00    +0.000 A 
ATOM     14  C   UNL     1       0.858  12.950  20.869  0.00  0.00    +0.000 A 
ATOM     15  C   UNL     1       1.265  11.557  20.992  0.00  0.00    +0.000 A 
ATOM     16  C   UNL     1       0.513  10.507  20.396  0.00  0.00    +0.000 A 
BRANCH  13  17
ATOM     17  C   UNL     1      -0.790  14.784  19.914  0.00  0.00    +0.000 C 
ATOM     18  F   UNL     1      -2.128  14.994  20.158  0.00  0.00    +0.000 F 
ATOM     19  F   UNL     1      -0.151  15.749  20.624  0.00  0.00    +0.000 F 
ATOM     20  F   UNL     1      -0.636  15.095  18.599  0.00  0.00    +0.000 F 
ENDBRANCH  13  17
BRANCH  11  22
ATOM     21  C   UNL     1      -2.006  10.929  17.717  0.00  0.00    +0.000 C 
ATOM     22  O   UNL     1      -1.661  10.300  18.973  0.00  0.00    +0.000 OA
ENDBRANCH  11  22
ENDBRANCH   1  16
BRANCH   7  23
ATOM     23  S   UNL     1       3.751   3.520  18.378  0.00  0.00    +0.000 S 
ATOM     24  O   UNL     1       3.874   2.507  19.413  0.00  0.00    +0.000 OA
ATOM     25  O   UNL     1       3.088   3.188  17.142  0.00  0.00    +0.000 OA
BRANCH  23  26
ATOM     26  N   UNL     1       5.355   3.904  17.973  0.00  0.00    +0.000 N 
ATOM     27  C   UNL     1       5.569   4.260  16.634  0.00  0.00    +0.000 A 
ATOM     28  N   UNL     1       5.977   3.330  15.815  0.00  0.00    +0.000 NA
ATOM     29  C   UNL     1       6.144   3.879  14.562  0.00  0.00    +0.000 A 
ATOM     30  C   UNL     1       5.921   5.237  14.475  0.00  0.00    +0.000 A 
ATOM     31  S   UNL     1       5.502   5.850  16.025  0.00  0.00    +0.000 S 
ATOM     32  H   UNL     1       5.872   3.032  18.116  0.00  0.00    +0.000 HD
ENDBRANCH  23  26
ENDBRANCH   7  23
BRANCH   8  33
ATOM     33  C   UNL     1       1.872   3.845  21.144  0.00  0.00    +0.000 C 
ATOM     34  N   UNL     1       1.651   2.932  21.843  0.00  0.00    +0.000 NA
ENDBRANCH   8  33
TORSDOF 6
ENDMDL
MODEL 6
REMARK VINA RESULT:      -8.0      1.316      1.981
REMARK  Name = 
REMARK  7 active torsions:
REMARK  status: ('A' for Active; 'I' for Inactive)
REMARK    1  A    between atoms: C_1  and  O_2
REMARK    2  A    between atoms: O_2  and  C_3
REMARK    3  A    between atoms: C_5  and  C_6
REMARK    4  A    between atoms: C_12  and  N_13
REMARK    5  A    between atoms: C_19  and  S_20
REMARK    6  A    between atoms: S_20  and  N_23
REMARK    7  A    between atoms: C_29  and  C_30
REMARK                            x       y       z     vdW  Elec       q    Type
REMARK                         _______ _______ _______ _____ _____    ______ ____
ROOT
ATOM      1  N   UNL     1       1.457   9.298  20.338  0.00  0.00    +0.000 N 
ATOM      2  C   UNL     1       1.020   9.564  18.923  0.00  0.00    +0.000 C 
ATOM      3  C   UNL     1       1.195   8.840  17.631  0.00  0.00    +0.000 C 
ATOM      4  O   UNL     1       2.518   8.420  17.617  0.00  0.00    +0.000 OA
ATOM      5  C   UNL     1       2.432   7.523  18.645  0.00  0.00    +0.000 A 
ATOM      6  C   UNL     1       2.659   6.235  18.152  0.00  0.00    +0.000 A 
ATOM      7  C   UNL     1       2.507   5.117  18.932  0.00  0.00    +0.000 A 
ATOM      8  C   UNL     1       2.202   5.336  20.305  0.00  0.00    +0.000 A 
ATOM      9  C   UNL     1       1.902   6.715  20.781  0.00  0.00    +0.000 A 
ATOM     10  C   UNL     1       1.928   7.873  19.926  0.00  0.00    +0.000 A 
ENDROOT
BRANCH   1  16
ATOM     11  C   UNL     1      -0.273  11.488  21.225  0.00  0.00    +0.000 A 
ATOM     12  C   UNL     1      -0.645  12.838  21.211  0.00  0.00    +0.000 A 
ATOM     13  C   UNL     1      -0.113  13.716  20.297  0.00  0.00    +0.000 A 
ATOM     14  C   UNL     1       1.009  13.261  19.561  0.00  0.00    +0.000 A 
ATOM     15  C   UNL     1       1.551  11.913  19.670  0.00  0.00    +0.000 A 
ATOM     16  C   UNL     1       0.910  10.914  20.454  0.00  0.00    +0.000 A 
BRANCH  13  17
ATOM     17  C   UNL     1      -0.868  15.032  20.132  0.00  0.00    +0.000 C 
ATOM     18  F   UNL     1      -0.765  15.542  18.858  0.00  0.00    +0.000 F 
ATOM     19  F   UNL     1      -2.204  14.939  20.363  0.00  0.00    +0.000 F 
ATOM     20  F   UNL     1      -0.399  16.028  20.931  0.00  0.00    +0.000 F 
ENDBRANCH  13  17
BRANCH  11  22
ATOM     21  C   UNL     1      -0.713  10.167  23.180  0.00  0.00    +0.000 C 
ATOM     22  O   UNL     1      -1.214  10.754  21.957  0.00  0.00    +0.000 OA
ENDBRANCH  11  22
ENDBRANCH   1  16
BRANCH   7  23
ATOM     23  S   UNL     1       3.024   3.623  18.057  0.00  0.00    +0.000 S 
ATOM     24  O   UNL     1       2.249   2.528  18.615  0.00  0.00    +0.000 OA
ATOM     25  O   UNL     1       2.961   3.882  16.640  0.00  0.00    +0.000 OA
BRANCH  23  26
ATOM     26  N   UNL     1       4.637   3.214  18.396  0.00  0.00    +0.000 N 
ATOM     27  C   UNL     1       5.583   4.209  18.111  0.00  0.00    +0.000 A 
ATOM     28  N   UNL     1       6.200   4.152  16.963  0.00  0.00    +0.000 NA
ATOM     29  C   UNL     1       7.094   5.198  16.883  0.00  0.00    +0.000 A 
ATOM     30  C   UNL     1       7.182   5.991  18.009  0.00  0.00    +0.000 A 
ATOM     31  S   UNL     1       6.116   5.392  19.216  0.00  0.00    +0.000 S 
ATOM     32  H   UNL     1       4.846   2.441  17.757  0.00  0.00    +0.000 HD
ENDBRANCH  23  26
ENDBRANCH   7  23
BRANCH   8  33
ATOM     33  C   UNL     1       2.119   4.228  21.235  0.00  0.00    +0.000 C 
ATOM     34  N   UNL     1       2.067   3.289  21.934  0.00  0.00    +0.000 NA
ENDBRANCH   8  33
TORSDOF 6
ENDMDL
MODEL 7
REMARK VINA RESULT:      -7.9      1.567      2.053
REMARK  Name = 
REMARK  7 active torsions:
REMARK  status: ('A' for Active; 'I' for Inactive)
REMARK    1  A    between atoms: C_1  and  O_2
REMARK    2  A    between atoms: O_2  and  C_3
REMARK    3  A    between atoms: C_5  and  C_6
REMARK    4  A    between atoms: C_12  and  N_13
REMARK    5  A    between atoms: C_19  and  S_20
REMARK    6  A    between atoms: S_20  and  N_23
REMARK    7  A    between atoms: C_29  and  C_30
REMARK                            x       y       z     vdW  Elec       q    Type
REMARK                         _______ _______ _______ _____ _____    ______ ____
ROOT
ATOM      1  N   UNL     1       1.259   9.118  20.289  0.00  0.00    +0.000 N 
ATOM      2  C   UNL     1       1.039   9.385  18.825  0.00  0.00    +0.000 C 
ATOM      3  C   UNL     1       1.446   8.690  17.571  0.00  0.00    +0.000 C 
ATOM      4  O   UNL     1       2.772   8.327  17.762  0.00  0.00    +0.000 OA
ATOM      5  C   UNL     1       2.567   7.412  18.756  0.00  0.00    +0.000 A 
ATOM      6  C   UNL     1       2.925   6.142  18.295  0.00  0.00    +0.000 A 
ATOM      7  C   UNL     1       2.704   5.007  19.032  0.00  0.00    +0.000 A 
ATOM      8  C   UNL     1       2.178   5.192  20.342  0.00  0.00    +0.000 A 
ATOM      9  C   UNL     1       1.745   6.550  20.776  0.00  0.00    +0.000 A 
ATOM     10  C   UNL     1       1.853   7.721  19.945  0.00  0.00    +0.000 A 
ENDROOT
BRANCH   1  16
ATOM     11  C   UNL     1      -0.712  11.234  19.837  0.00  0.00    +0.000 A 
ATOM     12  C   UNL     1      -1.103  12.578  19.894  0.00  0.00    +0.000 A 
ATOM     13  C   UNL     1      -0.198  13.573  20.179  0.00  0.00    +0.000 A 
ATOM     14  C   UNL     1       1.065  13.158  20.670  0.00  0.00    +0.000 A 
ATOM     15  C   UNL     1       1.459  11.761  20.801  0.00  0.00    +0.000 A 
ATOM     16  C   UNL     1       0.629  10.707  20.330  0.00  0.00    +0.000 A 
BRANCH  13  17
ATOM     17  C   UNL     1      -0.648  14.990  19.833  0.00  0.00    +0.000 C 
ATOM     18  F   UNL     1       0.068  15.949  20.512  0.00  0.00    +0.000 F 
ATOM     19  F   UNL     1      -0.507  15.314  18.522  0.00  0.00    +0.000 F 
ATOM     20  F   UNL     1      -1.943  15.241  20.164  0.00  0.00    +0.000 F 
ENDBRANCH  13  17
BRANCH  11  22
ATOM     21  C   UNL     1      -2.426  11.228  18.156  0.00  0.00    +0.000 C 
ATOM     22  O   UNL     1      -1.692  10.495  19.164  0.00  0.00    +0.000 OA
ENDBRANCH  11  22
ENDBRANCH   1  16
BRANCH   7  23
ATOM     23  S   UNL     1       3.419   3.551  18.237  0.00  0.00    +0.000 S 
ATOM     24  O   UNL     1       2.723   2.398  18.785  0.00  0.00    +0.000 OA
ATOM     25  O   UNL     1       3.416   3.764  16.811  0.00  0.00    +0.000 OA
BRANCH  23  26
ATOM     26  N   UNL     1       5.040   3.316  18.682  0.00  0.00    +0.000 N 
ATOM     27  C   UNL     1       5.925   4.330  18.292  0.00  0.00    +0.000 A 
ATOM     28  N   UNL     1       6.592   4.163  17.183  0.00  0.00    +0.000 NA
ATOM     29  C   UNL     1       7.413   5.253  16.987  0.00  0.00    +0.000 A 
ATOM     30  C   UNL     1       7.397   6.197  17.992  0.00  0.00    +0.000 A 
ATOM     31  S   UNL     1       6.326   5.691  19.237  0.00  0.00    +0.000 S 
ATOM     32  H   UNL     1       5.330   2.480  18.165  0.00  0.00    +0.000 HD
ENDBRANCH  23  26
ENDBRANCH   7  23
BRANCH   8  33
ATOM     33  C   UNL     1       2.000   4.068  21.238  0.00  0.00    +0.000 C 
ATOM     34  N   UNL     1       1.864   3.116  21.908  0.00  0.00    +0.000 NA
ENDBRANCH   8  33
TORSDOF 6
ENDMDL
MODEL 8
REMARK VINA RESULT:      -7.9      5.903     10.184
REMARK  Name = 
REMARK  7 active torsions:
REMARK  status: ('A' for Active; 'I' for Inactive)
REMARK    1  A    between atoms: C_1  and  O_2
REMARK    2  A    between atoms: O_2  and  C_3
REMARK    3  A    between atoms: C_5  and  C_6
REMARK    4  A    between atoms: C_12  and  N_13
REMARK    5  A    between atoms: C_19  and  S_20
REMARK    6  A    between atoms: S_20  and  N_23
REMARK    7  A    between atoms: C_29  and  C_30
REMARK                            x       y       z     vdW  Elec       q    Type
REMARK                         _______ _______ _______ _____ _____    ______ ____
ROOT
ATOM      1  N   UNL     1       2.344   7.417  18.966  0.00  0.00    +0.000 N 
ATOM      2  C   UNL     1       2.693   8.463  17.943  0.00  0.00    +0.000 C 
ATOM      3  C   UNL     1       2.195   9.838  17.654  0.00  0.00    +0.000 C 
ATOM      4  O   UNL     1       0.812   9.761  17.758  0.00  0.00    +0.000 OA
ATOM      5  C   UNL     1       0.746   9.513  19.100  0.00  0.00    +0.000 A 
ATOM      6  C   UNL     1       0.120  10.589  19.736  0.00  0.00    +0.000 A 
ATOM      7  C   UNL     1       0.030  10.680  21.102  0.00  0.00    +0.000 A 
ATOM      8  C   UNL     1       0.520   9.570  21.846  0.00  0.00    +0.000 A 
ATOM      9  C   UNL     1       1.241   8.472  21.142  0.00  0.00    +0.000 A 
ATOM     10  C   UNL     1       1.454   8.448  19.718  0.00  0.00    +0.000 A 
ENDROOT
BRANCH   1  16
ATOM     11  C   UNL     1       3.360   5.023  17.622  0.00  0.00    +0.000 A 
ATOM     12  C   UNL     1       4.249   4.397  16.739  0.00  0.00    +0.000 A 
ATOM     13  C   UNL     1       5.338   5.065  16.229  0.00  0.00    +0.000 A 
ATOM     14  C   UNL     1       5.365   6.469  16.421  0.00  0.00    +0.000 A 
ATOM     15  C   UNL     1       4.361   7.198  17.185  0.00  0.00    +0.000 A 
ATOM     16  C   UNL     1       3.331   6.521  17.895  0.00  0.00    +0.000 A 
BRANCH  13  17
ATOM     17  C   UNL     1       6.418   4.184  15.609  0.00  0.00    +0.000 C 
ATOM     18  F   UNL     1       7.567   4.149  16.365  0.00  0.00    +0.000 F 
ATOM     19  F   UNL     1       6.059   2.882  15.462  0.00  0.00    +0.000 F 
ATOM     20  F   UNL     1       6.834   4.618  14.388  0.00  0.00    +0.000 F 
ENDBRANCH  13  17
BRANCH  11  22
ATOM     21  C   UNL     1       3.154   3.582  19.531  0.00  0.00    +0.000 C 
ATOM     22  O   UNL     1       2.598   4.050  18.280  0.00  0.00    +0.000 OA
ENDBRANCH  11  22
ENDBRANCH   1  16
BRANCH   7  23
ATOM     23  S   UNL     1      -0.971  12.097  21.607  0.00  0.00    +0.000 S 
ATOM     24  O   UNL     1      -0.094  12.969  22.372  0.00  0.00    +0.000 OA
ATOM     25  O   UNL     1      -1.642  12.618  20.443  0.00  0.00    +0.000 OA
BRANCH  23  26
ATOM     26  N   UNL     1      -2.189  11.656  22.705  0.00  0.00    +0.000 N 
ATOM     27  C   UNL     1      -3.161  12.635  22.950  0.00  0.00    +0.000 A 
ATOM     28  N   UNL     1      -3.008  13.396  23.999  0.00  0.00    +0.000 NA
ATOM     29  C   UNL     1      -4.068  14.274  24.074  0.00  0.00    +0.000 A 
ATOM     30  C   UNL     1      -5.042  14.111  23.111  0.00  0.00    +0.000 A 
ATOM     31  S   UNL     1      -4.620  12.801  22.084  0.00  0.00    +0.000 S 
ATOM     32  H   UNL     1      -1.698  11.523  23.594  0.00  0.00    +0.000 HD
ENDBRANCH  23  26
ENDBRANCH   7  23
BRANCH   8  33
ATOM     33  C   UNL     1       0.383   9.522  23.287  0.00  0.00    +0.000 C 
ATOM     34  N   UNL     1       0.334   9.453  24.456  0.00  0.00    +0.000 NA
ENDBRANCH   8  33
TORSDOF 6
ENDMDL
MODEL 9
REMARK VINA RESULT:      -7.9      5.975      9.873
REMARK  Name = 
REMARK  7 active torsions:
REMARK  status: ('A' for Active; 'I' for Inactive)
REMARK    1  A    between atoms: C_1  and  O_2
REMARK    2  A    between atoms: O_2  and  C_3
REMARK    3  A    between atoms: C_5  and  C_6
REMARK    4  A    between atoms: C_12  and  N_13
REMARK    5  A    between atoms: C_19  and  S_20
REMARK    6  A    between atoms: S_20  and  N_23
REMARK    7  A    between atoms: C_29  and  C_30
REMARK                            x       y       z     vdW  Elec       q    Type
REMARK                         _______ _______ _______ _____ _____    ______ ____
ROOT
ATOM      1  N   UNL     1       2.322   7.403  18.983  0.00  0.00    +0.000 N 
ATOM      2  C   UNL     1       2.666   8.456  17.964  0.00  0.00    +0.000 C 
ATOM      3  C   UNL     1       2.168   9.834  17.689  0.00  0.00    +0.000 C 
ATOM      4  O   UNL     1       0.786   9.759  17.802  0.00  0.00    +0.000 OA
ATOM      5  C   UNL     1       0.729   9.502  19.143  0.00  0.00    +0.000 A 
ATOM      6  C   UNL     1       0.110  10.575  19.791  0.00  0.00    +0.000 A 
ATOM      7  C   UNL     1       0.030  10.655  21.158  0.00  0.00    +0.000 A 
ATOM      8  C   UNL     1       0.523   9.540  21.891  0.00  0.00    +0.000 A 
ATOM      9  C   UNL     1       1.236   8.445  21.174  0.00  0.00    +0.000 A 
ATOM     10  C   UNL     1       1.439   8.431  19.748  0.00  0.00    +0.000 A 
ENDROOT
BRANCH   1  16
ATOM     11  C   UNL     1       3.361   5.011  17.653  0.00  0.00    +0.000 A 
ATOM     12  C   UNL     1       4.239   4.392  16.754  0.00  0.00    +0.000 A 
ATOM     13  C   UNL     1       5.292   5.078  16.197  0.00  0.00    +0.000 A 
ATOM     14  C   UNL     1       5.286   6.487  16.360  0.00  0.00    +0.000 A 
ATOM     15  C   UNL     1       4.287   7.203  17.142  0.00  0.00    +0.000 A 
ATOM     16  C   UNL     1       3.299   6.513  17.898  0.00  0.00    +0.000 A 
BRANCH  13  17
ATOM     17  C   UNL     1       6.377   4.215  15.559  0.00  0.00    +0.000 C 
ATOM     18  F   UNL     1       7.544   4.214  16.288  0.00  0.00    +0.000 F 
ATOM     19  F   UNL     1       6.043   2.904  15.436  0.00  0.00    +0.000 F 
ATOM     20  F   UNL     1       6.753   4.645  14.324  0.00  0.00    +0.000 F 
ENDBRANCH  13  17
BRANCH  11  22
ATOM     21  C   UNL     1       3.061   3.839  19.726  0.00  0.00    +0.000 C 
ATOM     22  O   UNL     1       2.648   4.031  18.354  0.00  0.00    +0.000 OA
ENDBRANCH  11  22
ENDBRANCH   1  16
BRANCH   7  23
ATOM     23  S   UNL     1      -0.964  12.071  21.681  0.00  0.00    +0.000 S 
ATOM     24  O   UNL     1      -2.154  11.528  22.313  0.00  0.00    +0.000 OA
ATOM     25  O   UNL     1      -0.118  12.971  22.424  0.00  0.00    +0.000 OA
BRANCH  23  26
ATOM     26  N   UNL     1      -1.556  12.956  20.357  0.00  0.00    +0.000 N 
ATOM     27  C   UNL     1      -2.915  12.772  20.070  0.00  0.00    +0.000 A 
ATOM     28  N   UNL     1      -3.232  11.899  19.154  0.00  0.00    +0.000 NA
ATOM     29  C   UNL     1      -4.602  11.880  19.008  0.00  0.00    +0.000 A 
ATOM     30  C   UNL     1      -5.293  12.793  19.776  0.00  0.00    +0.000 A 
ATOM     31  S   UNL     1      -4.182  13.721  20.702  0.00  0.00    +0.000 S 
ATOM     32  H   UNL     1      -1.048  12.581  19.550  0.00  0.00    +0.000 HD
ENDBRANCH  23  26
ENDBRANCH   7  23
BRANCH   8  33
ATOM     33  C   UNL     1       0.396   9.482  23.333  0.00  0.00    +0.000 C 
ATOM     34  N   UNL     1       0.359   9.456  24.503  0.00  0.00    +0.000 NA
ENDBRANCH   8  33
TORSDOF 6
ENDMDL
