MODEL 1
REMARK VINA RESULT:      -8.1      0.000      0.000
REMARK  Name = 
REMARK  9 active torsions:
REMARK  status: ('A' for Active; 'I' for Inactive)
REMARK    1  A    between atoms: C_1  and  C_2
REMARK    2  A    between atoms: C_4  and  O_5
REMARK    3  A    between atoms: N_6  and  C_7
REMARK    4  A    between atoms: C_7  and  C_8
REMARK    5  A    between atoms: C_8  and  C_9
REMARK    6  A    between atoms: C_9  and  C_10
REMARK    7  A    between atoms: C_10  and  N_11
REMARK    8  A    between atoms: C_12  and  C_14
REMARK    9  A    between atoms: C_15  and  C_16
REMARK                            x       y       z     vdW  Elec       q    Type
REMARK                         _______ _______ _______ _____ _____    ______ ____
ROOT
ATOM      1  C   UNL     1       7.520   5.542  18.456  0.00  0.00    +0.000 C 
ENDROOT
BRANCH   1   2
ATOM      2  N   UNL     1       8.140   6.784  18.865  0.00  0.00    +0.000 N 
ATOM      3  C   UNL     1       8.034   7.921  18.101  0.00  0.00    +0.000 C 
ATOM      4  O   UNL     1       7.464   7.976  17.019  0.00  0.00    +0.000 OA
ATOM      5  H   UNL     1       8.644   6.801  19.741  0.00  0.00    +0.000 HD
BRANCH   3   6
ATOM      6  C   UNL     1       8.689   9.097  18.726  0.00  0.00    +0.000 C 
ATOM      7  C   UNL     1       8.868  10.225  18.021  0.00  0.00    +0.000 C 
BRANCH   7   8
ATOM      8  C   UNL     1       9.558  11.416  18.533  0.00  0.00    +0.000 A 
ATOM      9  C   UNL     1      10.526  11.255  19.535  0.00  0.00    +0.000 A 
ATOM     10  C   UNL     1      11.190  12.362  20.071  0.00  0.00    +0.000 A 
ATOM     11  C   UNL     1      10.904  13.642  19.603  0.00  0.00    +0.000 A 
ATOM     12  C   UNL     1       9.966  13.814  18.588  0.00  0.00    +0.000 A 
ATOM     13  C   UNL     1       9.305  12.708  18.049  0.00  0.00    +0.000 A 
ENDBRANCH   7   8
ENDBRANCH   3   6
ENDBRANCH   1   2
BRANCH   1  14
ATOM     14  C   UNL     1       6.177   5.315  19.148  0.00  0.00    +0.000 C 
BRANCH  14  15
ATOM     15  C   UNL     1       4.977   5.450  18.201  0.00  0.00    +0.000 C 
BRANCH  15  16
ATOM     16  C   UNL     1       4.388   4.103  17.786  0.00  0.00    +0.000 C 
BRANCH  16  21
ATOM     17  C   UNL     1       1.698   2.617  21.726  0.00  0.00    +0.000 C 
ATOM     18  C   UNL     1       1.994   3.247  20.426  0.00  0.00    +0.000 C 
ATOM     19  C   UNL     1       1.315   4.161  19.723  0.00  0.00    +0.000 C 
ATOM     20  C   UNL     1       2.003   4.548  18.467  0.00  0.00    +0.000 C 
ATOM     21  N   UNL     1       3.180   3.743  18.511  0.00  0.00    +0.000 N 
ATOM     22  C   UNL     1       3.233   2.984  19.671  0.00  0.00    +0.000 C 
ATOM     23  O   UNL     1       4.135   2.260  20.049  0.00  0.00    +0.000 OA
BRANCH  20  24
ATOM     24  O   UNL     1       1.227   4.127  17.376  0.00  0.00    +0.000 OA
ATOM     25  H   UNL     1       1.872   4.026  16.654  0.00  0.00    +0.000 HD
ENDBRANCH  20  24
ENDBRANCH  16  21
ENDBRANCH  15  16
ENDBRANCH  14  15
ENDBRANCH   1  14
TORSDOF 8
ENDMDL
MODEL 2
REMARK VINA RESULT:      -8.0      1.482      2.161
REMARK  Name = 
REMARK  9 active torsions:
REMARK  status: ('A' for Active; 'I' for Inactive)
REMARK    1  A    between atoms: C_1  and  C_2
REMARK    2  A    between atoms: C_4  and  O_5
REMARK    3  A    between atoms: N_6  and  C_7
REMARK    4  A    between atoms: C_7  and  C_8
REMARK    5  A    between atoms: C_8  and  C_9
REMARK    6  A    between atoms: C_9  and  C_10
REMARK    7  A    between atoms: C_10  and  N_11
REMARK    8  A    between atoms: C_12  and  C_14
REMARK    9  A    between atoms: C_15  and  C_16
REMARK                            x       y       z     vdW  Elec       q    Type
REMARK                         _______ _______ _______ _____ _____    ______ ____
ROOT
ATOM      1  C   UNL     1       6.673   5.776  16.504  0.00  0.00    +0.000 C 
ENDROOT
BRANCH   1   2
ATOM      2  N   UNL     1       7.082   7.142  16.747  0.00  0.00    +0.000 N 
ATOM      3  C   UNL     1       7.785   7.488  17.877  0.00  0.00    +0.000 C 
ATOM      4  O   UNL     1       8.080   6.707  18.773  0.00  0.00    +0.000 OA
ATOM      5  H   UNL     1       6.851   7.841  16.055  0.00  0.00    +0.000 HD
BRANCH   3   6
ATOM      6  C   UNL     1       8.157   8.924  17.906  0.00  0.00    +0.000 C 
ATOM      7  C   UNL     1       8.966   9.393  18.869  0.00  0.00    +0.000 C 
BRANCH   7   8
ATOM      8  C   UNL     1       9.340  10.805  19.015  0.00  0.00    +0.000 A 
ATOM      9  C   UNL     1       9.876  11.236  20.237  0.00  0.00    +0.000 A 
ATOM     10  C   UNL     1      10.223  12.577  20.431  0.00  0.00    +0.000 A 
ATOM     11  C   UNL     1      10.049  13.500  19.403  0.00  0.00    +0.000 A 
ATOM     12  C   UNL     1       9.544  13.079  18.175  0.00  0.00    +0.000 A 
ATOM     13  C   UNL     1       9.201  11.740  17.979  0.00  0.00    +0.000 A 
ENDBRANCH   7   8
ENDBRANCH   3   6
ENDBRANCH   1   2
BRANCH   1  14
ATOM     14  C   UNL     1       5.159   5.650  16.337  0.00  0.00    +0.000 C 
BRANCH  14  15
ATOM     15  C   UNL     1       4.371   6.195  17.535  0.00  0.00    +0.000 C 
BRANCH  15  16
ATOM     16  C   UNL     1       4.700   5.478  18.843  0.00  0.00    +0.000 C 
BRANCH  16  21
ATOM     17  C   UNL     1       0.644   2.560  18.839  0.00  0.00    +0.000 C 
ATOM     18  C   UNL     1       2.073   2.922  18.826  0.00  0.00    +0.000 C 
ATOM     19  C   UNL     1       3.152   2.213  18.473  0.00  0.00    +0.000 C 
ATOM     20  C   UNL     1       4.411   2.989  18.580  0.00  0.00    +0.000 C 
ATOM     21  N   UNL     1       3.943   4.253  19.048  0.00  0.00    +0.000 N 
ATOM     22  C   UNL     1       2.562   4.270  19.173  0.00  0.00    +0.000 C 
ATOM     23  O   UNL     1       1.850   5.210  19.468  0.00  0.00    +0.000 OA
BRANCH  20  24
ATOM     24  O   UNL     1       5.210   2.420  19.585  0.00  0.00    +0.000 OA
ATOM     25  H   UNL     1       5.751   1.765  19.111  0.00  0.00    +0.000 HD
ENDBRANCH  20  24
ENDBRANCH  16  21
ENDBRANCH  15  16
ENDBRANCH  14  15
ENDBRANCH   1  14
TORSDOF 8
ENDMDL
MODEL 3
REMARK VINA RESULT:      -7.9      1.617      2.221
REMARK  Name = 
REMARK  9 active torsions:
REMARK  status: ('A' for Active; 'I' for Inactive)
REMARK    1  A    between atoms: C_1  and  C_2
REMARK    2  A    between atoms: C_4  and  O_5
REMARK    3  A    between atoms: N_6  and  C_7
REMARK    4  A    between atoms: C_7  and  C_8
REMARK    5  A    between atoms: C_8  and  C_9
REMARK    6  A    between atoms: C_9  and  C_10
REMARK    7  A    between atoms: C_10  and  N_11
REMARK    8  A    between atoms: C_12  and  C_14
REMARK    9  A    between atoms: C_15  and  C_16
REMARK                            x       y       z     vdW  Elec       q    Type
REMARK                         _______ _______ _______ _____ _____    ______ ____
ROOT
ATOM      1  C   UNL     1       6.821   5.640  16.263  0.00  0.00    +0.000 C 
ENDROOT
BRANCH   1   2
ATOM      2  N   UNL     1       7.549   6.683  16.952  0.00  0.00    +0.000 N 
ATOM      3  C   UNL     1       7.670   6.685  18.321  0.00  0.00    +0.000 C 
ATOM      4  O   UNL     1       7.153   5.858  19.062  0.00  0.00    +0.000 OA
ATOM      5  H   UNL     1       7.983   7.409  16.400  0.00  0.00    +0.000 HD
BRANCH   3   6
ATOM      6  C   UNL     1       8.503   7.806  18.823  0.00  0.00    +0.000 C 
ATOM      7  C   UNL     1       8.347   9.041  18.322  0.00  0.00    +0.000 C 
BRANCH   7   8
ATOM      8  C   UNL     1       9.163  10.198  18.711  0.00  0.00    +0.000 A 
ATOM      9  C   UNL     1       9.741  10.984  17.704  0.00  0.00    +0.000 A 
ATOM     10  C   UNL     1      10.548  12.079  18.027  0.00  0.00    +0.000 A 
ATOM     11  C   UNL     1      10.776  12.409  19.361  0.00  0.00    +0.000 A 
ATOM     12  C   UNL     1      10.185  11.654  20.371  0.00  0.00    +0.000 A 
ATOM     13  C   UNL     1       9.376  10.562  20.049  0.00  0.00    +0.000 A 
ENDBRANCH   7   8
ENDBRANCH   3   6
ENDBRANCH   1   2
BRANCH   1  14
ATOM     14  C   UNL     1       5.337   5.977  16.114  0.00  0.00    +0.000 C 
BRANCH  14  15
ATOM     15  C   UNL     1       4.411   4.822  16.519  0.00  0.00    +0.000 C 
BRANCH  15  16
ATOM     16  C   UNL     1       5.050   3.867  17.525  0.00  0.00    +0.000 C 
BRANCH  16  21
ATOM     17  C   UNL     1       1.172   3.612  20.666  0.00  0.00    +0.000 C 
ATOM     18  C   UNL     1       2.175   3.157  19.685  0.00  0.00    +0.000 C 
ATOM     19  C   UNL     1       2.195   2.082  18.889  0.00  0.00    +0.000 C 
ATOM     20  C   UNL     1       3.396   2.031  18.021  0.00  0.00    +0.000 C 
ATOM     21  N   UNL     1       4.092   3.215  18.405  0.00  0.00    +0.000 N 
ATOM     22  C   UNL     1       3.388   3.931  19.361  0.00  0.00    +0.000 C 
ATOM     23  O   UNL     1       3.665   5.017  19.836  0.00  0.00    +0.000 OA
BRANCH  20  24
ATOM     24  O   UNL     1       4.178   0.926  18.392  0.00  0.00    +0.000 OA
ATOM     25  H   UNL     1       3.818   0.195  17.859  0.00  0.00    +0.000 HD
ENDBRANCH  20  24
ENDBRANCH  16  21
ENDBRANCH  15  16
ENDBRANCH  14  15
ENDBRANCH   1  14
TORSDOF 8
ENDMDL
MODEL 4
REMARK VINA RESULT:      -7.8      1.430      1.953
REMARK  Name = 
REMARK  9 active torsions:
REMARK  status: ('A' for Active; 'I' for Inactive)
REMARK    1  A    between atoms: C_1  and  C_2
REMARK    2  A    between atoms: C_4  and  O_5
REMARK    3  A    between atoms: N_6  and  C_7
REMARK    4  A    between atoms: C_7  and  C_8
REMARK    5  A    between atoms: C_8  and  C_9
REMARK    6  A    between atoms: C_9  and  C_10
REMARK    7  A    between atoms: C_10  and  N_11
REMARK    8  A    between atoms: C_12  and  C_14
REMARK    9  A    between atoms: C_15  and  C_16
REMARK                            x       y       z     vdW  Elec       q    Type
REMARK                         _______ _______ _______ _____ _____    ______ ____
ROOT
ATOM      1  C   UNL     1       5.785   5.235  17.840  0.00  0.00    +0.000 C 
ENDROOT
BRANCH   1   2
ATOM      2  N   UNL     1       6.672   6.223  18.416  0.00  0.00    +0.000 N 
ATOM      3  C   UNL     1       7.516   6.970  17.630  0.00  0.00    +0.000 C 
ATOM      4  O   UNL     1       7.625   6.842  16.417  0.00  0.00    +0.000 OA
ATOM      5  H   UNL     1       6.646   6.364  19.416  0.00  0.00    +0.000 HD
BRANCH   3   6
ATOM      6  C   UNL     1       8.295   7.965  18.407  0.00  0.00    +0.000 C 
ATOM      7  C   UNL     1       8.355   9.243  18.001  0.00  0.00    +0.000 C 
BRANCH   7   8
ATOM      8  C   UNL     1       9.148  10.284  18.669  0.00  0.00    +0.000 A 
ATOM      9  C   UNL     1       9.890  11.174  17.880  0.00  0.00    +0.000 A 
ATOM     10  C   UNL     1      10.680  12.165  18.472  0.00  0.00    +0.000 A 
ATOM     11  C   UNL     1      10.728  12.284  19.859  0.00  0.00    +0.000 A 
ATOM     12  C   UNL     1       9.973  11.424  20.653  0.00  0.00    +0.000 A 
ATOM     13  C   UNL     1       9.181  10.437  20.063  0.00  0.00    +0.000 A 
ENDBRANCH   7   8
ENDBRANCH   3   6
ENDBRANCH   1   2
BRANCH   1  14
ATOM     14  C   UNL     1       4.602   5.877  17.116  0.00  0.00    +0.000 C 
BRANCH  14  15
ATOM     15  C   UNL     1       3.577   6.503  18.070  0.00  0.00    +0.000 C 
BRANCH  15  16
ATOM     16  C   UNL     1       2.237   5.769  18.075  0.00  0.00    +0.000 C 
BRANCH  16  21
ATOM     17  C   UNL     1       1.320   2.550  21.785  0.00  0.00    +0.000 C 
ATOM     18  C   UNL     1       1.635   3.020  20.423  0.00  0.00    +0.000 C 
ATOM     19  C   UNL     1       1.547   2.399  19.241  0.00  0.00    +0.000 C 
ATOM     20  C   UNL     1       1.936   3.267  18.104  0.00  0.00    +0.000 C 
ATOM     21  N   UNL     1       2.272   4.488  18.762  0.00  0.00    +0.000 N 
ATOM     22  C   UNL     1       2.073   4.398  20.132  0.00  0.00    +0.000 C 
ATOM     23  O   UNL     1       2.187   5.279  20.963  0.00  0.00    +0.000 OA
BRANCH  20  24
ATOM     24  O   UNL     1       3.103   2.753  17.518  0.00  0.00    +0.000 OA
ATOM     25  H   UNL     1       3.528   3.532  17.119  0.00  0.00    +0.000 HD
ENDBRANCH  20  24
ENDBRANCH  16  21
ENDBRANCH  15  16
ENDBRANCH  14  15
ENDBRANCH   1  14
TORSDOF 8
ENDMDL
MODEL 5
REMARK VINA RESULT:      -7.7      1.561      2.057
REMARK  Name = 
REMARK  9 active torsions:
REMARK  status: ('A' for Active; 'I' for Inactive)
REMARK    1  A    between atoms: C_1  and  C_2
REMARK    2  A    between atoms: C_4  and  O_5
REMARK    3  A    between atoms: N_6  and  C_7
REMARK    4  A    between atoms: C_7  and  C_8
REMARK    5  A    between atoms: C_8  and  C_9
REMARK    6  A    between atoms: C_9  and  C_10
REMARK    7  A    between atoms: C_10  and  N_11
REMARK    8  A    between atoms: C_12  and  C_14
REMARK    9  A    between atoms: C_15  and  C_16
REMARK                            x       y       z     vdW  Elec       q    Type
REMARK                         _______ _______ _______ _____ _____    ______ ____
ROOT
ATOM      1  C   UNL     1       6.368   6.205  16.739  0.00  0.00    +0.000 C 
ENDROOT
BRANCH   1   2
ATOM      2  N   UNL     1       6.899   7.533  16.956  0.00  0.00    +0.000 N 
ATOM      3  C   UNL     1       7.833   7.778  17.935  0.00  0.00    +0.000 C 
ATOM      4  O   UNL     1       8.253   6.933  18.716  0.00  0.00    +0.000 OA
ATOM      5  H   UNL     1       6.578   8.281  16.358  0.00  0.00    +0.000 HD
BRANCH   3   6
ATOM      6  C   UNL     1       8.290   9.189  17.953  0.00  0.00    +0.000 C 
ATOM      7  C   UNL     1       9.158   9.606  18.889  0.00  0.00    +0.000 C 
BRANCH   7   8
ATOM      8  C   UNL     1       9.620  10.994  19.024  0.00  0.00    +0.000 A 
ATOM      9  C   UNL     1      10.385  11.552  17.990  0.00  0.00    +0.000 A 
ATOM     10  C   UNL     1      10.868  12.861  18.086  0.00  0.00    +0.000 A 
ATOM     11  C   UNL     1      10.582  13.630  19.211  0.00  0.00    +0.000 A 
ATOM     12  C   UNL     1       9.800  13.097  20.233  0.00  0.00    +0.000 A 
ATOM     13  C   UNL     1       9.313  11.792  20.136  0.00  0.00    +0.000 A 
ENDBRANCH   7   8
ENDBRANCH   3   6
ENDBRANCH   1   2
BRANCH   1  14
ATOM     14  C   UNL     1       4.858   6.222  16.500  0.00  0.00    +0.000 C 
BRANCH  14  15
ATOM     15  C   UNL     1       4.047   6.502  17.773  0.00  0.00    +0.000 C 
BRANCH  15  16
ATOM     16  C   UNL     1       2.875   5.539  17.959  0.00  0.00    +0.000 C 
BRANCH  16  21
ATOM     17  C   UNL     1       1.761   2.598  21.842  0.00  0.00    +0.000 C 
ATOM     18  C   UNL     1       2.451   3.056  20.621  0.00  0.00    +0.000 C 
ATOM     19  C   UNL     1       3.198   2.387  19.736  0.00  0.00    +0.000 C 
ATOM     20  C   UNL     1       3.673   3.243  18.621  0.00  0.00    +0.000 C 
ATOM     21  N   UNL     1       3.114   4.511  18.959  0.00  0.00    +0.000 N 
ATOM     22  C   UNL     1       2.353   4.438  20.116  0.00  0.00    +0.000 C 
ATOM     23  O   UNL     1       1.682   5.316  20.626  0.00  0.00    +0.000 OA
BRANCH  20  24
ATOM     24  O   UNL     1       5.071   3.348  18.694  0.00  0.00    +0.000 OA
ATOM     25  H   UNL     1       5.232   4.307  18.732  0.00  0.00    +0.000 HD
ENDBRANCH  20  24
ENDBRANCH  16  21
ENDBRANCH  15  16
ENDBRANCH  14  15
ENDBRANCH   1  14
TORSDOF 8
ENDMDL
MODEL 6
REMARK VINA RESULT:      -7.6      1.466      1.999
REMARK  Name = 
REMARK  9 active torsions:
REMARK  status: ('A' for Active; 'I' for Inactive)
REMARK    1  A    between atoms: C_1  and  C_2
REMARK    2  A    between atoms: C_4  and  O_5
REMARK    3  A    between atoms: N_6  and  C_7
REMARK    4  A    between atoms: C_7  and  C_8
REMARK    5  A    between atoms: C_8  and  C_9
REMARK    6  A    between atoms: C_9  and  C_10
REMARK    7  A    between atoms: C_10  and  N_11
REMARK    8  A    between atoms: C_12  and  C_14
REMARK    9  A    between atoms: C_15  and  C_16
REMARK                            x       y       z     vdW  Elec       q    Type
REMARK                         _______ _______ _______ _____ _____    ______ ____
ROOT
ATOM      1  C   UNL     1       6.613   4.756  17.932  0.00  0.00    +0.000 C 
ENDROOT
BRANCH   1   2
ATOM      2  N   UNL     1       7.222   5.949  18.480  0.00  0.00    +0.000 N 
ATOM      3  C   UNL     1       7.733   6.930  17.663  0.00  0.00    +0.000 C 
ATOM      4  O   UNL     1       7.761   6.866  16.441  0.00  0.00    +0.000 OA
ATOM      5  H   UNL     1       7.250   6.055  19.484  0.00  0.00    +0.000 HD
BRANCH   3   6
ATOM      6  C   UNL     1       8.257   8.094  18.420  0.00  0.00    +0.000 C 
ATOM      7  C   UNL     1       8.341   9.299  17.835  0.00  0.00    +0.000 C 
BRANCH   7   8
ATOM      8  C   UNL     1       8.901  10.492  18.482  0.00  0.00    +0.000 A 
ATOM      9  C   UNL     1       9.533  10.349  19.725  0.00  0.00    +0.000 A 
ATOM     10  C   UNL     1      10.058  11.461  20.391  0.00  0.00    +0.000 A 
ATOM     11  C   UNL     1       9.968  12.726  19.817  0.00  0.00    +0.000 A 
ATOM     12  C   UNL     1       9.368  12.878  18.569  0.00  0.00    +0.000 A 
ATOM     13  C   UNL     1       8.847  11.767  17.902  0.00  0.00    +0.000 A 
ENDBRANCH   7   8
ENDBRANCH   3   6
ENDBRANCH   1   2
BRANCH   1  14
ATOM     14  C   UNL     1       5.161   4.991  17.519  0.00  0.00    +0.000 C 
BRANCH  14  15
ATOM     15  C   UNL     1       4.512   6.181  18.236  0.00  0.00    +0.000 C 
BRANCH  15  16
ATOM     16  C   UNL     1       3.002   6.265  18.012  0.00  0.00    +0.000 C 
BRANCH  16  21
ATOM     17  C   UNL     1       0.633   2.022  19.174  0.00  0.00    +0.000 C 
ATOM     18  C   UNL     1       1.337   3.301  19.382  0.00  0.00    +0.000 C 
ATOM     19  C   UNL     1       1.958   3.792  20.460  0.00  0.00    +0.000 C 
ATOM     20  C   UNL     1       2.573   5.120  20.215  0.00  0.00    +0.000 C 
ATOM     21  N   UNL     1       2.234   5.358  18.850  0.00  0.00    +0.000 N 
ATOM     22  C   UNL     1       1.534   4.291  18.306  0.00  0.00    +0.000 C 
ATOM     23  O   UNL     1       1.171   4.145  17.154  0.00  0.00    +0.000 OA
BRANCH  20  24
ATOM     24  O   UNL     1       1.913   6.077  21.002  0.00  0.00    +0.000 OA
ATOM     25  H   UNL     1       2.603   6.396  21.610  0.00  0.00    +0.000 HD
ENDBRANCH  20  24
ENDBRANCH  16  21
ENDBRANCH  15  16
ENDBRANCH  14  15
ENDBRANCH   1  14
TORSDOF 8
ENDMDL
MODEL 7
REMARK VINA RESULT:      -7.5      1.557      2.421
REMARK  Name = 
REMARK  9 active torsions:
REMARK  status: ('A' for Active; 'I' for Inactive)
REMARK    1  A    between atoms: C_1  and  C_2
REMARK    2  A    between atoms: C_4  and  O_5
REMARK    3  A    between atoms: N_6  and  C_7
REMARK    4  A    between atoms: C_7  and  C_8
REMARK    5  A    between atoms: C_8  and  C_9
REMARK    6  A    between atoms: C_9  and  C_10
REMARK    7  A    between atoms: C_10  and  N_11
REMARK    8  A    between atoms: C_12  and  C_14
REMARK    9  A    between atoms: C_15  and  C_16
REMARK                            x       y       z     vdW  Elec       q    Type
REMARK                         _______ _______ _______ _____ _____    ______ ____
ROOT
ATOM      1  C   UNL     1       6.827   5.413  15.967  0.00  0.00    +0.000 C 
ENDROOT
BRANCH   1   2
ATOM      2  N   UNL     1       7.644   6.315  16.750  0.00  0.00    +0.000 N 
ATOM      3  C   UNL     1       7.144   7.506  17.219  0.00  0.00    +0.000 C 
ATOM      4  O   UNL     1       6.016   7.922  16.987  0.00  0.00    +0.000 OA
ATOM      5  H   UNL     1       8.593   6.041  16.960  0.00  0.00    +0.000 HD
BRANCH   3   6
ATOM      6  C   UNL     1       8.122   8.254  18.048  0.00  0.00    +0.000 C 
ATOM      7  C   UNL     1       8.276   9.577  17.883  0.00  0.00    +0.000 C 
BRANCH   7   8
ATOM      8  C   UNL     1       9.258  10.390  18.612  0.00  0.00    +0.000 A 
ATOM      9  C   UNL     1      10.262  11.045  17.884  0.00  0.00    +0.000 A 
ATOM     10  C   UNL     1      11.234  11.809  18.537  0.00  0.00    +0.000 A 
ATOM     11  C   UNL     1      11.207  11.936  19.924  0.00  0.00    +0.000 A 
ATOM     12  C   UNL     1      10.199  11.314  20.656  0.00  0.00    +0.000 A 
ATOM     13  C   UNL     1       9.225  10.554  20.004  0.00  0.00    +0.000 A 
ENDBRANCH   7   8
ENDBRANCH   3   6
ENDBRANCH   1   2
BRANCH   1  14
ATOM     14  C   UNL     1       6.066   4.419  16.844  0.00  0.00    +0.000 C 
BRANCH  14  15
ATOM     15  C   UNL     1       6.363   4.582  18.341  0.00  0.00    +0.000 C 
BRANCH  15  16
ATOM     16  C   UNL     1       5.132   4.974  19.156  0.00  0.00    +0.000 C 
BRANCH  16  21
ATOM     17  C   UNL     1       0.765   2.572  18.798  0.00  0.00    +0.000 C 
ATOM     18  C   UNL     1       2.216   2.760  18.983  0.00  0.00    +0.000 C 
ATOM     19  C   UNL     1       3.229   1.891  18.895  0.00  0.00    +0.000 C 
ATOM     20  C   UNL     1       4.551   2.522  19.124  0.00  0.00    +0.000 C 
ATOM     21  N   UNL     1       4.194   3.883  19.365  0.00  0.00    +0.000 N 
ATOM     22  C   UNL     1       2.825   4.076  19.256  0.00  0.00    +0.000 C 
ATOM     23  O   UNL     1       2.211   5.124  19.323  0.00  0.00    +0.000 OA
BRANCH  20  24
ATOM     24  O   UNL     1       5.104   2.001  20.304  0.00  0.00    +0.000 OA
ATOM     25  H   UNL     1       5.832   2.612  20.512  0.00  0.00    +0.000 HD
ENDBRANCH  20  24
ENDBRANCH  16  21
ENDBRANCH  15  16
ENDBRANCH  14  15
ENDBRANCH   1  14
TORSDOF 8
ENDMDL
MODEL 8
REMARK VINA RESULT:      -7.5      1.642      2.054
REMARK  Name = 
REMARK  9 active torsions:
REMARK  status: ('A' for Active; 'I' for Inactive)
REMARK    1  A    between atoms: C_1  and  C_2
REMARK    2  A    between atoms: C_4  and  O_5
REMARK    3  A    between atoms: N_6  and  C_7
REMARK    4  A    between atoms: C_7  and  C_8
REMARK    5  A    between atoms: C_8  and  C_9
REMARK    6  A    between atoms: C_9  and  C_10
REMARK    7  A    between atoms: C_10  and  N_11
REMARK    8  A    between atoms: C_12  and  C_14
REMARK    9  A    between atoms: C_15  and  C_16
REMARK                            x       y       z     vdW  Elec       q    Type
REMARK                         _______ _______ _______ _____ _____    ______ ____
ROOT
ATOM      1  C   UNL     1       6.995   5.556  16.001  0.00  0.00    +0.000 C 
ENDROOT
BRANCH   1   2
ATOM      2  N   UNL     1       7.801   6.476  16.774  0.00  0.00    +0.000 N 
ATOM      3  C   UNL     1       7.275   7.648  17.265  0.00  0.00    +0.000 C 
ATOM      4  O   UNL     1       6.130   8.030  17.061  0.00  0.00    +0.000 OA
ATOM      5  H   UNL     1       8.762   6.230  16.962  0.00  0.00    +0.000 HD
BRANCH   3   6
ATOM      6  C   UNL     1       8.248   8.418  18.079  0.00  0.00    +0.000 C 
ATOM      7  C   UNL     1       8.386   9.740  17.895  0.00  0.00    +0.000 C 
BRANCH   7   8
ATOM      8  C   UNL     1       9.362  10.574  18.608  0.00  0.00    +0.000 A 
ATOM      9  C   UNL     1      10.336  11.256  17.865  0.00  0.00    +0.000 A 
ATOM     10  C   UNL     1      11.302  12.041  18.502  0.00  0.00    +0.000 A 
ATOM     11  C   UNL     1      11.298  12.162  19.890  0.00  0.00    +0.000 A 
ATOM     12  C   UNL     1      10.319  11.514  20.638  0.00  0.00    +0.000 A 
ATOM     13  C   UNL     1       9.352  10.733  20.002  0.00  0.00    +0.000 A 
ENDBRANCH   7   8
ENDBRANCH   3   6
ENDBRANCH   1   2
BRANCH   1  14
ATOM     14  C   UNL     1       6.425   4.428  16.861  0.00  0.00    +0.000 C 
BRANCH  14  15
ATOM     15  C   UNL     1       6.818   4.538  18.340  0.00  0.00    +0.000 C 
BRANCH  15  16
ATOM     16  C   UNL     1       5.655   4.953  19.239  0.00  0.00    +0.000 C 
BRANCH  16  21
ATOM     17  C   UNL     1       1.158   2.912  18.477  0.00  0.00    +0.000 C 
ATOM     18  C   UNL     1       2.220   3.936  18.465  0.00  0.00    +0.000 C 
ATOM     19  C   UNL     1       2.152   5.265  18.329  0.00  0.00    +0.000 C 
ATOM     20  C   UNL     1       3.479   5.921  18.414  0.00  0.00    +0.000 C 
ATOM     21  N   UNL     1       4.350   4.808  18.615  0.00  0.00    +0.000 N 
ATOM     22  C   UNL     1       3.643   3.617  18.688  0.00  0.00    +0.000 C 
ATOM     23  O   UNL     1       4.075   2.506  18.931  0.00  0.00    +0.000 OA
BRANCH  20  24
ATOM     24  O   UNL     1       3.783   6.493  17.169  0.00  0.00    +0.000 OA
ATOM     25  H   UNL     1       3.158   7.234  17.092  0.00  0.00    +0.000 HD
ENDBRANCH  20  24
ENDBRANCH  16  21
ENDBRANCH  15  16
ENDBRANCH  14  15
ENDBRANCH   1  14
TORSDOF 8
ENDMDL
MODEL 9
REMARK VINA RESULT:      -7.4      1.507      1.757
REMARK  Name = 
REMARK  9 active torsions:
REMARK  status: ('A' for Active; 'I' for Inactive)
REMARK    1  A    between atoms: C_1  and  C_2
REMARK    2  A    between atoms: C_4  and  O_5
REMARK    3  A    between atoms: N_6  and  C_7
REMARK    4  A    between atoms: C_7  and  C_8
REMARK    5  A    between atoms: C_8  and  C_9
REMARK    6  A    between atoms: C_9  and  C_10
REMARK    7  A    between atoms: C_10  and  N_11
REMARK    8  A    between atoms: C_12  and  C_14
REMARK    9  A    between atoms: C_15  and  C_16
REMARK                            x       y       z     vdW  Elec       q    Type
REMARK                         _______ _______ _______ _____ _____    ______ ____
ROOT
ATOM      1  C   UNL     1       6.957   5.939  16.622  0.00  0.00    +0.000 C 
ENDROOT
BRANCH   1   2
ATOM      2  N   UNL     1       7.279   7.325  16.885  0.00  0.00    +0.000 N 
ATOM      3  C   UNL     1       7.965   7.697  18.017  0.00  0.00    +0.000 C 
ATOM      4  O   UNL     1       8.315   6.922  18.898  0.00  0.00    +0.000 OA
ATOM      5  H   UNL     1       7.000   8.018  16.206  0.00  0.00    +0.000 HD
BRANCH   3   6
ATOM      6  C   UNL     1       8.245   9.153  18.068  0.00  0.00    +0.000 C 
ATOM      7  C   UNL     1       9.193   9.630  18.888  0.00  0.00    +0.000 C 
BRANCH   7   8
ATOM      8  C   UNL     1       9.499  11.057  19.052  0.00  0.00    +0.000 A 
ATOM      9  C   UNL     1       9.309  11.647  20.310  0.00  0.00    +0.000 A 
ATOM     10  C   UNL     1       9.563  13.008  20.507  0.00  0.00    +0.000 A 
ATOM     11  C   UNL     1      10.020  13.793  19.451  0.00  0.00    +0.000 A 
ATOM     12  C   UNL     1      10.240  13.214  18.204  0.00  0.00    +0.000 A 
ATOM     13  C   UNL     1       9.991  11.854  18.007  0.00  0.00    +0.000 A 
ENDBRANCH   7   8
ENDBRANCH   3   6
ENDBRANCH   1   2
BRANCH   1  14
ATOM     14  C   UNL     1       5.744   5.469  17.424  0.00  0.00    +0.000 C 
BRANCH  14  15
ATOM     15  C   UNL     1       4.922   4.392  16.703  0.00  0.00    +0.000 C 
BRANCH  15  16
ATOM     16  C   UNL     1       3.463   4.351  17.155  0.00  0.00    +0.000 C 
BRANCH  16  21
ATOM     17  C   UNL     1       1.720   3.108  21.670  0.00  0.00    +0.000 C 
ATOM     18  C   UNL     1       2.218   2.926  20.294  0.00  0.00    +0.000 C 
ATOM     19  C   UNL     1       2.123   1.884  19.460  0.00  0.00    +0.000 C 
ATOM     20  C   UNL     1       2.744   2.145  18.139  0.00  0.00    +0.000 C 
ATOM     21  N   UNL     1       3.226   3.479  18.295  0.00  0.00    +0.000 N 
ATOM     22  C   UNL     1       2.905   3.993  19.542  0.00  0.00    +0.000 C 
ATOM     23  O   UNL     1       3.098   5.120  19.958  0.00  0.00    +0.000 OA
BRANCH  20  24
ATOM     24  O   UNL     1       3.851   1.297  17.982  0.00  0.00    +0.000 OA
ATOM     25  H   UNL     1       4.359   1.705  17.259  0.00  0.00    +0.000 HD
ENDBRANCH  20  24
ENDBRANCH  16  21
ENDBRANCH  15  16
ENDBRANCH  14  15
ENDBRANCH   1  14
TORSDOF 8
ENDMDL
