MODEL 1
REMARK VINA RESULT:      -8.4      0.000      0.000
REMARK  Name = 
REMARK  6 active torsions:
REMARK  status: ('A' for Active; 'I' for Inactive)
REMARK    1  A    between atoms: C_1  and  C_2
REMARK    2  A    between atoms: C_2  and  N_3
REMARK    3  A    between atoms: C_4  and  C_6
REMARK    4  A    between atoms: C_6  and  C_7
REMARK    5  A    between atoms: N_11  and  C_12
REMARK    6  A    between atoms: C_12  and  C_13
REMARK                            x       y       z     vdW  Elec       q    Type
REMARK                         _______ _______ _______ _____ _____    ______ ____
ROOT
ATOM      1  C   UNL     1       4.790   6.965  17.670  0.00  0.00    +0.000 C 
ENDROOT
BRANCH   1   2
ATOM      2  C   UNL     1       3.955   5.808  18.203  0.00  0.00    +0.000 A 
ATOM      3  N   UNL     1       3.702   5.677  19.469  0.00  0.00    +0.000 NA
ATOM      4  C   UNL     1       2.857   4.621  19.865  0.00  0.00    +0.000 A 
ATOM      5  C   UNL     1       2.644   4.376  21.222  0.00  0.00    +0.000 A 
ATOM      6  C   UNL     1       1.743   3.386  21.637  0.00  0.00    +0.000 A 
ATOM      7  C   UNL     1       1.011   2.660  20.695  0.00  0.00    +0.000 A 
ATOM      8  C   UNL     1       1.250   2.858  19.337  0.00  0.00    +0.000 A 
ATOM      9  C   UNL     1       2.204   3.802  18.940  0.00  0.00    +0.000 A 
ATOM     10  C   UNL     1       2.634   3.906  17.539  0.00  0.00    +0.000 A 
ATOM     11  O   UNL     1       2.312   3.070  16.698  0.00  0.00    +0.000 OA
ATOM     12  N   UNL     1       3.460   4.957  17.250  0.00  0.00    +0.000 N 
ATOM     13  H   UNL     1       3.837   5.007  16.312  0.00  0.00    +0.000 HD
ENDBRANCH   1   2
BRANCH   1  18
ATOM     14  C   UNL     1       6.610   5.281  17.803  0.00  0.00    +0.000 C 
ATOM     15  C   UNL     1       7.418   5.832  18.976  0.00  0.00    +0.000 C 
ATOM     16  C   UNL     1       8.043   7.102  18.446  0.00  0.00    +0.000 C 
ATOM     17  C   UNL     1       7.102   7.568  17.345  0.00  0.00    +0.000 C 
ATOM     18  N   UNL     1       6.091   6.503  17.114  0.00  0.00    +0.000 NA
BRANCH  14  19
ATOM     19  C   UNL     1       7.434   4.424  16.804  0.00  0.00    +0.000 C 
BRANCH  19  21
ATOM     20  N   UNL     1       5.937   4.070  14.887  0.00  0.00    +0.000 N 
ATOM     21  C   UNL     1       7.081   4.690  15.342  0.00  0.00    +0.000 C 
ATOM     22  O   UNL     1       7.770   5.411  14.612  0.00  0.00    +0.000 OA
ATOM     23  H   UNL     1       5.400   3.482  15.505  0.00  0.00    +0.000 HD
BRANCH  20  25
ATOM     24  C   UNL     1       6.105   3.243  12.558  0.00  0.00    +0.000 C 
ATOM     25  C   UNL     1       5.471   4.241  13.512  0.00  0.00    +0.000 C 
ENDBRANCH  20  25
ENDBRANCH  19  21
ENDBRANCH  14  19
ENDBRANCH   1  18
TORSDOF 5
ENDMDL
MODEL 2
REMARK VINA RESULT:      -7.7      1.297      1.926
REMARK  Name = 
REMARK  6 active torsions:
REMARK  status: ('A' for Active; 'I' for Inactive)
REMARK    1  A    between atoms: C_1  and  C_2
REMARK    2  A    between atoms: C_2  and  N_3
REMARK    3  A    between atoms: C_4  and  C_6
REMARK    4  A    between atoms: C_6  and  C_7
REMARK    5  A    between atoms: N_11  and  C_12
REMARK    6  A    between atoms: C_12  and  C_13
REMARK                            x       y       z     vdW  Elec       q    Type
REMARK                         _______ _______ _______ _____ _____    ______ ____
ROOT
ATOM      1  C   UNL     1       4.921   7.304  17.667  0.00  0.00    +0.000 C 
ENDROOT
BRANCH   1   2
ATOM      2  C   UNL     1       3.926   6.249  18.133  0.00  0.00    +0.000 A 
ATOM      3  N   UNL     1       3.818   5.103  17.535  0.00  0.00    +0.000 NA
ATOM      4  C   UNL     1       2.926   4.158  18.081  0.00  0.00    +0.000 A 
ATOM      5  C   UNL     1       2.696   2.955  17.411  0.00  0.00    +0.000 A 
ATOM      6  C   UNL     1       1.879   1.967  17.978  0.00  0.00    +0.000 A 
ATOM      7  C   UNL     1       1.319   2.155  19.243  0.00  0.00    +0.000 A 
ATOM      8  C   UNL     1       1.498   3.370  19.900  0.00  0.00    +0.000 A 
ATOM      9  C   UNL     1       2.259   4.374  19.290  0.00  0.00    +0.000 A 
ATOM     10  C   UNL     1       2.312   5.733  19.845  0.00  0.00    +0.000 A 
ATOM     11  O   UNL     1       1.567   6.091  20.754  0.00  0.00    +0.000 OA
ATOM     12  N   UNL     1       3.199   6.583  19.246  0.00  0.00    +0.000 N 
ATOM     13  H   UNL     1       3.199   7.548  19.554  0.00  0.00    +0.000 HD
ENDBRANCH   1   2
BRANCH   1  18
ATOM     14  C   UNL     1       6.585   5.476  17.907  0.00  0.00    +0.000 C 
ATOM     15  C   UNL     1       7.442   6.024  19.046  0.00  0.00    +0.000 C 
ATOM     16  C   UNL     1       8.176   7.199  18.442  0.00  0.00    +0.000 C 
ATOM     17  C   UNL     1       7.276   7.678  17.312  0.00  0.00    +0.000 C 
ATOM     18  N   UNL     1       6.174   6.696  17.143  0.00  0.00    +0.000 NA
BRANCH  14  19
ATOM     19  C   UNL     1       7.327   4.490  16.963  0.00  0.00    +0.000 C 
BRANCH  19  21
ATOM     20  N   UNL     1       5.829   4.151  15.045  0.00  0.00    +0.000 N 
ATOM     21  C   UNL     1       7.009   4.709  15.486  0.00  0.00    +0.000 C 
ATOM     22  O   UNL     1       7.755   5.344  14.732  0.00  0.00    +0.000 OA
ATOM     23  H   UNL     1       5.245   3.633  15.682  0.00  0.00    +0.000 HD
BRANCH  20  25
ATOM     24  C   UNL     1       6.073   3.293  12.734  0.00  0.00    +0.000 C 
ATOM     25  C   UNL     1       5.390   4.287  13.657  0.00  0.00    +0.000 C 
ENDBRANCH  20  25
ENDBRANCH  19  21
ENDBRANCH  14  19
ENDBRANCH   1  18
TORSDOF 5
ENDMDL
MODEL 3
REMARK VINA RESULT:      -7.6      2.158      6.357
REMARK  Name = 
REMARK  6 active torsions:
REMARK  status: ('A' for Active; 'I' for Inactive)
REMARK    1  A    between atoms: C_1  and  C_2
REMARK    2  A    between atoms: C_2  and  N_3
REMARK    3  A    between atoms: C_4  and  C_6
REMARK    4  A    between atoms: C_6  and  C_7
REMARK    5  A    between atoms: N_11  and  C_12
REMARK    6  A    between atoms: C_12  and  C_13
REMARK                            x       y       z     vdW  Elec       q    Type
REMARK                         _______ _______ _______ _____ _____    ______ ____
ROOT
ATOM      1  C   UNL     1       4.209   3.212  19.653  0.00  0.00    +0.000 C 
ENDROOT
BRANCH   1   2
ATOM      2  C   UNL     1       5.064   3.566  18.443  0.00  0.00    +0.000 A 
ATOM      3  N   UNL     1       4.610   3.456  17.233  0.00  0.00    +0.000 NA
ATOM      4  C   UNL     1       5.443   3.877  16.177  0.00  0.00    +0.000 A 
ATOM      5  C   UNL     1       5.042   3.679  14.855  0.00  0.00    +0.000 A 
ATOM      6  C   UNL     1       5.814   4.166  13.792  0.00  0.00    +0.000 A 
ATOM      7  C   UNL     1       6.977   4.897  14.043  0.00  0.00    +0.000 A 
ATOM      8  C   UNL     1       7.417   5.060  15.354  0.00  0.00    +0.000 A 
ATOM      9  C   UNL     1       6.671   4.507  16.402  0.00  0.00    +0.000 A 
ATOM     10  C   UNL     1       7.191   4.478  17.775  0.00  0.00    +0.000 A 
ATOM     11  O   UNL     1       8.356   4.773  18.033  0.00  0.00    +0.000 OA
ATOM     12  N   UNL     1       6.315   4.045  18.731  0.00  0.00    +0.000 N 
ATOM     13  H   UNL     1       6.671   3.938  19.673  0.00  0.00    +0.000 HD
ENDBRANCH   1   2
BRANCH   1  18
ATOM     14  C   UNL     1       2.364   4.411  20.805  0.00  0.00    +0.000 C 
ATOM     15  C   UNL     1       1.741   3.267  21.603  0.00  0.00    +0.000 C 
ATOM     16  C   UNL     1       1.097   2.381  20.562  0.00  0.00    +0.000 C 
ATOM     17  C   UNL     1       1.898   2.627  19.292  0.00  0.00    +0.000 C 
ATOM     18  N   UNL     1       2.830   3.759  19.540  0.00  0.00    +0.000 NA
BRANCH  14  19
ATOM     19  C   UNL     1       1.383   5.567  20.469  0.00  0.00    +0.000 C 
BRANCH  19  21
ATOM     20  N   UNL     1       2.559   6.544  18.544  0.00  0.00    +0.000 N 
ATOM     21  C   UNL     1       2.062   6.766  19.810  0.00  0.00    +0.000 C 
ATOM     22  O   UNL     1       2.161   7.864  20.369  0.00  0.00    +0.000 OA
ATOM     23  H   UNL     1       2.468   5.635  18.118  0.00  0.00    +0.000 HD
BRANCH  20  25
ATOM     24  C   UNL     1       4.526   7.131  17.159  0.00  0.00    +0.000 C 
ATOM     25  C   UNL     1       3.226   7.602  17.787  0.00  0.00    +0.000 C 
ENDBRANCH  20  25
ENDBRANCH  19  21
ENDBRANCH  14  19
ENDBRANCH   1  18
TORSDOF 5
ENDMDL
MODEL 4
REMARK VINA RESULT:      -7.5      1.630      2.179
REMARK  Name = 
REMARK  6 active torsions:
REMARK  status: ('A' for Active; 'I' for Inactive)
REMARK    1  A    between atoms: C_1  and  C_2
REMARK    2  A    between atoms: C_2  and  N_3
REMARK    3  A    between atoms: C_4  and  C_6
REMARK    4  A    between atoms: C_6  and  C_7
REMARK    5  A    between atoms: N_11  and  C_12
REMARK    6  A    between atoms: C_12  and  C_13
REMARK                            x       y       z     vdW  Elec       q    Type
REMARK                         _______ _______ _______ _____ _____    ______ ____
ROOT
ATOM      1  C   UNL     1       4.972   7.255  17.746  0.00  0.00    +0.000 C 
ENDROOT
BRANCH   1   2
ATOM      2  C   UNL     1       3.953   6.228  18.223  0.00  0.00    +0.000 A 
ATOM      3  N   UNL     1       3.809   5.084  17.629  0.00  0.00    +0.000 NA
ATOM      4  C   UNL     1       2.897   4.165  18.184  0.00  0.00    +0.000 A 
ATOM      5  C   UNL     1       2.628   2.967  17.520  0.00  0.00    +0.000 A 
ATOM      6  C   UNL     1       1.791   2.002  18.096  0.00  0.00    +0.000 A 
ATOM      7  C   UNL     1       1.246   2.208  19.364  0.00  0.00    +0.000 A 
ATOM      8  C   UNL     1       1.463   3.420  20.017  0.00  0.00    +0.000 A 
ATOM      9  C   UNL     1       2.246   4.401  19.399  0.00  0.00    +0.000 A 
ATOM     10  C   UNL     1       2.339   5.760  19.950  0.00  0.00    +0.000 A 
ATOM     11  O   UNL     1       1.611   6.140  20.863  0.00  0.00    +0.000 OA
ATOM     12  N   UNL     1       3.244   6.585  19.340  0.00  0.00    +0.000 N 
ATOM     13  H   UNL     1       3.272   7.549  19.646  0.00  0.00    +0.000 HD
ENDBRANCH   1   2
BRANCH   1  18
ATOM     14  C   UNL     1       6.663   5.485  18.164  0.00  0.00    +0.000 C 
ATOM     15  C   UNL     1       7.514   6.158  19.239  0.00  0.00    +0.000 C 
ATOM     16  C   UNL     1       8.229   7.276  18.517  0.00  0.00    +0.000 C 
ATOM     17  C   UNL     1       7.321   7.626  17.348  0.00  0.00    +0.000 C 
ATOM     18  N   UNL     1       6.233   6.615  17.282  0.00  0.00    +0.000 NA
BRANCH  14  19
ATOM     19  C   UNL     1       7.418   4.420  17.323  0.00  0.00    +0.000 C 
BRANCH  19  21
ATOM     20  N   UNL     1       7.463   5.016  14.939  0.00  0.00    +0.000 N 
ATOM     21  C   UNL     1       6.857   4.252  15.912  0.00  0.00    +0.000 C 
ATOM     22  O   UNL     1       5.923   3.484  15.654  0.00  0.00    +0.000 OA
ATOM     23  H   UNL     1       8.218   5.638  15.181  0.00  0.00    +0.000 HD
BRANCH  20  25
ATOM     24  C   UNL     1       8.085   5.512  12.593  0.00  0.00    +0.000 C 
ATOM     25  C   UNL     1       7.038   4.953  13.541  0.00  0.00    +0.000 C 
ENDBRANCH  20  25
ENDBRANCH  19  21
ENDBRANCH  14  19
ENDBRANCH   1  18
TORSDOF 5
ENDMDL
MODEL 5
REMARK VINA RESULT:      -7.4      2.193      6.470
REMARK  Name = 
REMARK  6 active torsions:
REMARK  status: ('A' for Active; 'I' for Inactive)
REMARK    1  A    between atoms: C_1  and  C_2
REMARK    2  A    between atoms: C_2  and  N_3
REMARK    3  A    between atoms: C_4  and  C_6
REMARK    4  A    between atoms: C_6  and  C_7
REMARK    5  A    between atoms: N_11  and  C_12
REMARK    6  A    between atoms: C_12  and  C_13
REMARK                            x       y       z     vdW  Elec       q    Type
REMARK                         _______ _______ _______ _____ _____    ______ ____
ROOT
ATOM      1  C   UNL     1       3.499   2.782  18.911  0.00  0.00    +0.000 C 
ENDROOT
BRANCH   1   2
ATOM      2  C   UNL     1       4.599   3.350  18.023  0.00  0.00    +0.000 A 
ATOM      3  N   UNL     1       4.509   3.330  16.729  0.00  0.00    +0.000 NA
ATOM      4  C   UNL     1       5.537   3.946  15.988  0.00  0.00    +0.000 A 
ATOM      5  C   UNL     1       5.538   3.855  14.596  0.00  0.00    +0.000 A 
ATOM      6  C   UNL     1       6.502   4.531  13.836  0.00  0.00    +0.000 A 
ATOM      7  C   UNL     1       7.451   5.342  14.461  0.00  0.00    +0.000 A 
ATOM      8  C   UNL     1       7.494   5.403  15.852  0.00  0.00    +0.000 A 
ATOM      9  C   UNL     1       6.567   4.666  16.600  0.00  0.00    +0.000 A 
ATOM     10  C   UNL     1       6.695   4.538  18.057  0.00  0.00    +0.000 A 
ATOM     11  O   UNL     1       7.698   4.917  18.656  0.00  0.00    +0.000 OA
ATOM     12  N   UNL     1       5.653   3.917  18.690  0.00  0.00    +0.000 N 
ATOM     13  H   UNL     1       5.751   3.742  19.682  0.00  0.00    +0.000 HD
ENDBRANCH   1   2
BRANCH   1  18
ATOM     14  C   UNL     1       2.668   4.479  20.522  0.00  0.00    +0.000 C 
ATOM     15  C   UNL     1       1.960   3.582  21.535  0.00  0.00    +0.000 C 
ATOM     16  C   UNL     1       0.749   3.056  20.798  0.00  0.00    +0.000 C 
ATOM     17  C   UNL     1       1.145   3.086  19.330  0.00  0.00    +0.000 C 
ATOM     18  N   UNL     1       2.448   3.791  19.211  0.00  0.00    +0.000 NA
BRANCH  14  19
ATOM     19  C   UNL     1       2.117   5.929  20.454  0.00  0.00    +0.000 C 
BRANCH  19  21
ATOM     20  N   UNL     1       1.919   7.805  18.878  0.00  0.00    +0.000 N 
ATOM     21  C   UNL     1       2.690   6.742  19.296  0.00  0.00    +0.000 C 
ATOM     22  O   UNL     1       3.774   6.472  18.765  0.00  0.00    +0.000 OA
ATOM     23  H   UNL     1       1.037   7.997  19.327  0.00  0.00    +0.000 HD
BRANCH  20  25
ATOM     24  C   UNL     1       1.904  10.118  17.991  0.00  0.00    +0.000 C 
ATOM     25  C   UNL     1       2.346   8.678  17.786  0.00  0.00    +0.000 C 
ENDBRANCH  20  25
ENDBRANCH  19  21
ENDBRANCH  14  19
ENDBRANCH   1  18
TORSDOF 5
ENDMDL
MODEL 6
REMARK VINA RESULT:      -7.2      3.182      5.344
REMARK  Name = 
REMARK  6 active torsions:
REMARK  status: ('A' for Active; 'I' for Inactive)
REMARK    1  A    between atoms: C_1  and  C_2
REMARK    2  A    between atoms: C_2  and  N_3
REMARK    3  A    between atoms: C_4  and  C_6
REMARK    4  A    between atoms: C_6  and  C_7
REMARK    5  A    between atoms: N_11  and  C_12
REMARK    6  A    between atoms: C_12  and  C_13
REMARK                            x       y       z     vdW  Elec       q    Type
REMARK                         _______ _______ _______ _____ _____    ______ ____
ROOT
ATOM      1  C   UNL     1       2.620   4.424  20.126  0.00  0.00    +0.000 C 
ENDROOT
BRANCH   1   2
ATOM      2  C   UNL     1       2.321   5.913  19.998  0.00  0.00    +0.000 A 
ATOM      3  N   UNL     1       2.515   6.553  18.886  0.00  0.00    +0.000 NA
ATOM      4  C   UNL     1       2.140   7.910  18.835  0.00  0.00    +0.000 A 
ATOM      5  C   UNL     1       2.428   8.667  17.699  0.00  0.00    +0.000 A 
ATOM      6  C   UNL     1       1.989   9.993  17.592  0.00  0.00    +0.000 A 
ATOM      7  C   UNL     1       1.217  10.563  18.606  0.00  0.00    +0.000 A 
ATOM      8  C   UNL     1       0.964   9.838  19.768  0.00  0.00    +0.000 A 
ATOM      9  C   UNL     1       1.469   8.538  19.889  0.00  0.00    +0.000 A 
ATOM     10  C   UNL     1       1.402   7.810  21.163  0.00  0.00    +0.000 A 
ATOM     11  O   UNL     1       1.065   8.362  22.207  0.00  0.00    +0.000 OA
ATOM     12  N   UNL     1       1.796   6.501  21.118  0.00  0.00    +0.000 N 
ATOM     13  H   UNL     1       1.837   5.999  21.996  0.00  0.00    +0.000 HD
ENDBRANCH   1   2
BRANCH   1  18
ATOM     14  C   UNL     1       3.004   3.727  17.774  0.00  0.00    +0.000 C 
ATOM     15  C   UNL     1       2.538   2.274  17.832  0.00  0.00    +0.000 C 
ATOM     16  C   UNL     1       3.584   1.570  18.667  0.00  0.00    +0.000 C 
ATOM     17  C   UNL     1       4.159   2.656  19.563  0.00  0.00    +0.000 C 
ATOM     18  N   UNL     1       3.615   3.966  19.119  0.00  0.00    +0.000 NA
BRANCH  14  19
ATOM     19  C   UNL     1       4.048   4.022  16.662  0.00  0.00    +0.000 C 
BRANCH  19  21
ATOM     20  N   UNL     1       6.298   4.345  17.596  0.00  0.00    +0.000 N 
ATOM     21  C   UNL     1       5.164   4.961  17.113  0.00  0.00    +0.000 C 
ATOM     22  O   UNL     1       5.065   6.192  17.050  0.00  0.00    +0.000 OA
ATOM     23  H   UNL     1       6.347   3.339  17.641  0.00  0.00    +0.000 HD
BRANCH  20  25
ATOM     24  C   UNL     1       7.312   5.561  19.501  0.00  0.00    +0.000 C 
ATOM     25  C   UNL     1       7.452   5.116  18.055  0.00  0.00    +0.000 C 
ENDBRANCH  20  25
ENDBRANCH  19  21
ENDBRANCH  14  19
ENDBRANCH   1  18
TORSDOF 5
ENDMDL
MODEL 7
REMARK VINA RESULT:      -7.1      4.320      5.672
REMARK  Name = 
REMARK  6 active torsions:
REMARK  status: ('A' for Active; 'I' for Inactive)
REMARK    1  A    between atoms: C_1  and  C_2
REMARK    2  A    between atoms: C_2  and  N_3
REMARK    3  A    between atoms: C_4  and  C_6
REMARK    4  A    between atoms: C_6  and  C_7
REMARK    5  A    between atoms: N_11  and  C_12
REMARK    6  A    between atoms: C_12  and  C_13
REMARK                            x       y       z     vdW  Elec       q    Type
REMARK                         _______ _______ _______ _____ _____    ______ ____
ROOT
ATOM      1  C   UNL     1       2.779   7.478  18.140  0.00  0.00    +0.000 C 
ENDROOT
BRANCH   1   2
ATOM      2  C   UNL     1       1.818   8.309  18.982  0.00  0.00    +0.000 A 
ATOM      3  N   UNL     1       1.744   8.169  20.269  0.00  0.00    +0.000 NA
ATOM      4  C   UNL     1       0.884   9.032  20.976  0.00  0.00    +0.000 A 
ATOM      5  C   UNL     1       0.688   8.848  22.346  0.00  0.00    +0.000 A 
ATOM      6  C   UNL     1      -0.095   9.746  23.084  0.00  0.00    +0.000 A 
ATOM      7  C   UNL     1      -0.656  10.864  22.465  0.00  0.00    +0.000 A 
ATOM      8  C   UNL     1      -0.513  11.034  21.090  0.00  0.00    +0.000 A 
ATOM      9  C   UNL     1       0.214  10.091  20.355  0.00  0.00    +0.000 A 
ATOM     10  C   UNL     1       0.226  10.115  18.886  0.00  0.00    +0.000 A 
ATOM     11  O   UNL     1      -0.527  10.842  18.244  0.00  0.00    +0.000 OA
ATOM     12  N   UNL     1       1.085   9.235  18.287  0.00  0.00    +0.000 N 
ATOM     13  H   UNL     1       1.055   9.173  17.277  0.00  0.00    +0.000 HD
ENDBRANCH   1   2
BRANCH   1  18
ATOM     14  C   UNL     1       4.269   5.492  18.088  0.00  0.00    +0.000 C 
ATOM     15  C   UNL     1       3.423   4.529  17.258  0.00  0.00    +0.000 C 
ATOM     16  C   UNL     1       2.260   4.172  18.153  0.00  0.00    +0.000 C 
ATOM     17  C   UNL     1       2.107   5.364  19.085  0.00  0.00    +0.000 C 
ATOM     18  N   UNL     1       3.262   6.275  18.871  0.00  0.00    +0.000 NA
BRANCH  14  19
ATOM     19  C   UNL     1       5.265   4.800  19.057  0.00  0.00    +0.000 C 
BRANCH  19  21
ATOM     20  N   UNL     1       6.896   6.419  18.187  0.00  0.00    +0.000 N 
ATOM     21  C   UNL     1       6.583   5.554  19.213  0.00  0.00    +0.000 C 
ATOM     22  O   UNL     1       7.324   5.405  20.192  0.00  0.00    +0.000 OA
ATOM     23  H   UNL     1       6.275   6.515  17.399  0.00  0.00    +0.000 HD
BRANCH  20  25
ATOM     24  C   UNL     1       7.888   8.646  17.747  0.00  0.00    +0.000 C 
ATOM     25  C   UNL     1       8.122   7.216  18.204  0.00  0.00    +0.000 C 
ENDBRANCH  20  25
ENDBRANCH  19  21
ENDBRANCH  14  19
ENDBRANCH   1  18
TORSDOF 5
ENDMDL
MODEL 8
REMARK VINA RESULT:      -7.1      2.692      6.781
REMARK  Name = 
REMARK  6 active torsions:
REMARK  status: ('A' for Active; 'I' for Inactive)
REMARK    1  A    between atoms: C_1  and  C_2
REMARK    2  A    between atoms: C_2  and  N_3
REMARK    3  A    between atoms: C_4  and  C_6
REMARK    4  A    between atoms: C_6  and  C_7
REMARK    5  A    between atoms: N_11  and  C_12
REMARK    6  A    between atoms: C_12  and  C_13
REMARK                            x       y       z     vdW  Elec       q    Type
REMARK                         _______ _______ _______ _____ _____    ______ ____
ROOT
ATOM      1  C   UNL     1       3.059   3.324  18.642  0.00  0.00    +0.000 C 
ENDROOT
BRANCH   1   2
ATOM      2  C   UNL     1       4.060   4.449  18.413  0.00  0.00    +0.000 A 
ATOM      3  N   UNL     1       5.216   4.463  19.001  0.00  0.00    +0.000 NA
ATOM      4  C   UNL     1       6.109   5.501  18.672  0.00  0.00    +0.000 A 
ATOM      5  C   UNL     1       7.319   5.619  19.357  0.00  0.00    +0.000 A 
ATOM      6  C   UNL     1       8.259   6.591  18.989  0.00  0.00    +0.000 A 
ATOM      7  C   UNL     1       8.015   7.430  17.901  0.00  0.00    +0.000 A 
ATOM      8  C   UNL     1       6.791   7.360  17.239  0.00  0.00    +0.000 A 
ATOM      9  C   UNL     1       5.835   6.429  17.663  0.00  0.00    +0.000 A 
ATOM     10  C   UNL     1       4.465   6.450  17.133  0.00  0.00    +0.000 A 
ATOM     11  O   UNL     1       4.053   7.375  16.438  0.00  0.00    +0.000 OA
ATOM     12  N   UNL     1       3.667   5.407  17.514  0.00  0.00    +0.000 N 
ATOM     13  H   UNL     1       2.696   5.438  17.231  0.00  0.00    +0.000 HD
ENDBRANCH   1   2
BRANCH   1  18
ATOM     14  C   UNL     1       2.191   4.667  20.542  0.00  0.00    +0.000 C 
ATOM     15  C   UNL     1       2.391   3.685  21.694  0.00  0.00    +0.000 C 
ATOM     16  C   UNL     1       1.381   2.589  21.443  0.00  0.00    +0.000 C 
ATOM     17  C   UNL     1       1.158   2.605  19.938  0.00  0.00    +0.000 C 
ATOM     18  N   UNL     1       1.852   3.793  19.375  0.00  0.00    +0.000 NA
BRANCH  14  19
ATOM     19  C   UNL     1       1.055   5.701  20.771  0.00  0.00    +0.000 C 
BRANCH  19  21
ATOM     20  N   UNL     1       0.851   8.101  21.262  0.00  0.00    +0.000 N 
ATOM     21  C   UNL     1       1.484   7.142  20.501  0.00  0.00    +0.000 C 
ATOM     22  O   UNL     1       2.340   7.435  19.659  0.00  0.00    +0.000 OA
ATOM     23  H   UNL     1       0.152   7.831  21.937  0.00  0.00    +0.000 HD
BRANCH  20  25
ATOM     24  C   UNL     1       0.181  10.243  20.215  0.00  0.00    +0.000 C 
ATOM     25  C   UNL     1       1.166   9.521  21.120  0.00  0.00    +0.000 C 
ENDBRANCH  20  25
ENDBRANCH  19  21
ENDBRANCH  14  19
ENDBRANCH   1  18
TORSDOF 5
ENDMDL
MODEL 9
REMARK VINA RESULT:      -7.0      2.290      6.304
REMARK  Name = 
REMARK  6 active torsions:
REMARK  status: ('A' for Active; 'I' for Inactive)
REMARK    1  A    between atoms: C_1  and  C_2
REMARK    2  A    between atoms: C_2  and  N_3
REMARK    3  A    between atoms: C_4  and  C_6
REMARK    4  A    between atoms: C_6  and  C_7
REMARK    5  A    between atoms: N_11  and  C_12
REMARK    6  A    between atoms: C_12  and  C_13
REMARK                            x       y       z     vdW  Elec       q    Type
REMARK                         _______ _______ _______ _____ _____    ______ ____
ROOT
ATOM      1  C   UNL     1       3.101   3.307  18.489  0.00  0.00    +0.000 C 
ENDROOT
BRANCH   1   2
ATOM      2  C   UNL     1       4.165   4.372  18.257  0.00  0.00    +0.000 A 
ATOM      3  N   UNL     1       5.193   4.490  19.039  0.00  0.00    +0.000 NA
ATOM      4  C   UNL     1       6.166   5.452  18.705  0.00  0.00    +0.000 A 
ATOM      5  C   UNL     1       7.233   5.690  19.574  0.00  0.00    +0.000 A 
ATOM      6  C   UNL     1       8.257   6.580  19.222  0.00  0.00    +0.000 A 
ATOM      7  C   UNL     1       8.246   7.210  17.976  0.00  0.00    +0.000 A 
ATOM      8  C   UNL     1       7.163   7.022  17.120  0.00  0.00    +0.000 A 
ATOM      9  C   UNL     1       6.114   6.184  17.515  0.00  0.00    +0.000 A 
ATOM     10  C   UNL     1       4.866   6.110  16.743  0.00  0.00    +0.000 A 
ATOM     11  O   UNL     1       4.621   6.896  15.831  0.00  0.00    +0.000 OA
ATOM     12  N   UNL     1       3.977   5.153  17.146  0.00  0.00    +0.000 N 
ATOM     13  H   UNL     1       3.076   5.133  16.686  0.00  0.00    +0.000 HD
ENDBRANCH   1   2
BRANCH   1  18
ATOM     14  C   UNL     1       2.338   4.599  20.468  0.00  0.00    +0.000 C 
ATOM     15  C   UNL     1       2.426   3.528  21.554  0.00  0.00    +0.000 C 
ATOM     16  C   UNL     1       1.320   2.554  21.221  0.00  0.00    +0.000 C 
ATOM     17  C   UNL     1       1.121   2.691  19.719  0.00  0.00    +0.000 C 
ATOM     18  N   UNL     1       1.934   3.840  19.243  0.00  0.00    +0.000 NA
BRANCH  14  19
ATOM     19  C   UNL     1       1.303   5.721  20.757  0.00  0.00    +0.000 C 
BRANCH  19  21
ATOM     20  N   UNL     1       2.094   7.144  18.916  0.00  0.00    +0.000 N 
ATOM     21  C   UNL     1       1.737   7.092  20.246  0.00  0.00    +0.000 C 
ATOM     22  O   UNL     1       1.769   8.093  20.971  0.00  0.00    +0.000 OA
ATOM     23  H   UNL     1       2.064   6.309  18.352  0.00  0.00    +0.000 HD
BRANCH  20  25
ATOM     24  C   UNL     1       1.350   9.215  17.781  0.00  0.00    +0.000 C 
ATOM     25  C   UNL     1       2.522   8.392  18.286  0.00  0.00    +0.000 C 
ENDBRANCH  20  25
ENDBRANCH  19  21
ENDBRANCH  14  19
ENDBRANCH   1  18
TORSDOF 5
ENDMDL
