MODEL 1
REMARK VINA RESULT:      -8.5      0.000      0.000
REMARK  Name = 
REMARK  5 active torsions:
REMARK  status: ('A' for Active; 'I' for Inactive)
REMARK    1  A    between atoms: C_1  and  C_2
REMARK    2  A    between atoms: C_5  and  S_6
REMARK    3  A    between atoms: S_6  and  N_9
REMARK    4  A    between atoms: C_10  and  C_22
REMARK    5  A    between atoms: N_11  and  C_12
REMARK                            x       y       z     vdW  Elec       q    Type
REMARK                         _______ _______ _______ _____ _____    ______ ____
ROOT
ATOM      1  N   UNL     1       1.570   7.646  18.019  0.00  0.00    +0.000 N 
ATOM      2  C   UNL     1       2.592   6.703  18.222  0.00  0.00    +0.000 C 
ATOM      3  N   UNL     1       3.800   7.089  17.970  0.00  0.00    +0.000 NA
ATOM      4  H   UNL     1       0.619   7.390  17.785  0.00  0.00    +0.000 HD
ENDROOT
BRANCH   3   5
ATOM      5  C   UNL     1       4.952   6.283  18.036  0.00  0.00    +0.000 A 
ATOM      6  C   UNL     1       5.517   5.914  19.264  0.00  0.00    +0.000 A 
ATOM      7  C   UNL     1       6.785   5.326  19.318  0.00  0.00    +0.000 A 
ATOM      8  C   UNL     1       7.438   4.969  18.143  0.00  0.00    +0.000 A 
ATOM      9  C   UNL     1       6.802   5.125  16.907  0.00  0.00    +0.000 A 
ATOM     10  C   UNL     1       7.397   4.612  15.741  0.00  0.00    +0.000 A 
ATOM     11  C   UNL     1       6.749   4.697  14.509  0.00  0.00    +0.000 A 
ATOM     12  C   UNL     1       5.516   5.328  14.423  0.00  0.00    +0.000 A 
ATOM     13  C   UNL     1       4.940   5.889  15.567  0.00  0.00    +0.000 A 
ATOM     14  C   UNL     1       5.546   5.791  16.837  0.00  0.00    +0.000 A 
ENDBRANCH   3   5
BRANCH   2  15
ATOM     15  C   UNL     1       2.079   5.347  18.659  0.00  0.00    +0.000 A 
ATOM     16  C   UNL     1       1.863   4.312  17.730  0.00  0.00    +0.000 A 
ATOM     17  C   UNL     1       1.455   3.040  18.157  0.00  0.00    +0.000 A 
ATOM     18  C   UNL     1       1.283   2.788  19.512  0.00  0.00    +0.000 A 
ATOM     19  F   UNL     1       0.951   1.556  19.919  0.00  0.00    +0.000 F 
ATOM     20  C   UNL     1       1.457   3.798  20.445  0.00  0.00    +0.000 A 
ATOM     21  C   UNL     1       1.800   5.086  20.014  0.00  0.00    +0.000 A 
ENDBRANCH   2  15
BRANCH   1  22
ATOM     22  S   UNL     1       1.669   9.270  18.400  0.00  0.00    +0.000 S 
ATOM     23  O   UNL     1       2.514   9.934  17.428  0.00  0.00    +0.000 OA
ATOM     24  O   UNL     1       1.997   9.306  19.813  0.00  0.00    +0.000 OA
BRANCH  22  29
ATOM     25  C   UNL     1      -3.991  11.360  17.898  0.00  0.00    +0.000 C 
ATOM     26  C   UNL     1      -2.590  10.838  18.027  0.00  0.00    +0.000 A 
ATOM     27  C   UNL     1      -1.763  11.263  19.072  0.00  0.00    +0.000 A 
ATOM     28  C   UNL     1      -0.464  10.777  19.185  0.00  0.00    +0.000 A 
ATOM     29  C   UNL     1       0.011   9.856  18.248  0.00  0.00    +0.000 A 
ATOM     30  C   UNL     1      -0.792   9.439  17.188  0.00  0.00    +0.000 A 
ATOM     31  C   UNL     1      -2.101   9.926  17.086  0.00  0.00    +0.000 A 
ENDBRANCH  22  29
ENDBRANCH   1  22
TORSDOF 4
ENDMDL
MODEL 2
REMARK VINA RESULT:      -8.0      1.521      2.119
REMARK  Name = 
REMARK  5 active torsions:
REMARK  status: ('A' for Active; 'I' for Inactive)
REMARK    1  A    between atoms: C_1  and  C_2
REMARK    2  A    between atoms: C_5  and  S_6
REMARK    3  A    between atoms: S_6  and  N_9
REMARK    4  A    between atoms: C_10  and  C_22
REMARK    5  A    between atoms: N_11  and  C_12
REMARK                            x       y       z     vdW  Elec       q    Type
REMARK                         _______ _______ _______ _____ _____    ______ ____
ROOT
ATOM      1  N   UNL     1       1.581   7.285  18.152  0.00  0.00    +0.000 N 
ATOM      2  C   UNL     1       2.675   6.440  18.404  0.00  0.00    +0.000 C 
ATOM      3  N   UNL     1       3.812   6.790  17.896  0.00  0.00    +0.000 NA
ATOM      4  H   UNL     1       0.624   6.958  18.124  0.00  0.00    +0.000 HD
ENDROOT
BRANCH   3   5
ATOM      5  C   UNL     1       5.007   6.050  17.967  0.00  0.00    +0.000 A 
ATOM      6  C   UNL     1       5.663   5.837  19.187  0.00  0.00    +0.000 A 
ATOM      7  C   UNL     1       6.962   5.318  19.217  0.00  0.00    +0.000 A 
ATOM      8  C   UNL     1       7.562   4.873  18.044  0.00  0.00    +0.000 A 
ATOM      9  C   UNL     1       6.846   4.871  16.842  0.00  0.00    +0.000 A 
ATOM     10  C   UNL     1       7.396   4.269  15.697  0.00  0.00    +0.000 A 
ATOM     11  C   UNL     1       6.672   4.196  14.507  0.00  0.00    +0.000 A 
ATOM     12  C   UNL     1       5.405   4.756  14.439  0.00  0.00    +0.000 A 
ATOM     13  C   UNL     1       4.868   5.404  15.556  0.00  0.00    +0.000 A 
ATOM     14  C   UNL     1       5.554   5.466  16.788  0.00  0.00    +0.000 A 
ENDBRANCH   3   5
BRANCH   2  15
ATOM     15  C   UNL     1       2.308   5.207  19.203  0.00  0.00    +0.000 A 
ATOM     16  C   UNL     1       1.961   4.000  18.566  0.00  0.00    +0.000 A 
ATOM     17  C   UNL     1       1.693   2.847  19.317  0.00  0.00    +0.000 A 
ATOM     18  C   UNL     1       1.791   2.885  20.702  0.00  0.00    +0.000 A 
ATOM     19  F   UNL     1       1.591   1.766  21.411  0.00  0.00    +0.000 F 
ATOM     20  C   UNL     1       2.098   4.069  21.355  0.00  0.00    +0.000 A 
ATOM     21  C   UNL     1       2.302   5.236  20.610  0.00  0.00    +0.000 A 
ENDBRANCH   2  15
BRANCH   1  22
ATOM     22  S   UNL     1       1.637   8.956  18.143  0.00  0.00    +0.000 S 
ATOM     23  O   UNL     1       0.851   9.451  17.031  0.00  0.00    +0.000 OA
ATOM     24  O   UNL     1       3.044   9.286  18.261  0.00  0.00    +0.000 OA
BRANCH  22  29
ATOM     25  C   UNL     1      -1.052  10.577  23.321  0.00  0.00    +0.000 C 
ATOM     26  C   UNL     1      -0.382  10.179  22.039  0.00  0.00    +0.000 A 
ATOM     27  C   UNL     1      -0.625  10.887  20.856  0.00  0.00    +0.000 A 
ATOM     28  C   UNL     1      -0.002  10.512  19.670  0.00  0.00    +0.000 A 
ATOM     29  C   UNL     1       0.875   9.424  19.665  0.00  0.00    +0.000 A 
ATOM     30  C   UNL     1       1.111   8.695  20.829  0.00  0.00    +0.000 A 
ATOM     31  C   UNL     1       0.488   9.083  22.021  0.00  0.00    +0.000 A 
ENDBRANCH  22  29
ENDBRANCH   1  22
TORSDOF 4
ENDMDL
MODEL 3
REMARK VINA RESULT:      -8.0      5.377      8.345
REMARK  Name = 
REMARK  5 active torsions:
REMARK  status: ('A' for Active; 'I' for Inactive)
REMARK    1  A    between atoms: C_1  and  C_2
REMARK    2  A    between atoms: C_5  and  S_6
REMARK    3  A    between atoms: S_6  and  N_9
REMARK    4  A    between atoms: C_10  and  C_22
REMARK    5  A    between atoms: N_11  and  C_12
REMARK                            x       y       z     vdW  Elec       q    Type
REMARK                         _______ _______ _______ _____ _____    ______ ____
ROOT
ATOM      1  N   UNL     1      -0.792  14.063  18.616  0.00  0.00    +0.000 N 
ATOM      2  C   UNL     1      -1.081  12.928  19.393  0.00  0.00    +0.000 C 
ATOM      3  N   UNL     1      -0.193  12.575  20.264  0.00  0.00    +0.000 NA
ATOM      4  H   UNL     1      -1.160  14.206  17.685  0.00  0.00    +0.000 HD
ENDROOT
BRANCH   3   5
ATOM      5  C   UNL     1      -0.254  11.433  21.084  0.00  0.00    +0.000 A 
ATOM      6  C   UNL     1      -1.021  11.416  22.257  0.00  0.00    +0.000 A 
ATOM      7  C   UNL     1      -0.883  10.377  23.183  0.00  0.00    +0.000 A 
ATOM      8  C   UNL     1      -0.090   9.275  22.882  0.00  0.00    +0.000 A 
ATOM      9  C   UNL     1       0.513   9.163  21.625  0.00  0.00    +0.000 A 
ATOM     10  C   UNL     1       1.175   7.974  21.267  0.00  0.00    +0.000 A 
ATOM     11  C   UNL     1       1.725   7.816  19.995  0.00  0.00    +0.000 A 
ATOM     12  C   UNL     1       1.651   8.856  19.080  0.00  0.00    +0.000 A 
ATOM     13  C   UNL     1       1.041  10.061  19.443  0.00  0.00    +0.000 A 
ATOM     14  C   UNL     1       0.442  10.247  20.707  0.00  0.00    +0.000 A 
ENDBRANCH   3   5
BRANCH   2  15
ATOM     15  C   UNL     1      -2.395  12.270  19.025  0.00  0.00    +0.000 A 
ATOM     16  C   UNL     1      -3.580  12.561  19.726  0.00  0.00    +0.000 A 
ATOM     17  C   UNL     1      -4.802  11.998  19.330  0.00  0.00    +0.000 A 
ATOM     18  C   UNL     1      -4.852  11.162  18.222  0.00  0.00    +0.000 A 
ATOM     19  F   UNL     1      -6.030  10.674  17.813  0.00  0.00    +0.000 F 
ATOM     20  C   UNL     1      -3.693  10.832  17.535  0.00  0.00    +0.000 A 
ATOM     21  C   UNL     1      -2.464  11.342  17.969  0.00  0.00    +0.000 A 
ENDBRANCH   2  15
BRANCH   1  22
ATOM     22  S   UNL     1      -0.059  15.455  19.182  0.00  0.00    +0.000 S 
ATOM     23  O   UNL     1      -0.207  15.517  20.622  0.00  0.00    +0.000 OA
ATOM     24  O   UNL     1      -0.570  16.519  18.339  0.00  0.00    +0.000 OA
BRANCH  22  29
ATOM     25  C   UNL     1       5.806  14.805  17.822  0.00  0.00    +0.000 C 
ATOM     26  C   UNL     1       4.351  14.968  18.154  0.00  0.00    +0.000 A 
ATOM     27  C   UNL     1       3.836  16.219  18.511  0.00  0.00    +0.000 A 
ATOM     28  C   UNL     1       2.487  16.363  18.819  0.00  0.00    +0.000 A 
ATOM     29  C   UNL     1       1.644  15.250  18.766  0.00  0.00    +0.000 A 
ATOM     30  C   UNL     1       2.146  13.993  18.435  0.00  0.00    +0.000 A 
ATOM     31  C   UNL     1       3.502  13.857  18.117  0.00  0.00    +0.000 A 
ENDBRANCH  22  29
ENDBRANCH   1  22
TORSDOF 4
ENDMDL
MODEL 4
REMARK VINA RESULT:      -7.7      5.016      8.061
REMARK  Name = 
REMARK  5 active torsions:
REMARK  status: ('A' for Active; 'I' for Inactive)
REMARK    1  A    between atoms: C_1  and  C_2
REMARK    2  A    between atoms: C_5  and  S_6
REMARK    3  A    between atoms: S_6  and  N_9
REMARK    4  A    between atoms: C_10  and  C_22
REMARK    5  A    between atoms: N_11  and  C_12
REMARK                            x       y       z     vdW  Elec       q    Type
REMARK                         _______ _______ _______ _____ _____    ______ ____
ROOT
ATOM      1  N   UNL     1      -0.748  14.093  18.679  0.00  0.00    +0.000 N 
ATOM      2  C   UNL     1      -0.930  12.845  19.299  0.00  0.00    +0.000 C 
ATOM      3  N   UNL     1       0.047  12.404  20.022  0.00  0.00    +0.000 NA
ATOM      4  H   UNL     1      -1.207  14.356  17.817  0.00  0.00    +0.000 HD
ENDROOT
BRANCH   3   5
ATOM      5  C   UNL     1       0.097  11.151  20.662  0.00  0.00    +0.000 A 
ATOM      6  C   UNL     1      -0.582  10.919  21.867  0.00  0.00    +0.000 A 
ATOM      7  C   UNL     1      -0.332   9.764  22.614  0.00  0.00    +0.000 A 
ATOM      8  C   UNL     1       0.486   8.765  22.100  0.00  0.00    +0.000 A 
ATOM      9  C   UNL     1       1.002   8.872  20.804  0.00  0.00    +0.000 A 
ATOM     10  C   UNL     1       1.689   7.788  20.229  0.00  0.00    +0.000 A 
ATOM     11  C   UNL     1       2.152   7.849  18.915  0.00  0.00    +0.000 A 
ATOM     12  C   UNL     1       1.966   9.008  18.174  0.00  0.00    +0.000 A 
ATOM     13  C   UNL     1       1.331  10.111  18.753  0.00  0.00    +0.000 A 
ATOM     14  C   UNL     1       0.816  10.075  20.067  0.00  0.00    +0.000 A 
ENDBRANCH   3   5
BRANCH   2  15
ATOM     15  C   UNL     1      -2.254  12.194  18.957  0.00  0.00    +0.000 A 
ATOM     16  C   UNL     1      -3.430  12.515  19.660  0.00  0.00    +0.000 A 
ATOM     17  C   UNL     1      -4.662  11.958  19.287  0.00  0.00    +0.000 A 
ATOM     18  C   UNL     1      -4.731  11.098  18.199  0.00  0.00    +0.000 A 
ATOM     19  F   UNL     1      -5.918  10.614  17.810  0.00  0.00    +0.000 F 
ATOM     20  C   UNL     1      -3.582  10.738  17.510  0.00  0.00    +0.000 A 
ATOM     21  C   UNL     1      -2.343  11.243  17.923  0.00  0.00    +0.000 A 
ENDBRANCH   2  15
BRANCH   1  22
ATOM     22  S   UNL     1      -0.002  15.415  19.379  0.00  0.00    +0.000 S 
ATOM     23  O   UNL     1      -0.144  15.332  20.819  0.00  0.00    +0.000 OA
ATOM     24  O   UNL     1      -0.509  16.562  18.651  0.00  0.00    +0.000 OA
BRANCH  22  29
ATOM     25  C   UNL     1       5.805  14.776  17.790  0.00  0.00    +0.000 C 
ATOM     26  C   UNL     1       4.367  14.932  18.188  0.00  0.00    +0.000 A 
ATOM     27  C   UNL     1       3.465  13.873  18.038  0.00  0.00    +0.000 A 
ATOM     28  C   UNL     1       2.133  14.024  18.408  0.00  0.00    +0.000 A 
ATOM     29  C   UNL     1       1.698  15.242  18.937  0.00  0.00    +0.000 A 
ATOM     30  C   UNL     1       2.578  16.314  19.073  0.00  0.00    +0.000 A 
ATOM     31  C   UNL     1       3.919  16.151  18.707  0.00  0.00    +0.000 A 
ENDBRANCH  22  29
ENDBRANCH   1  22
TORSDOF 4
ENDMDL
MODEL 5
REMARK VINA RESULT:      -7.7      3.497      7.475
REMARK  Name = 
REMARK  5 active torsions:
REMARK  status: ('A' for Active; 'I' for Inactive)
REMARK    1  A    between atoms: C_1  and  C_2
REMARK    2  A    between atoms: C_5  and  S_6
REMARK    3  A    between atoms: S_6  and  N_9
REMARK    4  A    between atoms: C_10  and  C_22
REMARK    5  A    between atoms: N_11  and  C_12
REMARK                            x       y       z     vdW  Elec       q    Type
REMARK                         _______ _______ _______ _____ _____    ______ ____
ROOT
ATOM      1  N   UNL     1       5.119   6.630  16.794  0.00  0.00    +0.000 N 
ATOM      2  C   UNL     1       4.038   6.091  17.512  0.00  0.00    +0.000 C 
ATOM      3  N   UNL     1       3.898   4.806  17.478  0.00  0.00    +0.000 NA
ATOM      4  H   UNL     1       5.115   7.566  16.408  0.00  0.00    +0.000 HD
ENDROOT
BRANCH   3   5
ATOM      5  C   UNL     1       2.846   4.077  18.064  0.00  0.00    +0.000 A 
ATOM      6  C   UNL     1       1.569   4.045  17.487  0.00  0.00    +0.000 A 
ATOM      7  C   UNL     1       0.480   3.528  18.196  0.00  0.00    +0.000 A 
ATOM      8  C   UNL     1       0.679   2.908  19.425  0.00  0.00    +0.000 A 
ATOM      9  C   UNL     1       1.973   2.731  19.924  0.00  0.00    +0.000 A 
ATOM     10  C   UNL     1       2.180   1.960  21.082  0.00  0.00    +0.000 A 
ATOM     11  C   UNL     1       3.468   1.713  21.558  0.00  0.00    +0.000 A 
ATOM     12  C   UNL     1       4.560   2.265  20.904  0.00  0.00    +0.000 A 
ATOM     13  C   UNL     1       4.362   3.077  19.782  0.00  0.00    +0.000 A 
ATOM     14  C   UNL     1       3.079   3.319  19.248  0.00  0.00    +0.000 A 
ENDBRANCH   3   5
BRANCH   2  15
ATOM     15  C   UNL     1       3.173   7.143  18.174  0.00  0.00    +0.000 A 
ATOM     16  C   UNL     1       2.784   8.308  17.486  0.00  0.00    +0.000 A 
ATOM     17  C   UNL     1       1.925   9.240  18.085  0.00  0.00    +0.000 A 
ATOM     18  C   UNL     1       1.432   9.005  19.362  0.00  0.00    +0.000 A 
ATOM     19  F   UNL     1       0.566   9.869  19.908  0.00  0.00    +0.000 F 
ATOM     20  C   UNL     1       1.826   7.882  20.075  0.00  0.00    +0.000 A 
ATOM     21  C   UNL     1       2.735   6.984  19.502  0.00  0.00    +0.000 A 
ENDBRANCH   2  15
BRANCH   1  22
ATOM     22  S   UNL     1       6.647   5.959  16.705  0.00  0.00    +0.000 S 
ATOM     23  O   UNL     1       6.812   5.012  17.790  0.00  0.00    +0.000 OA
ATOM     24  O   UNL     1       7.546   7.088  16.565  0.00  0.00    +0.000 OA
BRANCH  22  29
ATOM     25  C   UNL     1       6.599   3.028  11.407  0.00  0.00    +0.000 C 
ATOM     26  C   UNL     1       6.613   3.750  12.722  0.00  0.00    +0.000 A 
ATOM     27  C   UNL     1       5.702   3.418  13.730  0.00  0.00    +0.000 A 
ATOM     28  C   UNL     1       5.720   4.092  14.947  0.00  0.00    +0.000 A 
ATOM     29  C   UNL     1       6.658   5.104  15.161  0.00  0.00    +0.000 A 
ATOM     30  C   UNL     1       7.559   5.463  14.160  0.00  0.00    +0.000 A 
ATOM     31  C   UNL     1       7.541   4.774  12.941  0.00  0.00    +0.000 A 
ENDBRANCH  22  29
ENDBRANCH   1  22
TORSDOF 4
ENDMDL
MODEL 6
REMARK VINA RESULT:      -7.5      4.947      7.964
REMARK  Name = 
REMARK  5 active torsions:
REMARK  status: ('A' for Active; 'I' for Inactive)
REMARK    1  A    between atoms: C_1  and  C_2
REMARK    2  A    between atoms: C_5  and  S_6
REMARK    3  A    between atoms: S_6  and  N_9
REMARK    4  A    between atoms: C_10  and  C_22
REMARK    5  A    between atoms: N_11  and  C_12
REMARK                            x       y       z     vdW  Elec       q    Type
REMARK                         _______ _______ _______ _____ _____    ______ ____
ROOT
ATOM      1  N   UNL     1      -0.444  14.279  18.649  0.00  0.00    +0.000 N 
ATOM      2  C   UNL     1      -0.656  13.001  19.195  0.00  0.00    +0.000 C 
ATOM      3  N   UNL     1       0.301  12.505  19.909  0.00  0.00    +0.000 NA
ATOM      4  H   UNL     1      -0.884  14.597  17.795  0.00  0.00    +0.000 HD
ENDROOT
BRANCH   3   5
ATOM      5  C   UNL     1       0.320  11.219  20.480  0.00  0.00    +0.000 A 
ATOM      6  C   UNL     1      -0.339  10.945  21.686  0.00  0.00    +0.000 A 
ATOM      7  C   UNL     1      -0.114   9.742  22.363  0.00  0.00    +0.000 A 
ATOM      8  C   UNL     1       0.656   8.745  21.776  0.00  0.00    +0.000 A 
ATOM      9  C   UNL     1       1.146   8.905  20.476  0.00  0.00    +0.000 A 
ATOM     10  C   UNL     1       1.780   7.832  19.825  0.00  0.00    +0.000 A 
ATOM     11  C   UNL     1       2.215   7.949  18.506  0.00  0.00    +0.000 A 
ATOM     12  C   UNL     1       2.054   9.152  17.833  0.00  0.00    +0.000 A 
ATOM     13  C   UNL     1       1.472  10.243  18.487  0.00  0.00    +0.000 A 
ATOM     14  C   UNL     1       0.986  10.153  19.809  0.00  0.00    +0.000 A 
ENDBRANCH   3   5
BRANCH   2  15
ATOM     15  C   UNL     1      -1.983  12.391  18.793  0.00  0.00    +0.000 A 
ATOM     16  C   UNL     1      -2.100  11.587  17.644  0.00  0.00    +0.000 A 
ATOM     17  C   UNL     1      -3.318  10.970  17.323  0.00  0.00    +0.000 A 
ATOM     18  C   UNL     1      -4.417  11.134  18.157  0.00  0.00    +0.000 A 
ATOM     19  F   UNL     1      -5.562  10.496  17.878  0.00  0.00    +0.000 F 
ATOM     20  C   UNL     1      -4.338  11.949  19.276  0.00  0.00    +0.000 A 
ATOM     21  C   UNL     1      -3.141  12.617  19.562  0.00  0.00    +0.000 A 
ENDBRANCH   2  15
BRANCH   1  22
ATOM     22  S   UNL     1       0.308  15.549  19.436  0.00  0.00    +0.000 S 
ATOM     23  O   UNL     1       0.138  15.388  20.866  0.00  0.00    +0.000 OA
ATOM     24  O   UNL     1      -0.168  16.742  18.763  0.00  0.00    +0.000 OA
BRANCH  22  29
ATOM     25  C   UNL     1       6.160  14.871  18.037  0.00  0.00    +0.000 C 
ATOM     26  C   UNL     1       4.710  15.044  18.386  0.00  0.00    +0.000 A 
ATOM     27  C   UNL     1       4.246  14.753  19.674  0.00  0.00    +0.000 A 
ATOM     28  C   UNL     1       2.901  14.914  19.990  0.00  0.00    +0.000 A 
ATOM     29  C   UNL     1       2.012  15.373  19.015  0.00  0.00    +0.000 A 
ATOM     30  C   UNL     1       2.454  15.646  17.721  0.00  0.00    +0.000 A 
ATOM     31  C   UNL     1       3.811  15.490  17.412  0.00  0.00    +0.000 A 
ENDBRANCH  22  29
ENDBRANCH   1  22
TORSDOF 4
ENDMDL
MODEL 7
REMARK VINA RESULT:      -7.5      4.091      9.402
REMARK  Name = 
REMARK  5 active torsions:
REMARK  status: ('A' for Active; 'I' for Inactive)
REMARK    1  A    between atoms: C_1  and  C_2
REMARK    2  A    between atoms: C_5  and  S_6
REMARK    3  A    between atoms: S_6  and  N_9
REMARK    4  A    between atoms: C_10  and  C_22
REMARK    5  A    between atoms: N_11  and  C_12
REMARK                            x       y       z     vdW  Elec       q    Type
REMARK                         _______ _______ _______ _____ _____    ______ ____
ROOT
ATOM      1  N   UNL     1       1.015  10.622  20.632  0.00  0.00    +0.000 N 
ATOM      2  C   UNL     1      -0.088  11.409  20.260  0.00  0.00    +0.000 C 
ATOM      3  N   UNL     1      -1.152  10.780  19.879  0.00  0.00    +0.000 NA
ATOM      4  H   UNL     1       1.973  10.939  20.554  0.00  0.00    +0.000 HD
ENDROOT
BRANCH   3   5
ATOM      5  C   UNL     1      -2.333  11.377  19.398  0.00  0.00    +0.000 A 
ATOM      6  C   UNL     1      -3.048  12.305  20.168  0.00  0.00    +0.000 A 
ATOM      7  C   UNL     1      -4.335  12.703  19.789  0.00  0.00    +0.000 A 
ATOM      8  C   UNL     1      -4.860  12.292  18.569  0.00  0.00    +0.000 A 
ATOM      9  C   UNL     1      -4.081  11.544  17.681  0.00  0.00    +0.000 A 
ATOM     10  C   UNL     1      -4.555  11.274  16.384  0.00  0.00    +0.000 A 
ATOM     11  C   UNL     1      -3.767  10.589  15.461  0.00  0.00    +0.000 A 
ATOM     12  C   UNL     1      -2.510  10.133  15.834  0.00  0.00    +0.000 A 
ATOM     13  C   UNL     1      -2.049  10.350  17.137  0.00  0.00    +0.000 A 
ATOM     14  C   UNL     1      -2.802  11.072  18.088  0.00  0.00    +0.000 A 
ENDBRANCH   3   5
BRANCH   2  15
ATOM     15  C   UNL     1       0.190  12.897  20.319  0.00  0.00    +0.000 A 
ATOM     16  C   UNL     1       0.443  13.641  19.152  0.00  0.00    +0.000 A 
ATOM     17  C   UNL     1       0.629  15.030  19.214  0.00  0.00    +0.000 A 
ATOM     18  C   UNL     1       0.541  15.685  20.435  0.00  0.00    +0.000 A 
ATOM     19  F   UNL     1       0.661  17.018  20.482  0.00  0.00    +0.000 F 
ATOM     20  C   UNL     1       0.327  14.971  21.605  0.00  0.00    +0.000 A 
ATOM     21  C   UNL     1       0.206  13.577  21.552  0.00  0.00    +0.000 A 
ENDBRANCH   2  15
BRANCH   1  22
ATOM     22  S   UNL     1       0.931   9.199  21.506  0.00  0.00    +0.000 S 
ATOM     23  O   UNL     1      -0.456   8.912  21.811  0.00  0.00    +0.000 OA
ATOM     24  O   UNL     1       1.907   9.352  22.568  0.00  0.00    +0.000 OA
BRANCH  22  29
ATOM     25  C   UNL     1       3.167   5.052  17.702  0.00  0.00    +0.000 C 
ATOM     26  C   UNL     1       2.608   6.080  18.642  0.00  0.00    +0.000 A 
ATOM     27  C   UNL     1       2.483   7.416  18.248  0.00  0.00    +0.000 A 
ATOM     28  C   UNL     1       1.965   8.364  19.125  0.00  0.00    +0.000 A 
ATOM     29  C   UNL     1       1.565   7.974  20.405  0.00  0.00    +0.000 A 
ATOM     30  C   UNL     1       1.703   6.651  20.821  0.00  0.00    +0.000 A 
ATOM     31  C   UNL     1       2.216   5.701  19.931  0.00  0.00    +0.000 A 
ENDBRANCH  22  29
ENDBRANCH   1  22
TORSDOF 4
ENDMDL
MODEL 8
REMARK VINA RESULT:      -7.5      4.799      7.772
REMARK  Name = 
REMARK  5 active torsions:
REMARK  status: ('A' for Active; 'I' for Inactive)
REMARK    1  A    between atoms: C_1  and  C_2
REMARK    2  A    between atoms: C_5  and  S_6
REMARK    3  A    between atoms: S_6  and  N_9
REMARK    4  A    between atoms: C_10  and  C_22
REMARK    5  A    between atoms: N_11  and  C_12
REMARK                            x       y       z     vdW  Elec       q    Type
REMARK                         _______ _______ _______ _____ _____    ______ ____
ROOT
ATOM      1  N   UNL     1      -0.769  14.038  18.599  0.00  0.00    +0.000 N 
ATOM      2  C   UNL     1      -0.909  12.761  19.170  0.00  0.00    +0.000 C 
ATOM      3  N   UNL     1       0.099  12.308  19.840  0.00  0.00    +0.000 NA
ATOM      4  H   UNL     1      -1.262  14.328  17.764  0.00  0.00    +0.000 HD
ENDROOT
BRANCH   3   5
ATOM      5  C   UNL     1       0.191  11.030  20.425  0.00  0.00    +0.000 A 
ATOM      6  C   UNL     1      -0.463  10.729  21.628  0.00  0.00    +0.000 A 
ATOM      7  C   UNL     1      -0.171   9.549  22.320  0.00  0.00    +0.000 A 
ATOM      8  C   UNL     1       0.664   8.595  21.751  0.00  0.00    +0.000 A 
ATOM      9  C   UNL     1       1.157   8.772  20.454  0.00  0.00    +0.000 A 
ATOM     10  C   UNL     1       1.863   7.733  19.821  0.00  0.00    +0.000 A 
ATOM     11  C   UNL     1       2.303   7.863  18.505  0.00  0.00    +0.000 A 
ATOM     12  C   UNL     1       2.076   9.047  17.818  0.00  0.00    +0.000 A 
ATOM     13  C   UNL     1       1.421  10.107  18.455  0.00  0.00    +0.000 A 
ATOM     14  C   UNL     1       0.928  10.000  19.772  0.00  0.00    +0.000 A 
ENDBRANCH   3   5
BRANCH   2  15
ATOM     15  C   UNL     1      -2.233  12.102  18.845  0.00  0.00    +0.000 A 
ATOM     16  C   UNL     1      -3.408  12.436  19.544  0.00  0.00    +0.000 A 
ATOM     17  C   UNL     1      -4.640  11.870  19.186  0.00  0.00    +0.000 A 
ATOM     18  C   UNL     1      -4.710  10.987  18.115  0.00  0.00    +0.000 A 
ATOM     19  F   UNL     1      -5.898  10.494  17.740  0.00  0.00    +0.000 F 
ATOM     20  C   UNL     1      -3.563  10.615  17.431  0.00  0.00    +0.000 A 
ATOM     21  C   UNL     1      -2.323  11.130  17.830  0.00  0.00    +0.000 A 
ENDBRANCH   2  15
BRANCH   1  22
ATOM     22  S   UNL     1      -0.022  15.342  19.330  0.00  0.00    +0.000 S 
ATOM     23  O   UNL     1      -0.341  16.547  18.590  0.00  0.00    +0.000 OA
ATOM     24  O   UNL     1       1.356  14.930  19.516  0.00  0.00    +0.000 OA
BRANCH  22  29
ATOM     25  C   UNL     1      -2.597  15.569  24.805  0.00  0.00    +0.000 C 
ATOM     26  C   UNL     1      -1.958  15.518  23.448  0.00  0.00    +0.000 A 
ATOM     27  C   UNL     1      -2.684  15.865  22.303  0.00  0.00    +0.000 A 
ATOM     28  C   UNL     1      -2.086  15.814  21.048  0.00  0.00    +0.000 A 
ATOM     29  C   UNL     1      -0.751  15.419  20.935  0.00  0.00    +0.000 A 
ATOM     30  C   UNL     1      -0.020  15.049  22.063  0.00  0.00    +0.000 A 
ATOM     31  C   UNL     1      -0.626  15.111  23.324  0.00  0.00    +0.000 A 
ENDBRANCH  22  29
ENDBRANCH   1  22
TORSDOF 4
ENDMDL
MODEL 9
REMARK VINA RESULT:      -7.5      2.491      5.333
REMARK  Name = 
REMARK  5 active torsions:
REMARK  status: ('A' for Active; 'I' for Inactive)
REMARK    1  A    between atoms: C_1  and  C_2
REMARK    2  A    between atoms: C_5  and  S_6
REMARK    3  A    between atoms: S_6  and  N_9
REMARK    4  A    between atoms: C_10  and  C_22
REMARK    5  A    between atoms: N_11  and  C_12
REMARK                            x       y       z     vdW  Elec       q    Type
REMARK                         _______ _______ _______ _____ _____    ______ ____
ROOT
ATOM      1  N   UNL     1       3.304   8.300  18.088  0.00  0.00    +0.000 N 
ATOM      2  C   UNL     1       3.375   6.907  17.916  0.00  0.00    +0.000 C 
ATOM      3  N   UNL     1       2.387   6.211  18.376  0.00  0.00    +0.000 NA
ATOM      4  H   UNL     1       4.122   8.892  18.156  0.00  0.00    +0.000 HD
ENDROOT
BRANCH   3   5
ATOM      5  C   UNL     1       2.299   4.806  18.373  0.00  0.00    +0.000 A 
ATOM      6  C   UNL     1       2.409   4.069  17.186  0.00  0.00    +0.000 A 
ATOM      7  C   UNL     1       2.079   2.710  17.157  0.00  0.00    +0.000 A 
ATOM      8  C   UNL     1       1.775   2.042  18.337  0.00  0.00    +0.000 A 
ATOM      9  C   UNL     1       1.871   2.701  19.567  0.00  0.00    +0.000 A 
ATOM     10  C   UNL     1       1.725   1.980  20.765  0.00  0.00    +0.000 A 
ATOM     11  C   UNL     1       1.885   2.605  22.002  0.00  0.00    +0.000 A 
ATOM     12  C   UNL     1       2.155   3.965  22.055  0.00  0.00    +0.000 A 
ATOM     13  C   UNL     1       2.250   4.703  20.870  0.00  0.00    +0.000 A 
ATOM     14  C   UNL     1       2.132   4.100  19.600  0.00  0.00    +0.000 A 
ENDBRANCH   3   5
BRANCH   2  15
ATOM     15  C   UNL     1       4.657   6.449  17.252  0.00  0.00    +0.000 A 
ATOM     16  C   UNL     1       5.765   6.030  18.012  0.00  0.00    +0.000 A 
ATOM     17  C   UNL     1       6.921   5.543  17.385  0.00  0.00    +0.000 A 
ATOM     18  C   UNL     1       6.968   5.449  16.000  0.00  0.00    +0.000 A 
ATOM     19  F   UNL     1       8.051   4.929  15.408  0.00  0.00    +0.000 F 
ATOM     20  C   UNL     1       5.904   5.887  15.226  0.00  0.00    +0.000 A 
ATOM     21  C   UNL     1       4.776   6.434  15.849  0.00  0.00    +0.000 A 
ENDBRANCH   2  15
BRANCH   1  22
ATOM     22  S   UNL     1       1.918   9.220  17.923  0.00  0.00    +0.000 S 
ATOM     23  O   UNL     1       0.972   8.507  17.088  0.00  0.00    +0.000 OA
ATOM     24  O   UNL     1       2.387  10.541  17.549  0.00  0.00    +0.000 OA
BRANCH  22  29
ATOM     25  C   UNL     1      -0.336   9.693  23.522  0.00  0.00    +0.000 C 
ATOM     26  C   UNL     1       0.226   9.580  22.136  0.00  0.00    +0.000 A 
ATOM     27  C   UNL     1      -0.074  10.538  21.162  0.00  0.00    +0.000 A 
ATOM     28  C   UNL     1       0.450  10.427  19.878  0.00  0.00    +0.000 A 
ATOM     29  C   UNL     1       1.284   9.351  19.564  0.00  0.00    +0.000 A 
ATOM     30  C   UNL     1       1.576   8.375  20.516  0.00  0.00    +0.000 A 
ATOM     31  C   UNL     1       1.052   8.499  21.808  0.00  0.00    +0.000 A 
ENDBRANCH  22  29
ENDBRANCH   1  22
TORSDOF 4
ENDMDL
