MODEL 1
REMARK VINA RESULT:      -7.4      0.000      0.000
REMARK  Name = 
REMARK  10 active torsions:
REMARK  status: ('A' for Active; 'I' for Inactive)
REMARK    1  A    between atoms: C_1  and  C_2
REMARK    2  A    between atoms: C_2  and  O_3
REMARK    3  A    between atoms: O_3  and  C_4
REMARK    4  A    between atoms: C_6  and  C_7
REMARK    5  A    between atoms: N_9  and  C_10
REMARK    6  A    between atoms: C_10  and  C_11
REMARK    7  A    between atoms: C_13  and  C_14
REMARK    8  A    between atoms: C_14  and  C_15
REMARK    9  A    between atoms: C_20  and  O_21
REMARK   10  A    between atoms: O_21  and  C_22
REMARK                            x       y       z     vdW  Elec       q    Type
REMARK                         _______ _______ _______ _____ _____    ______ ____
ROOT
ATOM      1  C   UNL     1       6.219   4.691  18.137  0.00  0.00    +0.000 C 
ATOM      2  O   UNL     1       7.311   4.473  18.635  0.00  0.00    +0.000 OA
ATOM      3  N   UNL     1       6.028   5.196  16.868  0.00  0.00    +0.000 N 
ATOM      4  H   UNL     1       5.127   5.585  16.626  0.00  0.00    +0.000 HD
ENDROOT
BRANCH   1   7
ATOM      5  C   UNL     1       2.812   5.370  19.672  0.00  0.00    +0.000 A 
ATOM      6  C   UNL     1       4.094   5.564  19.115  0.00  0.00    +0.000 A 
ATOM      7  C   UNL     1       4.961   4.484  18.915  0.00  0.00    +0.000 A 
ATOM      8  C   UNL     1       4.609   3.226  19.397  0.00  0.00    +0.000 A 
ATOM      9  C   UNL     1       3.380   3.048  20.029  0.00  0.00    +0.000 A 
ATOM     10  C   UNL     1       2.460   4.100  20.156  0.00  0.00    +0.000 A 
BRANCH  10  11
ATOM     11  O   UNL     1       1.307   3.668  20.750  0.00  0.00    +0.000 OA
ATOM     12  C   UNL     1       1.336   2.623  21.706  0.00  0.00    +0.000 C 
ENDBRANCH  10  11
BRANCH   5  13
ATOM     13  O   UNL     1       1.900   6.396  19.735  0.00  0.00    +0.000 OA
BRANCH  13  15
ATOM     14  C   UNL     1       1.957   8.069  18.004  0.00  0.00    +0.000 C 
ATOM     15  C   UNL     1       2.426   7.687  19.394  0.00  0.00    +0.000 C 
ENDBRANCH  13  15
ENDBRANCH   5  13
ENDBRANCH   1   7
BRANCH   3  16
ATOM     16  C   UNL     1       7.128   5.534  15.992  0.00  0.00    +0.000 C 
BRANCH  16  17
ATOM     17  C   UNL     1       6.890   4.861  14.694  0.00  0.00    +0.000 A 
ATOM     18  C   UNL     1       6.055   3.850  14.282  0.00  0.00    +0.000 A 
ATOM     19  C   UNL     1       6.299   3.734  12.896  0.00  0.00    +0.000 A 
ATOM     20  N   UNL     1       7.227   4.613  12.494  0.00  0.00    +0.000 NA
ATOM     21  O   UNL     1       7.599   5.318  13.627  0.00  0.00    +0.000 OA
BRANCH  19  22
ATOM     22  C   UNL     1       5.660   2.804  11.923  0.00  0.00    +0.000 C 
ATOM     23  C   UNL     1       4.301   3.301  11.451  0.00  0.00    +0.000 C 
ENDBRANCH  19  22
ENDBRANCH  16  17
ENDBRANCH   3  16
TORSDOF 7
ENDMDL
MODEL 2
REMARK VINA RESULT:      -7.4      1.390      1.492
REMARK  Name = 
REMARK  10 active torsions:
REMARK  status: ('A' for Active; 'I' for Inactive)
REMARK    1  A    between atoms: C_1  and  C_2
REMARK    2  A    between atoms: C_2  and  O_3
REMARK    3  A    between atoms: O_3  and  C_4
REMARK    4  A    between atoms: C_6  and  C_7
REMARK    5  A    between atoms: N_9  and  C_10
REMARK    6  A    between atoms: C_10  and  C_11
REMARK    7  A    between atoms: C_13  and  C_14
REMARK    8  A    between atoms: C_14  and  C_15
REMARK    9  A    between atoms: C_20  and  O_21
REMARK   10  A    between atoms: O_21  and  C_22
REMARK                            x       y       z     vdW  Elec       q    Type
REMARK                         _______ _______ _______ _____ _____    ______ ____
ROOT
ATOM      1  C   UNL     1       4.936   5.944  17.094  0.00  0.00    +0.000 C 
ATOM      2  O   UNL     1       4.711   7.013  16.552  0.00  0.00    +0.000 OA
ATOM      3  N   UNL     1       6.068   5.183  16.877  0.00  0.00    +0.000 N 
ATOM      4  H   UNL     1       6.064   4.212  17.154  0.00  0.00    +0.000 HD
ENDROOT
BRANCH   1   7
ATOM      5  C   UNL     1       2.274   5.602  19.781  0.00  0.00    +0.000 A 
ATOM      6  C   UNL     1       3.354   6.097  19.020  0.00  0.00    +0.000 A 
ATOM      7  C   UNL     1       3.940   5.319  18.014  0.00  0.00    +0.000 A 
ATOM      8  C   UNL     1       3.543   3.994  17.856  0.00  0.00    +0.000 A 
ATOM      9  C   UNL     1       2.536   3.474  18.666  0.00  0.00    +0.000 A 
ATOM     10  C   UNL     1       1.875   4.266  19.618  0.00  0.00    +0.000 A 
BRANCH  10  11
ATOM     11  O   UNL     1       0.889   3.556  20.242  0.00  0.00    +0.000 OA
ATOM     12  C   UNL     1       1.188   2.731  21.354  0.00  0.00    +0.000 C 
ENDBRANCH  10  11
BRANCH   5  13
ATOM     13  O   UNL     1       1.598   6.409  20.665  0.00  0.00    +0.000 OA
BRANCH  13  15
ATOM     14  C   UNL     1       0.845   8.592  21.344  0.00  0.00    +0.000 C 
ATOM     15  C   UNL     1       1.825   7.815  20.489  0.00  0.00    +0.000 C 
ENDBRANCH  13  15
ENDBRANCH   5  13
ENDBRANCH   1   7
BRANCH   3  16
ATOM     16  C   UNL     1       7.110   5.585  15.959  0.00  0.00    +0.000 C 
BRANCH  16  17
ATOM     17  C   UNL     1       6.874   4.882  14.677  0.00  0.00    +0.000 A 
ATOM     18  C   UNL     1       6.054   3.848  14.293  0.00  0.00    +0.000 A 
ATOM     19  C   UNL     1       6.289   3.709  12.907  0.00  0.00    +0.000 A 
ATOM     20  N   UNL     1       7.197   4.596  12.480  0.00  0.00    +0.000 NA
ATOM     21  O   UNL     1       7.566   5.330  13.595  0.00  0.00    +0.000 OA
BRANCH  19  22
ATOM     22  C   UNL     1       5.658   2.748  11.958  0.00  0.00    +0.000 C 
ATOM     23  C   UNL     1       4.345   3.268  11.393  0.00  0.00    +0.000 C 
ENDBRANCH  19  22
ENDBRANCH  16  17
ENDBRANCH   3  16
TORSDOF 7
ENDMDL
MODEL 3
REMARK VINA RESULT:      -7.2      2.510      4.879
REMARK  Name = 
REMARK  10 active torsions:
REMARK  status: ('A' for Active; 'I' for Inactive)
REMARK    1  A    between atoms: C_1  and  C_2
REMARK    2  A    between atoms: C_2  and  O_3
REMARK    3  A    between atoms: O_3  and  C_4
REMARK    4  A    between atoms: C_6  and  C_7
REMARK    5  A    between atoms: N_9  and  C_10
REMARK    6  A    between atoms: C_10  and  C_11
REMARK    7  A    between atoms: C_13  and  C_14
REMARK    8  A    between atoms: C_14  and  C_15
REMARK    9  A    between atoms: C_20  and  O_21
REMARK   10  A    between atoms: O_21  and  C_22
REMARK                            x       y       z     vdW  Elec       q    Type
REMARK                         _______ _______ _______ _____ _____    ______ ____
ROOT
ATOM      1  C   UNL     1       2.847   5.804  18.803  0.00  0.00    +0.000 C 
ATOM      2  O   UNL     1       2.245   4.905  18.238  0.00  0.00    +0.000 OA
ATOM      3  N   UNL     1       4.113   5.680  19.337  0.00  0.00    +0.000 N 
ATOM      4  H   UNL     1       4.434   6.370  20.000  0.00  0.00    +0.000 HD
ENDROOT
BRANCH   1   7
ATOM      5  C   UNL     1       1.350   8.793  20.607  0.00  0.00    +0.000 A 
ATOM      6  C   UNL     1       1.776   7.480  20.313  0.00  0.00    +0.000 A 
ATOM      7  C   UNL     1       2.211   7.136  19.028  0.00  0.00    +0.000 A 
ATOM      8  C   UNL     1       2.091   8.063  17.995  0.00  0.00    +0.000 A 
ATOM      9  C   UNL     1       1.587   9.334  18.264  0.00  0.00    +0.000 A 
ATOM     10  C   UNL     1       1.232   9.725  19.564  0.00  0.00    +0.000 A 
BRANCH  10  11
ATOM     11  O   UNL     1       0.827  11.030  19.586  0.00  0.00    +0.000 OA
ATOM     12  C   UNL     1      -0.533  11.366  19.374  0.00  0.00    +0.000 C 
ENDBRANCH  10  11
BRANCH   5  13
ATOM     13  O   UNL     1       1.065   9.177  21.895  0.00  0.00    +0.000 OA
BRANCH  13  15
ATOM     14  C   UNL     1      -0.762  10.249  23.038  0.00  0.00    +0.000 C 
ATOM     15  C   UNL     1      -0.309   9.019  22.279  0.00  0.00    +0.000 C 
ENDBRANCH  13  15
ENDBRANCH   5  13
ENDBRANCH   1   7
BRANCH   3  16
ATOM     16  C   UNL     1       4.860   4.443  19.287  0.00  0.00    +0.000 C 
BRANCH  16  17
ATOM     17  C   UNL     1       5.715   4.484  18.078  0.00  0.00    +0.000 A 
ATOM     18  C   UNL     1       5.460   4.553  16.731  0.00  0.00    +0.000 A 
ATOM     19  C   UNL     1       6.738   4.611  16.132  0.00  0.00    +0.000 A 
ATOM     20  N   UNL     1       7.706   4.573  17.057  0.00  0.00    +0.000 NA
ATOM     21  O   UNL     1       7.061   4.490  18.280  0.00  0.00    +0.000 OA
BRANCH  19  22
ATOM     22  C   UNL     1       7.073   4.713  14.684  0.00  0.00    +0.000 C 
ATOM     23  C   UNL     1       6.096   3.944  13.806  0.00  0.00    +0.000 C 
ENDBRANCH  19  22
ENDBRANCH  16  17
ENDBRANCH   3  16
TORSDOF 7
ENDMDL
MODEL 4
REMARK VINA RESULT:      -7.1      1.642      2.672
REMARK  Name = 
REMARK  10 active torsions:
REMARK  status: ('A' for Active; 'I' for Inactive)
REMARK    1  A    between atoms: C_1  and  C_2
REMARK    2  A    between atoms: C_2  and  O_3
REMARK    3  A    between atoms: O_3  and  C_4
REMARK    4  A    between atoms: C_6  and  C_7
REMARK    5  A    between atoms: N_9  and  C_10
REMARK    6  A    between atoms: C_10  and  C_11
REMARK    7  A    between atoms: C_13  and  C_14
REMARK    8  A    between atoms: C_14  and  C_15
REMARK    9  A    between atoms: C_20  and  O_21
REMARK   10  A    between atoms: O_21  and  C_22
REMARK                            x       y       z     vdW  Elec       q    Type
REMARK                         _______ _______ _______ _____ _____    ______ ____
ROOT
ATOM      1  C   UNL     1       5.093   6.033  16.618  0.00  0.00    +0.000 C 
ATOM      2  O   UNL     1       4.946   6.957  15.835  0.00  0.00    +0.000 OA
ATOM      3  N   UNL     1       6.215   5.231  16.676  0.00  0.00    +0.000 N 
ATOM      4  H   UNL     1       6.160   4.347  17.160  0.00  0.00    +0.000 HD
ENDROOT
BRANCH   1   7
ATOM      5  C   UNL     1       2.251   4.048  18.172  0.00  0.00    +0.000 A 
ATOM      6  C   UNL     1       3.161   4.573  17.229  0.00  0.00    +0.000 A 
ATOM      7  C   UNL     1       4.005   5.640  17.562  0.00  0.00    +0.000 A 
ATOM      8  C   UNL     1       3.848   6.278  18.789  0.00  0.00    +0.000 A 
ATOM      9  C   UNL     1       2.889   5.818  19.689  0.00  0.00    +0.000 A 
ATOM     10  C   UNL     1       2.097   4.694  19.409  0.00  0.00    +0.000 A 
BRANCH  10  11
ATOM     11  O   UNL     1       1.280   4.399  20.464  0.00  0.00    +0.000 OA
ATOM     12  C   UNL     1       1.764   3.647  21.562  0.00  0.00    +0.000 C 
ENDBRANCH  10  11
BRANCH   5  13
ATOM     13  O   UNL     1       1.528   2.911  17.905  0.00  0.00    +0.000 OA
BRANCH  13  15
ATOM     14  C   UNL     1       3.471   1.564  18.356  0.00  0.00    +0.000 C 
ATOM     15  C   UNL     1       1.984   1.735  18.590  0.00  0.00    +0.000 C 
ENDBRANCH  13  15
ENDBRANCH   5  13
ENDBRANCH   1   7
BRANCH   3  16
ATOM     16  C   UNL     1       7.343   5.408  15.788  0.00  0.00    +0.000 C 
BRANCH  16  17
ATOM     17  C   UNL     1       7.009   4.748  14.505  0.00  0.00    +0.000 A 
ATOM     18  C   UNL     1       6.147   3.740  14.146  0.00  0.00    +0.000 A 
ATOM     19  C   UNL     1       6.288   3.640  12.744  0.00  0.00    +0.000 A 
ATOM     20  N   UNL     1       7.182   4.524  12.283  0.00  0.00    +0.000 NA
ATOM     21  O   UNL     1       7.637   5.218  13.393  0.00  0.00    +0.000 OA
BRANCH  19  22
ATOM     22  C   UNL     1       5.578   2.719  11.811  0.00  0.00    +0.000 C 
ATOM     23  C   UNL     1       4.243   3.280  11.345  0.00  0.00    +0.000 C 
ENDBRANCH  19  22
ENDBRANCH  16  17
ENDBRANCH   3  16
TORSDOF 7
ENDMDL
MODEL 5
REMARK VINA RESULT:      -7.0      1.867      2.400
REMARK  Name = 
REMARK  10 active torsions:
REMARK  status: ('A' for Active; 'I' for Inactive)
REMARK    1  A    between atoms: C_1  and  C_2
REMARK    2  A    between atoms: C_2  and  O_3
REMARK    3  A    between atoms: O_3  and  C_4
REMARK    4  A    between atoms: C_6  and  C_7
REMARK    5  A    between atoms: N_9  and  C_10
REMARK    6  A    between atoms: C_10  and  C_11
REMARK    7  A    between atoms: C_13  and  C_14
REMARK    8  A    between atoms: C_14  and  C_15
REMARK    9  A    between atoms: C_20  and  O_21
REMARK   10  A    between atoms: O_21  and  C_22
REMARK                            x       y       z     vdW  Elec       q    Type
REMARK                         _______ _______ _______ _____ _____    ______ ____
ROOT
ATOM      1  C   UNL     1       5.381   5.498  15.726  0.00  0.00    +0.000 C 
ATOM      2  O   UNL     1       5.658   6.574  15.222  0.00  0.00    +0.000 OA
ATOM      3  N   UNL     1       5.821   4.278  15.253  0.00  0.00    +0.000 N 
ATOM      4  H   UNL     1       5.352   3.437  15.558  0.00  0.00    +0.000 HD
ENDROOT
BRANCH   1   7
ATOM      5  C   UNL     1       2.865   6.521  18.382  0.00  0.00    +0.000 A 
ATOM      6  C   UNL     1       3.886   6.579  17.410  0.00  0.00    +0.000 A 
ATOM      7  C   UNL     1       4.457   5.408  16.896  0.00  0.00    +0.000 A 
ATOM      8  C   UNL     1       4.111   4.179  17.450  0.00  0.00    +0.000 A 
ATOM      9  C   UNL     1       3.166   4.124  18.473  0.00  0.00    +0.000 A 
ATOM     10  C   UNL     1       2.517   5.279  18.937  0.00  0.00    +0.000 A 
BRANCH  10  11
ATOM     11  O   UNL     1       1.593   4.966  19.893  0.00  0.00    +0.000 OA
ATOM     12  C   UNL     1       1.601   3.693  20.514  0.00  0.00    +0.000 C 
ENDBRANCH  10  11
BRANCH   5  13
ATOM     13  O   UNL     1       2.198   7.653  18.781  0.00  0.00    +0.000 OA
BRANCH  13  15
ATOM     14  C   UNL     1       1.629   9.965  18.423  0.00  0.00    +0.000 C 
ATOM     15  C   UNL     1       2.094   8.674  17.778  0.00  0.00    +0.000 C 
ENDBRANCH  13  15
ENDBRANCH   5  13
ENDBRANCH   1   7
BRANCH   3  16
ATOM     16  C   UNL     1       6.661   4.156  14.082  0.00  0.00    +0.000 C 
BRANCH  16  17
ATOM     17  C   UNL     1       5.829   3.597  12.991  0.00  0.00    +0.000 A 
ATOM     18  C   UNL     1       4.638   3.967  12.415  0.00  0.00    +0.000 A 
ATOM     19  C   UNL     1       4.437   3.021  11.385  0.00  0.00    +0.000 A 
ATOM     20  N   UNL     1       5.438   2.131  11.344  0.00  0.00    +0.000 NA
ATOM     21  O   UNL     1       6.310   2.494  12.357  0.00  0.00    +0.000 OA
BRANCH  19  22
ATOM     22  C   UNL     1       3.307   2.941  10.416  0.00  0.00    +0.000 C 
ATOM     23  C   UNL     1       3.015   4.279   9.754  0.00  0.00    +0.000 C 
ENDBRANCH  19  22
ENDBRANCH  16  17
ENDBRANCH   3  16
TORSDOF 7
ENDMDL
MODEL 6
REMARK VINA RESULT:      -7.0      0.957      2.765
REMARK  Name = 
REMARK  10 active torsions:
REMARK  status: ('A' for Active; 'I' for Inactive)
REMARK    1  A    between atoms: C_1  and  C_2
REMARK    2  A    between atoms: C_2  and  O_3
REMARK    3  A    between atoms: O_3  and  C_4
REMARK    4  A    between atoms: C_6  and  C_7
REMARK    5  A    between atoms: N_9  and  C_10
REMARK    6  A    between atoms: C_10  and  C_11
REMARK    7  A    between atoms: C_13  and  C_14
REMARK    8  A    between atoms: C_14  and  C_15
REMARK    9  A    between atoms: C_20  and  O_21
REMARK   10  A    between atoms: O_21  and  C_22
REMARK                            x       y       z     vdW  Elec       q    Type
REMARK                         _______ _______ _______ _____ _____    ______ ____
ROOT
ATOM      1  C   UNL     1       5.757   5.190  17.840  0.00  0.00    +0.000 C 
ATOM      2  O   UNL     1       6.465   4.412  18.458  0.00  0.00    +0.000 OA
ATOM      3  N   UNL     1       6.083   5.736  16.615  0.00  0.00    +0.000 N 
ATOM      4  H   UNL     1       5.581   6.552  16.294  0.00  0.00    +0.000 HD
ENDROOT
BRANCH   1   7
ATOM      5  C   UNL     1       2.715   5.448  20.100  0.00  0.00    +0.000 A 
ATOM      6  C   UNL     1       3.825   4.928  19.400  0.00  0.00    +0.000 A 
ATOM      7  C   UNL     1       4.469   5.682  18.412  0.00  0.00    +0.000 A 
ATOM      8  C   UNL     1       3.925   6.903  18.020  0.00  0.00    +0.000 A 
ATOM      9  C   UNL     1       2.776   7.380  18.648  0.00  0.00    +0.000 A 
ATOM     10  C   UNL     1       2.170   6.680  19.703  0.00  0.00    +0.000 A 
BRANCH  10  11
ATOM     11  O   UNL     1       1.102   7.374  20.197  0.00  0.00    +0.000 OA
ATOM     12  C   UNL     1       1.291   8.614  20.856  0.00  0.00    +0.000 C 
ENDBRANCH  10  11
BRANCH   5  13
ATOM     13  O   UNL     1       2.172   4.779  21.169  0.00  0.00    +0.000 OA
BRANCH  13  15
ATOM     14  C   UNL     1       1.550   2.541  21.800  0.00  0.00    +0.000 C 
ATOM     15  C   UNL     1       1.326   3.674  20.819  0.00  0.00    +0.000 C 
ENDBRANCH  13  15
ENDBRANCH   5  13
ENDBRANCH   1   7
BRANCH   3  16
ATOM     16  C   UNL     1       7.326   5.441  15.939  0.00  0.00    +0.000 C 
BRANCH  16  17
ATOM     17  C   UNL     1       6.991   4.802  14.645  0.00  0.00    +0.000 A 
ATOM     18  C   UNL     1       6.130   3.799  14.271  0.00  0.00    +0.000 A 
ATOM     19  C   UNL     1       6.267   3.722  12.867  0.00  0.00    +0.000 A 
ATOM     20  N   UNL     1       7.160   4.616  12.419  0.00  0.00    +0.000 NA
ATOM     21  O   UNL     1       7.616   5.291  13.539  0.00  0.00    +0.000 OA
BRANCH  19  22
ATOM     22  C   UNL     1       5.557   2.816  11.920  0.00  0.00    +0.000 C 
ATOM     23  C   UNL     1       4.221   3.384  11.465  0.00  0.00    +0.000 C 
ENDBRANCH  19  22
ENDBRANCH  16  17
ENDBRANCH   3  16
TORSDOF 7
ENDMDL
MODEL 7
REMARK VINA RESULT:      -6.9      2.379      7.250
REMARK  Name = 
REMARK  10 active torsions:
REMARK  status: ('A' for Active; 'I' for Inactive)
REMARK    1  A    between atoms: C_1  and  C_2
REMARK    2  A    between atoms: C_2  and  O_3
REMARK    3  A    between atoms: O_3  and  C_4
REMARK    4  A    between atoms: C_6  and  C_7
REMARK    5  A    between atoms: N_9  and  C_10
REMARK    6  A    between atoms: C_10  and  C_11
REMARK    7  A    between atoms: C_13  and  C_14
REMARK    8  A    between atoms: C_14  and  C_15
REMARK    9  A    between atoms: C_20  and  O_21
REMARK   10  A    between atoms: O_21  and  C_22
REMARK                            x       y       z     vdW  Elec       q    Type
REMARK                         _______ _______ _______ _____ _____    ______ ____
ROOT
ATOM      1  C   UNL     1       4.118   3.434  17.230  0.00  0.00    +0.000 C 
ATOM      2  O   UNL     1       2.943   3.304  16.928  0.00  0.00    +0.000 OA
ATOM      3  N   UNL     1       4.654   3.071  18.449  0.00  0.00    +0.000 N 
ATOM      4  H   UNL     1       5.557   3.439  18.715  0.00  0.00    +0.000 HD
ENDROOT
BRANCH   1   7
ATOM      5  C   UNL     1       6.933   5.652  15.971  0.00  0.00    +0.000 A 
ATOM      6  C   UNL     1       5.874   5.144  16.754  0.00  0.00    +0.000 A 
ATOM      7  C   UNL     1       5.089   4.079  16.297  0.00  0.00    +0.000 A 
ATOM      8  C   UNL     1       5.265   3.608  14.999  0.00  0.00    +0.000 A 
ATOM      9  C   UNL     1       6.252   4.167  14.189  0.00  0.00    +0.000 A 
ATOM     10  C   UNL     1       7.108   5.173  14.663  0.00  0.00    +0.000 A 
BRANCH  10  11
ATOM     11  O   UNL     1       8.029   5.514  13.713  0.00  0.00    +0.000 OA
ATOM     12  C   UNL     1       7.774   5.269  12.341  0.00  0.00    +0.000 C 
ENDBRANCH  10  11
BRANCH   5  13
ATOM     13  O   UNL     1       7.800   6.593  16.471  0.00  0.00    +0.000 OA
BRANCH  13  15
ATOM     14  C   UNL     1       7.878   8.645  17.728  0.00  0.00    +0.000 C 
ATOM     15  C   UNL     1       7.371   7.217  17.690  0.00  0.00    +0.000 C 
ENDBRANCH  13  15
ENDBRANCH   5  13
ENDBRANCH   1   7
BRANCH   3  16
ATOM     16  C   UNL     1       3.855   2.502  19.511  0.00  0.00    +0.000 C 
BRANCH  16  17
ATOM     17  C   UNL     1       2.920   3.551  19.980  0.00  0.00    +0.000 A 
ATOM     18  C   UNL     1       3.053   4.886  20.272  0.00  0.00    +0.000 A 
ATOM     19  C   UNL     1       1.748   5.303  20.616  0.00  0.00    +0.000 A 
ATOM     20  N   UNL     1       0.881   4.285  20.543  0.00  0.00    +0.000 NA
ATOM     21  O   UNL     1       1.621   3.183  20.146  0.00  0.00    +0.000 OA
BRANCH  19  22
ATOM     22  C   UNL     1       1.290   6.666  21.009  0.00  0.00    +0.000 C 
ATOM     23  C   UNL     1       1.822   7.747  20.080  0.00  0.00    +0.000 C 
ENDBRANCH  19  22
ENDBRANCH  16  17
ENDBRANCH   3  16
TORSDOF 7
ENDMDL
MODEL 8
REMARK VINA RESULT:      -6.9      1.245      3.102
REMARK  Name = 
REMARK  10 active torsions:
REMARK  status: ('A' for Active; 'I' for Inactive)
REMARK    1  A    between atoms: C_1  and  C_2
REMARK    2  A    between atoms: C_2  and  O_3
REMARK    3  A    between atoms: O_3  and  C_4
REMARK    4  A    between atoms: C_6  and  C_7
REMARK    5  A    between atoms: N_9  and  C_10
REMARK    6  A    between atoms: C_10  and  C_11
REMARK    7  A    between atoms: C_13  and  C_14
REMARK    8  A    between atoms: C_14  and  C_15
REMARK    9  A    between atoms: C_20  and  O_21
REMARK   10  A    between atoms: O_21  and  C_22
REMARK                            x       y       z     vdW  Elec       q    Type
REMARK                         _______ _______ _______ _____ _____    ______ ____
ROOT
ATOM      1  C   UNL     1       5.332   5.182  17.376  0.00  0.00    +0.000 C 
ATOM      2  O   UNL     1       5.559   4.061  17.801  0.00  0.00    +0.000 OA
ATOM      3  N   UNL     1       6.109   5.831  16.437  0.00  0.00    +0.000 N 
ATOM      4  H   UNL     1       6.012   6.831  16.329  0.00  0.00    +0.000 HD
ENDROOT
BRANCH   1   7
ATOM      5  C   UNL     1       2.448   6.278  19.591  0.00  0.00    +0.000 A 
ATOM      6  C   UNL     1       3.402   5.473  18.933  0.00  0.00    +0.000 A 
ATOM      7  C   UNL     1       4.197   5.994  17.906  0.00  0.00    +0.000 A 
ATOM      8  C   UNL     1       3.949   7.281  17.435  0.00  0.00    +0.000 A 
ATOM      9  C   UNL     1       2.947   8.050  18.024  0.00  0.00    +0.000 A 
ATOM     10  C   UNL     1       2.201   7.576  19.115  0.00  0.00    +0.000 A 
BRANCH  10  11
ATOM     11  O   UNL     1       1.327   8.528  19.557  0.00  0.00    +0.000 OA
ATOM     12  C   UNL     1       1.022   9.655  18.754  0.00  0.00    +0.000 C 
ENDBRANCH  10  11
BRANCH   5  13
ATOM     13  O   UNL     1       1.770   5.820  20.694  0.00  0.00    +0.000 OA
BRANCH  13  15
ATOM     14  C   UNL     1       2.069   3.610  21.600  0.00  0.00    +0.000 C 
ATOM     15  C   UNL     1       1.315   4.463  20.599  0.00  0.00    +0.000 C 
ENDBRANCH  13  15
ENDBRANCH   5  13
ENDBRANCH   1   7
BRANCH   3  16
ATOM     16  C   UNL     1       7.296   5.237  15.865  0.00  0.00    +0.000 C 
BRANCH  16  17
ATOM     17  C   UNL     1       6.923   4.672  14.547  0.00  0.00    +0.000 A 
ATOM     18  C   UNL     1       5.996   3.748  14.133  0.00  0.00    +0.000 A 
ATOM     19  C   UNL     1       6.135   3.714  12.727  0.00  0.00    +0.000 A 
ATOM     20  N   UNL     1       7.089   4.559  12.316  0.00  0.00    +0.000 NA
ATOM     21  O   UNL     1       7.586   5.158  13.462  0.00  0.00    +0.000 OA
BRANCH  19  22
ATOM     22  C   UNL     1       5.367   2.897  11.746  0.00  0.00    +0.000 C 
ATOM     23  C   UNL     1       6.076   1.597  11.392  0.00  0.00    +0.000 C 
ENDBRANCH  19  22
ENDBRANCH  16  17
ENDBRANCH   3  16
TORSDOF 7
ENDMDL
MODEL 9
REMARK VINA RESULT:      -6.9      1.459      3.024
REMARK  Name = 
REMARK  10 active torsions:
REMARK  status: ('A' for Active; 'I' for Inactive)
REMARK    1  A    between atoms: C_1  and  C_2
REMARK    2  A    between atoms: C_2  and  O_3
REMARK    3  A    between atoms: O_3  and  C_4
REMARK    4  A    between atoms: C_6  and  C_7
REMARK    5  A    between atoms: N_9  and  C_10
REMARK    6  A    between atoms: C_10  and  C_11
REMARK    7  A    between atoms: C_13  and  C_14
REMARK    8  A    between atoms: C_14  and  C_15
REMARK    9  A    between atoms: C_20  and  O_21
REMARK   10  A    between atoms: O_21  and  C_22
REMARK                            x       y       z     vdW  Elec       q    Type
REMARK                         _______ _______ _______ _____ _____    ______ ____
ROOT
ATOM      1  C   UNL     1       5.464   6.296  17.134  0.00  0.00    +0.000 C 
ATOM      2  O   UNL     1       5.795   7.055  16.237  0.00  0.00    +0.000 OA
ATOM      3  N   UNL     1       6.131   5.131  17.455  0.00  0.00    +0.000 N 
ATOM      4  H   UNL     1       5.661   4.439  18.022  0.00  0.00    +0.000 HD
ENDROOT
BRANCH   1   7
ATOM      5  C   UNL     1       2.807   5.899  19.819  0.00  0.00    +0.000 A 
ATOM      6  C   UNL     1       3.850   5.612  18.912  0.00  0.00    +0.000 A 
ATOM      7  C   UNL     1       4.229   6.542  17.937  0.00  0.00    +0.000 A 
ATOM      8  C   UNL     1       3.479   7.703  17.771  0.00  0.00    +0.000 A 
ATOM      9  C   UNL     1       2.393   7.949  18.608  0.00  0.00    +0.000 A 
ATOM     10  C   UNL     1       2.054   7.071  19.650  0.00  0.00    +0.000 A 
BRANCH  10  11
ATOM     11  O   UNL     1       0.998   7.555  20.368  0.00  0.00    +0.000 OA
ATOM     12  C   UNL     1       1.206   8.474  21.426  0.00  0.00    +0.000 C 
ENDBRANCH  10  11
BRANCH   5  13
ATOM     13  O   UNL     1       2.528   5.059  20.870  0.00  0.00    +0.000 OA
BRANCH  13  15
ATOM     14  C   UNL     1       1.706   2.884  21.491  0.00  0.00    +0.000 C 
ATOM     15  C   UNL     1       1.491   4.101  20.614  0.00  0.00    +0.000 C 
ENDBRANCH  13  15
ENDBRANCH   5  13
ENDBRANCH   1   7
BRANCH   3  16
ATOM     16  C   UNL     1       7.304   4.684  16.737  0.00  0.00    +0.000 C 
BRANCH  16  17
ATOM     17  C   UNL     1       6.898   4.418  15.337  0.00  0.00    +0.000 A 
ATOM     18  C   UNL     1       5.930   3.635  14.757  0.00  0.00    +0.000 A 
ATOM     19  C   UNL     1       6.057   3.887  13.373  0.00  0.00    +0.000 A 
ATOM     20  N   UNL     1       7.043   4.761  13.129  0.00  0.00    +0.000 NA
ATOM     21  O   UNL     1       7.572   5.091  14.366  0.00  0.00    +0.000 OA
BRANCH  19  22
ATOM     22  C   UNL     1       5.249   3.319  12.256  0.00  0.00    +0.000 C 
ATOM     23  C   UNL     1       5.913   2.108  11.616  0.00  0.00    +0.000 C 
ENDBRANCH  19  22
ENDBRANCH  16  17
ENDBRANCH   3  16
TORSDOF 7
ENDMDL
