MODEL 1
REMARK VINA RESULT:      -7.9      0.000      0.000
REMARK  Name = 
REMARK  9 active torsions:
REMARK  status: ('A' for Active; 'I' for Inactive)
REMARK    1  A    between atoms: C_1  and  C_2
REMARK    2  A    between atoms: C_4  and  C_5
REMARK    3  A    between atoms: C_6  and  N_7
REMARK    4  A    between atoms: C_8  and  C_10
REMARK    5  A    between atoms: C_10  and  N_11
REMARK    6  A    between atoms: C_14  and  C_15
REMARK    7  A    between atoms: C_17  and  C_18
REMARK    8  A    between atoms: C_26  and  N_27
REMARK    9  A    between atoms: C_28  and  C_29
REMARK                            x       y       z     vdW  Elec       q    Type
REMARK                         _______ _______ _______ _____ _____    ______ ____
ROOT
ATOM      1  N   UNL     1       1.003  10.543  19.655  0.00  0.00    +0.000 N 
ATOM      2  N   UNL     1       0.534   9.687  20.587  0.00  0.00    +0.000 NA
ATOM      3  N   UNL     1       1.059   8.495  20.342  0.00  0.00    +0.000 NA
ATOM      4  C   UNL     1       1.802   8.578  19.190  0.00  0.00    +0.000 A 
ATOM      5  C   UNL     1       1.728   9.866  18.688  0.00  0.00    +0.000 A 
ENDROOT
BRANCH   4   6
ATOM      6  C   UNL     1       2.535   7.407  18.621  0.00  0.00    +0.000 A 
ATOM      7  N   UNL     1       3.668   7.438  17.934  0.00  0.00    +0.000 NA
ATOM      8  C   UNL     1       3.921   6.098  17.688  0.00  0.00    +0.000 A 
ATOM      9  N   UNL     1       2.979   5.276  18.175  0.00  0.00    +0.000 NA
ATOM     10  O   UNL     1       2.074   6.127  18.789  0.00  0.00    +0.000 OA
BRANCH   8  11
ATOM     11  C   UNL     1       5.098   5.605  16.970  0.00  0.00    +0.000 A 
ATOM     12  C   UNL     1       5.196   5.702  15.582  0.00  0.00    +0.000 A 
ATOM     13  C   UNL     1       6.343   5.219  14.963  0.00  0.00    +0.000 A 
ATOM     14  N   UNL     1       7.376   4.655  15.623  0.00  0.00    +0.000 NA
ATOM     15  C   UNL     1       7.268   4.573  16.964  0.00  0.00    +0.000 A 
ATOM     16  C   UNL     1       6.166   5.028  17.672  0.00  0.00    +0.000 A 
ENDBRANCH   8  11
ENDBRANCH   4   6
BRANCH   5  17
ATOM     17  N   UNL     1       2.208  10.437  17.557  0.00  0.00    +0.000 N 
ATOM     18  H   UNL     1       2.955   9.959  17.045  0.00  0.00    +0.000 HD
ATOM     19  H   UNL     1       1.663  11.055  16.961  0.00  0.00    +0.000 HD
ENDBRANCH   5  17
BRANCH   1  20
ATOM     20  C   UNL     1       0.622  11.947  19.662  0.00  0.00    +0.000 C 
BRANCH  20  22
ATOM     21  N   UNL     1      -1.831  11.546  19.395  0.00  0.00    +0.000 N 
ATOM     22  C   UNL     1      -0.750  12.369  19.147  0.00  0.00    +0.000 C 
ATOM     23  O   UNL     1      -0.823  13.411  18.487  0.00  0.00    +0.000 OA
ATOM     24  H   UNL     1      -1.587  10.576  19.587  0.00  0.00    +0.000 HD
BRANCH  21  30
ATOM     25  C   UNL     1      -7.127  12.595  17.393  0.00  0.00    +0.000 C 
ATOM     26  C   UNL     1      -5.755  12.299  17.921  0.00  0.00    +0.000 A 
ATOM     27  C   UNL     1      -5.373  12.687  19.205  0.00  0.00    +0.000 A 
ATOM     28  C   UNL     1      -4.075  12.431  19.690  0.00  0.00    +0.000 A 
ATOM     29  C   UNL     1      -3.758  12.834  21.107  0.00  0.00    +0.000 C 
ATOM     30  C   UNL     1      -3.137  11.759  18.872  0.00  0.00    +0.000 A 
ATOM     31  C   UNL     1      -3.503  11.397  17.559  0.00  0.00    +0.000 A 
ATOM     32  C   UNL     1      -2.557  10.797  16.556  0.00  0.00    +0.000 C 
ATOM     33  C   UNL     1      -4.819  11.651  17.112  0.00  0.00    +0.000 A 
ENDBRANCH  21  30
ENDBRANCH  20  22
ENDBRANCH   1  20
TORSDOF 6
ENDMDL
MODEL 2
REMARK VINA RESULT:      -7.9      1.866      2.141
REMARK  Name = 
REMARK  9 active torsions:
REMARK  status: ('A' for Active; 'I' for Inactive)
REMARK    1  A    between atoms: C_1  and  C_2
REMARK    2  A    between atoms: C_4  and  C_5
REMARK    3  A    between atoms: C_6  and  N_7
REMARK    4  A    between atoms: C_8  and  C_10
REMARK    5  A    between atoms: C_10  and  N_11
REMARK    6  A    between atoms: C_14  and  C_15
REMARK    7  A    between atoms: C_17  and  C_18
REMARK    8  A    between atoms: C_26  and  N_27
REMARK    9  A    between atoms: C_28  and  C_29
REMARK                            x       y       z     vdW  Elec       q    Type
REMARK                         _______ _______ _______ _____ _____    ______ ____
ROOT
ATOM      1  N   UNL     1       0.928  10.796  19.980  0.00  0.00    +0.000 N 
ATOM      2  N   UNL     1       0.604  10.008  21.027  0.00  0.00    +0.000 NA
ATOM      3  N   UNL     1       1.110   8.805  20.802  0.00  0.00    +0.000 NA
ATOM      4  C   UNL     1       1.689   8.806  19.556  0.00  0.00    +0.000 A 
ATOM      5  C   UNL     1       1.526  10.052  18.976  0.00  0.00    +0.000 A 
ENDROOT
BRANCH   4   6
ATOM      6  C   UNL     1       2.357   7.600  18.981  0.00  0.00    +0.000 A 
ATOM      7  N   UNL     1       2.234   6.349  19.401  0.00  0.00    +0.000 NA
ATOM      8  C   UNL     1       3.021   5.640  18.508  0.00  0.00    +0.000 A 
ATOM      9  N   UNL     1       3.624   6.414  17.594  0.00  0.00    +0.000 NA
ATOM     10  O   UNL     1       3.190   7.695  17.896  0.00  0.00    +0.000 OA
BRANCH   8  11
ATOM     11  C   UNL     1       3.189   4.185  18.540  0.00  0.00    +0.000 A 
ATOM     12  C   UNL     1       2.542   3.358  17.620  0.00  0.00    +0.000 A 
ATOM     13  C   UNL     1       2.749   1.987  17.702  0.00  0.00    +0.000 A 
ATOM     14  N   UNL     1       3.540   1.397  18.623  0.00  0.00    +0.000 NA
ATOM     15  C   UNL     1       4.160   2.209  19.501  0.00  0.00    +0.000 A 
ATOM     16  C   UNL     1       4.019   3.589  19.498  0.00  0.00    +0.000 A 
ENDBRANCH   8  11
ENDBRANCH   4   6
BRANCH   5  17
ATOM     17  N   UNL     1       1.839  10.539  17.750  0.00  0.00    +0.000 N 
ATOM     18  H   UNL     1       1.225  10.315  16.963  0.00  0.00    +0.000 HD
ATOM     19  H   UNL     1       2.367  11.395  17.600  0.00  0.00    +0.000 HD
ENDBRANCH   5  17
BRANCH   1  20
ATOM     20  C   UNL     1       0.529  12.193  19.934  0.00  0.00    +0.000 C 
BRANCH  20  22
ATOM     21  N   UNL     1      -1.883  11.663  19.539  0.00  0.00    +0.000 N 
ATOM     22  C   UNL     1      -0.854  12.576  19.417  0.00  0.00    +0.000 C 
ATOM     23  O   UNL     1      -0.979  13.675  18.865  0.00  0.00    +0.000 OA
ATOM     24  H   UNL     1      -1.578  10.696  19.640  0.00  0.00    +0.000 HD
BRANCH  21  30
ATOM     25  C   UNL     1      -7.168  12.582  17.448  0.00  0.00    +0.000 C 
ATOM     26  C   UNL     1      -5.798  12.320  17.999  0.00  0.00    +0.000 A 
ATOM     27  C   UNL     1      -5.449  12.713  19.291  0.00  0.00    +0.000 A 
ATOM     28  C   UNL     1      -4.154  12.489  19.798  0.00  0.00    +0.000 A 
ATOM     29  C   UNL     1      -3.872  12.894  21.221  0.00  0.00    +0.000 C 
ATOM     30  C   UNL     1      -3.185  11.845  18.994  0.00  0.00    +0.000 A 
ATOM     31  C   UNL     1      -3.518  11.478  17.674  0.00  0.00    +0.000 A 
ATOM     32  C   UNL     1      -2.540  10.907  16.685  0.00  0.00    +0.000 C 
ATOM     33  C   UNL     1      -4.832  11.699  17.205  0.00  0.00    +0.000 A 
ENDBRANCH  21  30
ENDBRANCH  20  22
ENDBRANCH   1  20
TORSDOF 6
ENDMDL
MODEL 3
REMARK VINA RESULT:      -7.8      0.230      1.817
REMARK  Name = 
REMARK  9 active torsions:
REMARK  status: ('A' for Active; 'I' for Inactive)
REMARK    1  A    between atoms: C_1  and  C_2
REMARK    2  A    between atoms: C_4  and  C_5
REMARK    3  A    between atoms: C_6  and  N_7
REMARK    4  A    between atoms: C_8  and  C_10
REMARK    5  A    between atoms: C_10  and  N_11
REMARK    6  A    between atoms: C_14  and  C_15
REMARK    7  A    between atoms: C_17  and  C_18
REMARK    8  A    between atoms: C_26  and  N_27
REMARK    9  A    between atoms: C_28  and  C_29
REMARK                            x       y       z     vdW  Elec       q    Type
REMARK                         _______ _______ _______ _____ _____    ______ ____
ROOT
ATOM      1  N   UNL     1       1.083  10.497  19.761  0.00  0.00    +0.000 N 
ATOM      2  N   UNL     1       0.658   9.601  20.677  0.00  0.00    +0.000 NA
ATOM      3  N   UNL     1       1.160   8.419  20.352  0.00  0.00    +0.000 NA
ATOM      4  C   UNL     1       1.841   8.550  19.166  0.00  0.00    +0.000 A 
ATOM      5  C   UNL     1       1.750   9.860  18.727  0.00  0.00    +0.000 A 
ENDROOT
BRANCH   4   6
ATOM      6  C   UNL     1       2.534   7.402  18.507  0.00  0.00    +0.000 A 
ATOM      7  N   UNL     1       3.746   7.409  17.970  0.00  0.00    +0.000 NA
ATOM      8  C   UNL     1       3.907   6.101  17.545  0.00  0.00    +0.000 A 
ATOM      9  N   UNL     1       2.838   5.325  17.781  0.00  0.00    +0.000 NA
ATOM     10  O   UNL     1       1.941   6.170  18.414  0.00  0.00    +0.000 OA
BRANCH   8  11
ATOM     11  C   UNL     1       5.119   5.592  16.899  0.00  0.00    +0.000 A 
ATOM     12  C   UNL     1       6.168   5.052  17.644  0.00  0.00    +0.000 A 
ATOM     13  C   UNL     1       7.287   4.583  16.968  0.00  0.00    +0.000 A 
ATOM     14  N   UNL     1       7.429   4.617  15.626  0.00  0.00    +0.000 NA
ATOM     15  C   UNL     1       6.406   5.138  14.921  0.00  0.00    +0.000 A 
ATOM     16  C   UNL     1       5.247   5.630  15.503  0.00  0.00    +0.000 A 
ENDBRANCH   8  11
ENDBRANCH   4   6
BRANCH   5  17
ATOM     17  N   UNL     1       2.173  10.479  17.598  0.00  0.00    +0.000 N 
ATOM     18  H   UNL     1       1.473  10.823  16.936  0.00  0.00    +0.000 HD
ATOM     19  H   UNL     1       3.056  10.979  17.525  0.00  0.00    +0.000 HD
ENDBRANCH   5  17
BRANCH   1  20
ATOM     20  C   UNL     1       0.714  11.901  19.851  0.00  0.00    +0.000 C 
BRANCH  20  22
ATOM     21  N   UNL     1      -1.750  11.554  19.614  0.00  0.00    +0.000 N 
ATOM     22  C   UNL     1      -0.658  12.362  19.370  0.00  0.00    +0.000 C 
ATOM     23  O   UNL     1      -0.720  13.422  18.737  0.00  0.00    +0.000 OA
ATOM     24  H   UNL     1      -1.523  10.575  19.778  0.00  0.00    +0.000 HD
BRANCH  21  30
ATOM     25  C   UNL     1      -7.047  12.380  17.511  0.00  0.00    +0.000 C 
ATOM     26  C   UNL     1      -5.661  12.186  18.050  0.00  0.00    +0.000 A 
ATOM     27  C   UNL     1      -4.707  11.448  17.349  0.00  0.00    +0.000 A 
ATOM     28  C   UNL     1      -3.413  11.245  17.868  0.00  0.00    +0.000 A 
ATOM     29  C   UNL     1      -2.425  10.482  17.026  0.00  0.00    +0.000 C 
ATOM     30  C   UNL     1      -3.060  11.807  19.118  0.00  0.00    +0.000 A 
ATOM     31  C   UNL     1      -4.030  12.523  19.850  0.00  0.00    +0.000 A 
ATOM     32  C   UNL     1      -3.814  13.054  21.240  0.00  0.00    +0.000 C 
ATOM     33  C   UNL     1      -5.311  12.724  19.290  0.00  0.00    +0.000 A 
ENDBRANCH  21  30
ENDBRANCH  20  22
ENDBRANCH   1  20
TORSDOF 6
ENDMDL
MODEL 4
REMARK VINA RESULT:      -7.7      1.938      2.811
REMARK  Name = 
REMARK  9 active torsions:
REMARK  status: ('A' for Active; 'I' for Inactive)
REMARK    1  A    between atoms: C_1  and  C_2
REMARK    2  A    between atoms: C_4  and  C_5
REMARK    3  A    between atoms: C_6  and  N_7
REMARK    4  A    between atoms: C_8  and  C_10
REMARK    5  A    between atoms: C_10  and  N_11
REMARK    6  A    between atoms: C_14  and  C_15
REMARK    7  A    between atoms: C_17  and  C_18
REMARK    8  A    between atoms: C_26  and  N_27
REMARK    9  A    between atoms: C_28  and  C_29
REMARK                            x       y       z     vdW  Elec       q    Type
REMARK                         _______ _______ _______ _____ _____    ______ ____
ROOT
ATOM      1  N   UNL     1       0.958  10.853  20.120  0.00  0.00    +0.000 N 
ATOM      2  N   UNL     1       0.698  10.072  21.190  0.00  0.00    +0.000 NA
ATOM      3  N   UNL     1       1.161   8.859  20.928  0.00  0.00    +0.000 NA
ATOM      4  C   UNL     1       1.643   8.848  19.641  0.00  0.00    +0.000 A 
ATOM      5  C   UNL     1       1.463  10.097  19.074  0.00  0.00    +0.000 A 
ENDROOT
BRANCH   4   6
ATOM      6  C   UNL     1       2.241   7.629  19.019  0.00  0.00    +0.000 A 
ATOM      7  N   UNL     1       2.292   6.413  19.546  0.00  0.00    +0.000 NA
ATOM      8  C   UNL     1       2.904   5.667  18.551  0.00  0.00    +0.000 A 
ATOM      9  N   UNL     1       3.240   6.387  17.470  0.00  0.00    +0.000 NA
ATOM     10  O   UNL     1       2.804   7.668  17.770  0.00  0.00    +0.000 OA
BRANCH   8  11
ATOM     11  C   UNL     1       3.165   4.229  18.649  0.00  0.00    +0.000 A 
ATOM     12  C   UNL     1       3.774   3.676  19.776  0.00  0.00    +0.000 A 
ATOM     13  C   UNL     1       3.988   2.304  19.807  0.00  0.00    +0.000 A 
ATOM     14  N   UNL     1       3.645   1.463  18.808  0.00  0.00    +0.000 NA
ATOM     15  C   UNL     1       3.054   2.013  17.728  0.00  0.00    +0.000 A 
ATOM     16  C   UNL     1       2.796   3.370  17.605  0.00  0.00    +0.000 A 
ENDBRANCH   8  11
ENDBRANCH   4   6
BRANCH   5  17
ATOM     17  N   UNL     1       1.692  10.578  17.828  0.00  0.00    +0.000 N 
ATOM     18  H   UNL     1       0.978  11.168  17.391  0.00  0.00    +0.000 HD
ATOM     19  H   UNL     1       2.620  10.748  17.449  0.00  0.00    +0.000 HD
ENDBRANCH   5  17
BRANCH   1  20
ATOM     20  C   UNL     1       0.586  12.259  20.103  0.00  0.00    +0.000 C 
BRANCH  20  22
ATOM     21  N   UNL     1      -1.813  11.709  19.658  0.00  0.00    +0.000 N 
ATOM     22  C   UNL     1      -0.822  12.671  19.685  0.00  0.00    +0.000 C 
ATOM     23  O   UNL     1      -1.001  13.844  19.342  0.00  0.00    +0.000 OA
ATOM     24  H   UNL     1      -1.470  10.753  19.578  0.00  0.00    +0.000 HD
BRANCH  21  30
ATOM     25  C   UNL     1      -7.136  12.428  17.585  0.00  0.00    +0.000 C 
ATOM     26  C   UNL     1      -5.745  12.264  18.119  0.00  0.00    +0.000 A 
ATOM     27  C   UNL     1      -4.735  11.690  17.346  0.00  0.00    +0.000 A 
ATOM     28  C   UNL     1      -3.434  11.513  17.858  0.00  0.00    +0.000 A 
ATOM     29  C   UNL     1      -2.387  10.936  16.943  0.00  0.00    +0.000 C 
ATOM     30  C   UNL     1      -3.133  11.931  19.175  0.00  0.00    +0.000 A 
ATOM     31  C   UNL     1      -4.158  12.477  19.976  0.00  0.00    +0.000 A 
ATOM     32  C   UNL     1      -3.992  12.838  21.427  0.00  0.00    +0.000 C 
ATOM     33  C   UNL     1      -5.444  12.659  19.424  0.00  0.00    +0.000 A 
ENDBRANCH  21  30
ENDBRANCH  20  22
ENDBRANCH   1  20
TORSDOF 6
ENDMDL
MODEL 5
REMARK VINA RESULT:      -7.6      3.581      4.650
REMARK  Name = 
REMARK  9 active torsions:
REMARK  status: ('A' for Active; 'I' for Inactive)
REMARK    1  A    between atoms: C_1  and  C_2
REMARK    2  A    between atoms: C_4  and  C_5
REMARK    3  A    between atoms: C_6  and  N_7
REMARK    4  A    between atoms: C_8  and  C_10
REMARK    5  A    between atoms: C_10  and  N_11
REMARK    6  A    between atoms: C_14  and  C_15
REMARK    7  A    between atoms: C_17  and  C_18
REMARK    8  A    between atoms: C_26  and  N_27
REMARK    9  A    between atoms: C_28  and  C_29
REMARK                            x       y       z     vdW  Elec       q    Type
REMARK                         _______ _______ _______ _____ _____    ______ ____
ROOT
ATOM      1  N   UNL     1       2.132   7.261  19.821  0.00  0.00    +0.000 N 
ATOM      2  N   UNL     1       2.231   8.194  18.851  0.00  0.00    +0.000 NA
ATOM      3  N   UNL     1       2.913   7.664  17.847  0.00  0.00    +0.000 NA
ATOM      4  C   UNL     1       3.327   6.408  18.220  0.00  0.00    +0.000 A 
ATOM      5  C   UNL     1       2.899   6.149  19.510  0.00  0.00    +0.000 A 
ENDROOT
BRANCH   4   6
ATOM      6  C   UNL     1       4.128   5.526  17.318  0.00  0.00    +0.000 A 
ATOM      7  N   UNL     1       4.617   5.844  16.128  0.00  0.00    +0.000 NA
ATOM      8  C   UNL     1       5.297   4.697  15.753  0.00  0.00    +0.000 A 
ATOM      9  N   UNL     1       5.214   3.706  16.653  0.00  0.00    +0.000 NA
ATOM     10  O   UNL     1       4.455   4.245  17.680  0.00  0.00    +0.000 OA
BRANCH   8  11
ATOM     11  C   UNL     1       6.043   4.559  14.500  0.00  0.00    +0.000 A 
ATOM     12  C   UNL     1       7.206   5.293  14.263  0.00  0.00    +0.000 A 
ATOM     13  C   UNL     1       7.869   5.110  13.055  0.00  0.00    +0.000 A 
ATOM     14  N   UNL     1       7.456   4.265  12.088  0.00  0.00    +0.000 NA
ATOM     15  C   UNL     1       6.334   3.561  12.334  0.00  0.00    +0.000 A 
ATOM     16  C   UNL     1       5.604   3.672  13.508  0.00  0.00    +0.000 A 
ENDBRANCH   8  11
ENDBRANCH   4   6
BRANCH   5  17
ATOM     17  N   UNL     1       3.106   5.107  20.352  0.00  0.00    +0.000 N 
ATOM     18  H   UNL     1       3.775   5.221  21.118  0.00  0.00    +0.000 HD
ATOM     19  H   UNL     1       2.410   4.392  20.547  0.00  0.00    +0.000 HD
ENDBRANCH   5  17
BRANCH   1  20
ATOM     20  C   UNL     1       1.419   7.531  21.060  0.00  0.00    +0.000 C 
BRANCH  20  22
ATOM     21  N   UNL     1       0.351   9.778  20.812  0.00  0.00    +0.000 N 
ATOM     22  C   UNL     1       1.214   8.970  21.524  0.00  0.00    +0.000 C 
ATOM     23  O   UNL     1       1.871   9.361  22.495  0.00  0.00    +0.000 OA
ATOM     24  H   UNL     1       0.189   9.479  19.852  0.00  0.00    +0.000 HD
BRANCH  21  30
ATOM     25  C   UNL     1      -0.430  15.426  21.619  0.00  0.00    +0.000 C 
ATOM     26  C   UNL     1      -0.207  13.956  21.424  0.00  0.00    +0.000 A 
ATOM     27  C   UNL     1       0.475  13.468  20.308  0.00  0.00    +0.000 A 
ATOM     28  C   UNL     1       0.661  12.086  20.113  0.00  0.00    +0.000 A 
ATOM     29  C   UNL     1       1.454  11.642  18.912  0.00  0.00    +0.000 C 
ATOM     30  C   UNL     1       0.161  11.166  21.065  0.00  0.00    +0.000 A 
ATOM     31  C   UNL     1      -0.562  11.649  22.175  0.00  0.00    +0.000 A 
ATOM     32  C   UNL     1      -1.249  10.767  23.181  0.00  0.00    +0.000 C 
ATOM     33  C   UNL     1      -0.712  13.042  22.351  0.00  0.00    +0.000 A 
ENDBRANCH  21  30
ENDBRANCH  20  22
ENDBRANCH   1  20
TORSDOF 6
ENDMDL
MODEL 6
REMARK VINA RESULT:      -7.6      2.281      3.120
REMARK  Name = 
REMARK  9 active torsions:
REMARK  status: ('A' for Active; 'I' for Inactive)
REMARK    1  A    between atoms: C_1  and  C_2
REMARK    2  A    between atoms: C_4  and  C_5
REMARK    3  A    between atoms: C_6  and  N_7
REMARK    4  A    between atoms: C_8  and  C_10
REMARK    5  A    between atoms: C_10  and  N_11
REMARK    6  A    between atoms: C_14  and  C_15
REMARK    7  A    between atoms: C_17  and  C_18
REMARK    8  A    between atoms: C_26  and  N_27
REMARK    9  A    between atoms: C_28  and  C_29
REMARK                            x       y       z     vdW  Elec       q    Type
REMARK                         _______ _______ _______ _____ _____    ______ ____
ROOT
ATOM      1  N   UNL     1       1.387  10.910  18.723  0.00  0.00    +0.000 N 
ATOM      2  N   UNL     1       2.054  10.548  17.607  0.00  0.00    +0.000 NA
ATOM      3  N   UNL     1       2.301   9.249  17.686  0.00  0.00    +0.000 NA
ATOM      4  C   UNL     1       1.862   8.798  18.907  0.00  0.00    +0.000 A 
ATOM      5  C   UNL     1       1.333   9.857  19.623  0.00  0.00    +0.000 A 
ENDROOT
BRANCH   4   6
ATOM      6  C   UNL     1       1.988   7.370  19.327  0.00  0.00    +0.000 A 
ATOM      7  N   UNL     1       2.443   6.365  18.594  0.00  0.00    +0.000 NA
ATOM      8  C   UNL     1       2.384   5.289  19.466  0.00  0.00    +0.000 A 
ATOM      9  N   UNL     1       1.891   5.605  20.673  0.00  0.00    +0.000 NA
ATOM     10  O   UNL     1       1.636   6.964  20.588  0.00  0.00    +0.000 OA
BRANCH   8  11
ATOM     11  C   UNL     1       2.814   3.932  19.124  0.00  0.00    +0.000 A 
ATOM     12  C   UNL     1       3.757   3.252  19.896  0.00  0.00    +0.000 A 
ATOM     13  C   UNL     1       4.117   1.964  19.519  0.00  0.00    +0.000 A 
ATOM     14  N   UNL     1       3.613   1.323  18.443  0.00  0.00    +0.000 NA
ATOM     15  C   UNL     1       2.701   1.992  17.711  0.00  0.00    +0.000 A 
ATOM     16  C   UNL     1       2.276   3.279  18.007  0.00  0.00    +0.000 A 
ENDBRANCH   8  11
ENDBRANCH   4   6
BRANCH   5  17
ATOM     17  N   UNL     1       0.847   9.958  20.884  0.00  0.00    +0.000 N 
ATOM     18  H   UNL     1       0.548  10.876  21.223  0.00  0.00    +0.000 HD
ATOM     19  H   UNL     1       0.388   9.195  21.375  0.00  0.00    +0.000 HD
ENDBRANCH   5  17
BRANCH   1  20
ATOM     20  C   UNL     1       0.953  12.282  18.932  0.00  0.00    +0.000 C 
BRANCH  20  22
ATOM     21  N   UNL     1      -1.460  11.632  18.843  0.00  0.00    +0.000 N 
ATOM     22  C   UNL     1      -0.523  12.645  18.798  0.00  0.00    +0.000 C 
ATOM     23  O   UNL     1      -0.809  13.832  18.605  0.00  0.00    +0.000 OA
ATOM     24  H   UNL     1      -1.094  10.709  18.613  0.00  0.00    +0.000 HD
BRANCH  21  30
ATOM     25  C   UNL     1      -7.092  12.200  17.788  0.00  0.00    +0.000 C 
ATOM     26  C   UNL     1      -5.622  12.075  18.056  0.00  0.00    +0.000 A 
ATOM     27  C   UNL     1      -4.758  11.517  17.113  0.00  0.00    +0.000 A 
ATOM     28  C   UNL     1      -3.381  11.377  17.376  0.00  0.00    +0.000 A 
ATOM     29  C   UNL     1      -2.507  10.816  16.286  0.00  0.00    +0.000 C 
ATOM     30  C   UNL     1      -2.852  11.817  18.612  0.00  0.00    +0.000 A 
ATOM     31  C   UNL     1      -3.724  12.347  19.585  0.00  0.00    +0.000 A 
ATOM     32  C   UNL     1      -3.302  12.727  20.978  0.00  0.00    +0.000 C 
ATOM     33  C   UNL     1      -5.095  12.492  19.281  0.00  0.00    +0.000 A 
ENDBRANCH  21  30
ENDBRANCH  20  22
ENDBRANCH   1  20
TORSDOF 6
ENDMDL
MODEL 7
REMARK VINA RESULT:      -7.5      2.292      2.691
REMARK  Name = 
REMARK  9 active torsions:
REMARK  status: ('A' for Active; 'I' for Inactive)
REMARK    1  A    between atoms: C_1  and  C_2
REMARK    2  A    between atoms: C_4  and  C_5
REMARK    3  A    between atoms: C_6  and  N_7
REMARK    4  A    between atoms: C_8  and  C_10
REMARK    5  A    between atoms: C_10  and  N_11
REMARK    6  A    between atoms: C_14  and  C_15
REMARK    7  A    between atoms: C_17  and  C_18
REMARK    8  A    between atoms: C_26  and  N_27
REMARK    9  A    between atoms: C_28  and  C_29
REMARK                            x       y       z     vdW  Elec       q    Type
REMARK                         _______ _______ _______ _____ _____    ______ ____
ROOT
ATOM      1  N   UNL     1       1.275  10.711  19.000  0.00  0.00    +0.000 N 
ATOM      2  N   UNL     1       1.973  10.403  17.887  0.00  0.00    +0.000 NA
ATOM      3  N   UNL     1       2.259   9.110  17.934  0.00  0.00    +0.000 NA
ATOM      4  C   UNL     1       1.811   8.611  19.133  0.00  0.00    +0.000 A 
ATOM      5  C   UNL     1       1.236   9.632  19.868  0.00  0.00    +0.000 A 
ENDROOT
BRANCH   4   6
ATOM      6  C   UNL     1       1.973   7.176  19.515  0.00  0.00    +0.000 A 
ATOM      7  N   UNL     1       2.464   6.204  18.759  0.00  0.00    +0.000 NA
ATOM      8  C   UNL     1       2.427   5.104  19.600  0.00  0.00    +0.000 A 
ATOM      9  N   UNL     1       1.915   5.372  20.810  0.00  0.00    +0.000 NA
ATOM     10  O   UNL     1       1.621   6.725  20.761  0.00  0.00    +0.000 OA
BRANCH   8  11
ATOM     11  C   UNL     1       2.898   3.769  19.225  0.00  0.00    +0.000 A 
ATOM     12  C   UNL     1       3.863   3.100  19.979  0.00  0.00    +0.000 A 
ATOM     13  C   UNL     1       4.263   1.834  19.571  0.00  0.00    +0.000 A 
ATOM     14  N   UNL     1       3.776   1.203  18.481  0.00  0.00    +0.000 NA
ATOM     15  C   UNL     1       2.843   1.861  17.766  0.00  0.00    +0.000 A 
ATOM     16  C   UNL     1       2.378   3.126  18.093  0.00  0.00    +0.000 A 
ENDBRANCH   8  11
ENDBRANCH   4   6
BRANCH   5  17
ATOM     17  N   UNL     1       0.723   9.681  21.122  0.00  0.00    +0.000 N 
ATOM     18  H   UNL     1       0.850  10.536  21.670  0.00  0.00    +0.000 HD
ATOM     19  H   UNL     1      -0.085   9.143  21.423  0.00  0.00    +0.000 HD
ENDBRANCH   5  17
BRANCH   1  20
ATOM     20  C   UNL     1       0.794  12.063  19.239  0.00  0.00    +0.000 C 
BRANCH  20  22
ATOM     21  N   UNL     1      -1.658  11.586  19.122  0.00  0.00    +0.000 N 
ATOM     22  C   UNL     1      -0.623  12.453  18.831  0.00  0.00    +0.000 C 
ATOM     23  O   UNL     1      -0.774  13.512  18.212  0.00  0.00    +0.000 OA
ATOM     24  H   UNL     1      -1.370  10.620  19.266  0.00  0.00    +0.000 HD
BRANCH  21  30
ATOM     25  C   UNL     1      -7.106  12.517  17.507  0.00  0.00    +0.000 C 
ATOM     26  C   UNL     1      -5.693  12.252  17.934  0.00  0.00    +0.000 A 
ATOM     27  C   UNL     1      -5.232  12.637  19.194  0.00  0.00    +0.000 A 
ATOM     28  C   UNL     1      -3.897  12.410  19.584  0.00  0.00    +0.000 A 
ATOM     29  C   UNL     1      -3.492  12.807  20.979  0.00  0.00    +0.000 C 
ATOM     30  C   UNL     1      -3.002  11.771  18.694  0.00  0.00    +0.000 A 
ATOM     31  C   UNL     1      -3.450  11.412  17.406  0.00  0.00    +0.000 A 
ATOM     32  C   UNL     1      -2.562  10.847  16.332  0.00  0.00    +0.000 C 
ATOM     33  C   UNL     1      -4.799  11.636  17.055  0.00  0.00    +0.000 A 
ENDBRANCH  21  30
ENDBRANCH  20  22
ENDBRANCH   1  20
TORSDOF 6
ENDMDL
MODEL 8
REMARK VINA RESULT:      -7.5      3.622      4.462
REMARK  Name = 
REMARK  9 active torsions:
REMARK  status: ('A' for Active; 'I' for Inactive)
REMARK    1  A    between atoms: C_1  and  C_2
REMARK    2  A    between atoms: C_4  and  C_5
REMARK    3  A    between atoms: C_6  and  N_7
REMARK    4  A    between atoms: C_8  and  C_10
REMARK    5  A    between atoms: C_10  and  N_11
REMARK    6  A    between atoms: C_14  and  C_15
REMARK    7  A    between atoms: C_17  and  C_18
REMARK    8  A    between atoms: C_26  and  N_27
REMARK    9  A    between atoms: C_28  and  C_29
REMARK                            x       y       z     vdW  Elec       q    Type
REMARK                         _______ _______ _______ _____ _____    ______ ____
ROOT
ATOM      1  N   UNL     1       2.075   7.413  19.817  0.00  0.00    +0.000 N 
ATOM      2  N   UNL     1       2.224   8.343  18.850  0.00  0.00    +0.000 NA
ATOM      3  N   UNL     1       2.951   7.807  17.881  0.00  0.00    +0.000 NA
ATOM      4  C   UNL     1       3.341   6.550  18.276  0.00  0.00    +0.000 A 
ATOM      5  C   UNL     1       2.851   6.297  19.545  0.00  0.00    +0.000 A 
ENDROOT
BRANCH   4   6
ATOM      6  C   UNL     1       4.180   5.663  17.416  0.00  0.00    +0.000 A 
ATOM      7  N   UNL     1       4.557   5.895  16.167  0.00  0.00    +0.000 NA
ATOM      8  C   UNL     1       5.338   4.791  15.865  0.00  0.00    +0.000 A 
ATOM      9  N   UNL     1       5.421   3.903  16.867  0.00  0.00    +0.000 NA
ATOM     10  O   UNL     1       4.669   4.471  17.884  0.00  0.00    +0.000 OA
BRANCH   8  11
ATOM     11  C   UNL     1       6.018   4.593  14.583  0.00  0.00    +0.000 A 
ATOM     12  C   UNL     1       7.208   5.257  14.282  0.00  0.00    +0.000 A 
ATOM     13  C   UNL     1       7.804   5.020  13.049  0.00  0.00    +0.000 A 
ATOM     14  N   UNL     1       7.302   4.185  12.116  0.00  0.00    +0.000 NA
ATOM     15  C   UNL     1       6.155   3.549  12.424  0.00  0.00    +0.000 A 
ATOM     16  C   UNL     1       5.486   3.718  13.627  0.00  0.00    +0.000 A 
ENDBRANCH   8  11
ENDBRANCH   4   6
BRANCH   5  17
ATOM     17  N   UNL     1       3.013   5.257  20.398  0.00  0.00    +0.000 N 
ATOM     18  H   UNL     1       2.415   5.204  21.227  0.00  0.00    +0.000 HD
ATOM     19  H   UNL     1       3.367   4.346  20.118  0.00  0.00    +0.000 HD
ENDBRANCH   5  17
BRANCH   1  20
ATOM     20  C   UNL     1       1.305   7.690  21.019  0.00  0.00    +0.000 C 
BRANCH  20  22
ATOM     21  N   UNL     1       0.266   9.959  20.865  0.00  0.00    +0.000 N 
ATOM     22  C   UNL     1       1.154   9.125  21.515  0.00  0.00    +0.000 C 
ATOM     23  O   UNL     1       1.873   9.490  22.451  0.00  0.00    +0.000 OA
ATOM     24  H   UNL     1       0.043   9.678  19.912  0.00  0.00    +0.000 HD
BRANCH  21  30
ATOM     25  C   UNL     1      -0.339  15.523  22.222  0.00  0.00    +0.000 C 
ATOM     26  C   UNL     1      -0.200  14.076  21.853  0.00  0.00    +0.000 A 
ATOM     27  C   UNL     1      -0.769  13.070  22.635  0.00  0.00    +0.000 A 
ATOM     28  C   UNL     1      -0.617  11.710  22.302  0.00  0.00    +0.000 A 
ATOM     29  C   UNL     1      -1.307  10.688  23.166  0.00  0.00    +0.000 C 
ATOM     30  C   UNL     1       0.117  11.346  21.148  0.00  0.00    +0.000 A 
ATOM     31  C   UNL     1       0.727  12.354  20.373  0.00  0.00    +0.000 A 
ATOM     32  C   UNL     1       1.634  12.085  19.204  0.00  0.00    +0.000 C 
ATOM     33  C   UNL     1       0.537  13.708  20.725  0.00  0.00    +0.000 A 
ENDBRANCH  21  30
ENDBRANCH  20  22
ENDBRANCH   1  20
TORSDOF 6
ENDMDL
MODEL 9
REMARK VINA RESULT:      -7.5      1.417      2.341
REMARK  Name = 
REMARK  9 active torsions:
REMARK  status: ('A' for Active; 'I' for Inactive)
REMARK    1  A    between atoms: C_1  and  C_2
REMARK    2  A    between atoms: C_4  and  C_5
REMARK    3  A    between atoms: C_6  and  N_7
REMARK    4  A    between atoms: C_8  and  C_10
REMARK    5  A    between atoms: C_10  and  N_11
REMARK    6  A    between atoms: C_14  and  C_15
REMARK    7  A    between atoms: C_17  and  C_18
REMARK    8  A    between atoms: C_26  and  N_27
REMARK    9  A    between atoms: C_28  and  C_29
REMARK                            x       y       z     vdW  Elec       q    Type
REMARK                         _______ _______ _______ _____ _____    ______ ____
ROOT
ATOM      1  N   UNL     1       0.555  11.103  21.133  0.00  0.00    +0.000 N 
ATOM      2  N   UNL     1       0.358  10.407  22.273  0.00  0.00    +0.000 NA
ATOM      3  N   UNL     1       0.798   9.173  22.076  0.00  0.00    +0.000 NA
ATOM      4  C   UNL     1       1.200   9.061  20.767  0.00  0.00    +0.000 A 
ATOM      5  C   UNL     1       0.991  10.266  20.119  0.00  0.00    +0.000 A 
ENDROOT
BRANCH   4   6
ATOM      6  C   UNL     1       1.753   7.793  20.204  0.00  0.00    +0.000 A 
ATOM      7  N   UNL     1       2.470   7.663  19.097  0.00  0.00    +0.000 NA
ATOM      8  C   UNL     1       2.750   6.307  19.063  0.00  0.00    +0.000 A 
ATOM      9  N   UNL     1       2.212   5.622  20.083  0.00  0.00    +0.000 NA
ATOM     10  O   UNL     1       1.564   6.590  20.834  0.00  0.00    +0.000 OA
BRANCH   8  11
ATOM     11  C   UNL     1       3.556   5.662  18.023  0.00  0.00    +0.000 A 
ATOM     12  C   UNL     1       3.514   4.282  17.822  0.00  0.00    +0.000 A 
ATOM     13  C   UNL     1       4.300   3.735  16.815  0.00  0.00    +0.000 A 
ATOM     14  N   UNL     1       5.110   4.457  16.013  0.00  0.00    +0.000 NA
ATOM     15  C   UNL     1       5.136   5.789  16.217  0.00  0.00    +0.000 A 
ATOM     16  C   UNL     1       4.388   6.428  17.195  0.00  0.00    +0.000 A 
ENDBRANCH   8  11
ENDBRANCH   4   6
BRANCH   5  17
ATOM     17  N   UNL     1       1.146  10.649  18.828  0.00  0.00    +0.000 N 
ATOM     18  H   UNL     1       0.531  10.241  18.119  0.00  0.00    +0.000 HD
ATOM     19  H   UNL     1       1.515  11.554  18.548  0.00  0.00    +0.000 HD
ENDBRANCH   5  17
BRANCH   1  20
ATOM     20  C   UNL     1       0.189  12.507  21.033  0.00  0.00    +0.000 C 
BRANCH  20  22
ATOM     21  N   UNL     1      -2.172  12.022  20.368  0.00  0.00    +0.000 N 
ATOM     22  C   UNL     1      -1.114  12.909  20.350  0.00  0.00    +0.000 C 
ATOM     23  O   UNL     1      -1.146  13.998  19.766  0.00  0.00    +0.000 OA
ATOM     24  H   UNL     1      -1.905  11.051  20.521  0.00  0.00    +0.000 HD
BRANCH  21  30
ATOM     25  C   UNL     1      -7.102  12.630  17.457  0.00  0.00    +0.000 C 
ATOM     26  C   UNL     1      -5.811  12.493  18.207  0.00  0.00    +0.000 A 
ATOM     27  C   UNL     1      -4.737  11.777  17.677  0.00  0.00    +0.000 A 
ATOM     28  C   UNL     1      -3.534  11.628  18.394  0.00  0.00    +0.000 A 
ATOM     29  C   UNL     1      -2.403  10.887  17.730  0.00  0.00    +0.000 C 
ATOM     30  C   UNL     1      -3.396  12.221  19.671  0.00  0.00    +0.000 A 
ATOM     31  C   UNL     1      -4.490  12.914  20.230  0.00  0.00    +0.000 A 
ATOM     32  C   UNL     1      -4.509  13.473  21.626  0.00  0.00    +0.000 C 
ATOM     33  C   UNL     1      -5.675  13.062  19.475  0.00  0.00    +0.000 A 
ENDBRANCH  21  30
ENDBRANCH  20  22
ENDBRANCH   1  20
TORSDOF 6
ENDMDL
