MODEL 1
REMARK VINA RESULT:      -7.7      0.000      0.000
REMARK  Name = 
REMARK  9 active torsions:
REMARK  status: ('A' for Active; 'I' for Inactive)
REMARK    1  A    between atoms: C_1  and  C_2
REMARK    2  A    between atoms: C_2  and  O_3
REMARK    3  A    between atoms: C_2  and  C_4
REMARK    4  A    between atoms: C_2  and  C_13
REMARK    5  A    between atoms: C_4  and  N_5
REMARK    6  A    between atoms: C_7  and  N_8
REMARK    7  A    between atoms: N_15  and  C_16
REMARK    8  A    between atoms: C_19  and  C_20
REMARK    9  A    between atoms: C_22  and  C_23
REMARK                            x       y       z     vdW  Elec       q    Type
REMARK                         _______ _______ _______ _____ _____    ______ ____
ROOT
ATOM      1  C   UNL     1       2.137   4.090  19.070  0.00  0.00    +0.000 C 
ATOM      2  O   UNL     1       1.282   4.115  18.182  0.00  0.00    +0.000 OA
ATOM      3  N   UNL     1       2.611   5.213  19.730  0.00  0.00    +0.000 N 
ATOM      4  H   UNL     1       3.367   5.086  20.393  0.00  0.00    +0.000 HD
ENDROOT
BRANCH   3   5
ATOM      5  C   UNL     1       2.236   6.543  19.414  0.00  0.00    +0.000 A 
ATOM      6  C   UNL     1       2.625   7.165  18.229  0.00  0.00    +0.000 A 
ATOM      7  C   UNL     1       2.368   8.512  18.003  0.00  0.00    +0.000 A 
ATOM      8  C   UNL     1       1.683   9.274  18.953  0.00  0.00    +0.000 A 
ATOM      9  C   UNL     1       1.206   8.662  20.123  0.00  0.00    +0.000 A 
ATOM     10  C   UNL     1       1.477   7.283  20.333  0.00  0.00    +0.000 A 
BRANCH   9  11
ATOM     11  C   UNL     1       0.419   9.408  21.175  0.00  0.00    +0.000 C 
ATOM     12  F   UNL     1      -0.035   8.650  22.203  0.00  0.00    +0.000 F 
ATOM     13  F   UNL     1       1.153  10.402  21.746  0.00  0.00    +0.000 F 
ATOM     14  F   UNL     1      -0.681  10.013  20.649  0.00  0.00    +0.000 F 
ENDBRANCH   9  11
BRANCH   8  15
ATOM     15  C   UNL     1       1.521  10.668  18.670  0.00  0.00    +0.000 C 
ATOM     16  N   UNL     1       1.440  11.801  18.429  0.00  0.00    +0.000 NA
ENDBRANCH   8  15
ENDBRANCH   3   5
BRANCH   1  18
ATOM     17  C   UNL     1       2.786   2.630  21.086  0.00  0.00    +0.000 C 
ATOM     18  C   UNL     1       2.661   2.722  19.566  0.00  0.00    +0.000 C 
BRANCH  18  19
ATOM     19  O   UNL     1       1.673   1.738  19.190  0.00  0.00    +0.000 OA
ATOM     20  H   UNL     1       1.922   0.890  19.602  0.00  0.00    +0.000 HD
ENDBRANCH  18  19
BRANCH  18  21
ATOM     21  C   UNL     1       3.995   2.395  18.844  0.00  0.00    +0.000 C 
BRANCH  21  22
ATOM     22  N   UNL     1       4.791   3.540  18.428  0.00  0.00    +0.000 N 
ATOM     23  C   UNL     1       4.920   4.041  17.160  0.00  0.00    +0.000 A 
ATOM     24  C   UNL     1       5.793   5.106  17.260  0.00  0.00    +0.000 A 
ATOM     25  C   UNL     1       6.146   5.156  18.617  0.00  0.00    +0.000 A 
ATOM     26  N   UNL     1       5.562   4.185  19.328  0.00  0.00    +0.000 NA
BRANCH  24  27
ATOM     27  N   UNL     1       6.243   5.965  16.210  0.00  0.00    +0.000 N 
ATOM     28  O   UNL     1       7.463   6.035  16.016  0.00  0.00    +0.000 OA
ATOM     29  O   UNL     1       5.371   6.580  15.583  0.00  0.00    +0.000 OA
ENDBRANCH  24  27
ENDBRANCH  21  22
ENDBRANCH  18  21
ENDBRANCH   1  18
TORSDOF 8
ENDMDL
MODEL 2
REMARK VINA RESULT:      -7.6      0.616      1.211
REMARK  Name = 
REMARK  9 active torsions:
REMARK  status: ('A' for Active; 'I' for Inactive)
REMARK    1  A    between atoms: C_1  and  C_2
REMARK    2  A    between atoms: C_2  and  O_3
REMARK    3  A    between atoms: C_2  and  C_4
REMARK    4  A    between atoms: C_2  and  C_13
REMARK    5  A    between atoms: C_4  and  N_5
REMARK    6  A    between atoms: C_7  and  N_8
REMARK    7  A    between atoms: N_15  and  C_16
REMARK    8  A    between atoms: C_19  and  C_20
REMARK    9  A    between atoms: C_22  and  C_23
REMARK                            x       y       z     vdW  Elec       q    Type
REMARK                         _______ _______ _______ _____ _____    ______ ____
ROOT
ATOM      1  C   UNL     1       2.208   4.398  19.594  0.00  0.00    +0.000 C 
ATOM      2  O   UNL     1       1.230   4.306  18.851  0.00  0.00    +0.000 OA
ATOM      3  N   UNL     1       2.704   5.594  20.090  0.00  0.00    +0.000 N 
ATOM      4  H   UNL     1       3.558   5.560  20.635  0.00  0.00    +0.000 HD
ENDROOT
BRANCH   3   5
ATOM      5  C   UNL     1       2.202   6.872  19.741  0.00  0.00    +0.000 A 
ATOM      6  C   UNL     1       2.484   7.475  18.516  0.00  0.00    +0.000 A 
ATOM      7  C   UNL     1       2.100   8.784  18.251  0.00  0.00    +0.000 A 
ATOM      8  C   UNL     1       1.393   9.524  19.202  0.00  0.00    +0.000 A 
ATOM      9  C   UNL     1       1.021   8.923  20.415  0.00  0.00    +0.000 A 
ATOM     10  C   UNL     1       1.421   7.582  20.665  0.00  0.00    +0.000 A 
BRANCH   9  11
ATOM     11  C   UNL     1       0.218   9.643  21.473  0.00  0.00    +0.000 C 
ATOM     12  F   UNL     1       0.818  10.734  22.012  0.00  0.00    +0.000 F 
ATOM     13  F   UNL     1      -0.978  10.080  20.991  0.00  0.00    +0.000 F 
ATOM     14  F   UNL     1      -0.078   8.830  22.523  0.00  0.00    +0.000 F 
ENDBRANCH   9  11
BRANCH   8  15
ATOM     15  C   UNL     1       1.098  10.886  18.873  0.00  0.00    +0.000 C 
ATOM     16  N   UNL     1       0.844  11.998  18.655  0.00  0.00    +0.000 NA
ENDBRANCH   8  15
ENDBRANCH   3   5
BRANCH   1  18
ATOM     17  C   UNL     1       2.611   2.804  21.573  0.00  0.00    +0.000 C 
ATOM     18  C   UNL     1       2.888   3.103  20.101  0.00  0.00    +0.000 C 
BRANCH  18  19
ATOM     19  O   UNL     1       2.305   2.011  19.357  0.00  0.00    +0.000 OA
ATOM     20  H   UNL     1       1.370   1.932  19.625  0.00  0.00    +0.000 HD
ENDBRANCH  18  19
BRANCH  18  21
ATOM     21  C   UNL     1       4.407   3.170  19.787  0.00  0.00    +0.000 C 
BRANCH  21  22
ATOM     22  N   UNL     1       4.765   3.696  18.479  0.00  0.00    +0.000 N 
ATOM     23  C   UNL     1       5.541   4.792  18.212  0.00  0.00    +0.000 A 
ATOM     24  C   UNL     1       5.574   4.908  16.837  0.00  0.00    +0.000 A 
ATOM     25  C   UNL     1       4.778   3.853  16.367  0.00  0.00    +0.000 A 
ATOM     26  N   UNL     1       4.258   3.128  17.365  0.00  0.00    +0.000 NA
BRANCH  24  27
ATOM     27  N   UNL     1       6.262   5.891  16.062  0.00  0.00    +0.000 N 
ATOM     28  O   UNL     1       7.497   5.918  16.143  0.00  0.00    +0.000 OA
ATOM     29  O   UNL     1       5.563   6.647  15.375  0.00  0.00    +0.000 OA
ENDBRANCH  24  27
ENDBRANCH  21  22
ENDBRANCH  18  21
ENDBRANCH   1  18
TORSDOF 8
ENDMDL
MODEL 3
REMARK VINA RESULT:      -7.4      1.720      2.358
REMARK  Name = 
REMARK  9 active torsions:
REMARK  status: ('A' for Active; 'I' for Inactive)
REMARK    1  A    between atoms: C_1  and  C_2
REMARK    2  A    between atoms: C_2  and  O_3
REMARK    3  A    between atoms: C_2  and  C_4
REMARK    4  A    between atoms: C_2  and  C_13
REMARK    5  A    between atoms: C_4  and  N_5
REMARK    6  A    between atoms: C_7  and  N_8
REMARK    7  A    between atoms: N_15  and  C_16
REMARK    8  A    between atoms: C_19  and  C_20
REMARK    9  A    between atoms: C_22  and  C_23
REMARK                            x       y       z     vdW  Elec       q    Type
REMARK                         _______ _______ _______ _____ _____    ______ ____
ROOT
ATOM      1  C   UNL     1       2.130   4.482  19.824  0.00  0.00    +0.000 C 
ATOM      2  O   UNL     1       1.408   4.588  18.830  0.00  0.00    +0.000 OA
ATOM      3  N   UNL     1       2.354   5.500  20.739  0.00  0.00    +0.000 N 
ATOM      4  H   UNL     1       3.022   5.327  21.481  0.00  0.00    +0.000 HD
ENDROOT
BRANCH   3   5
ATOM      5  C   UNL     1       1.850   6.818  20.607  0.00  0.00    +0.000 A 
ATOM      6  C   UNL     1       1.074   7.420  21.596  0.00  0.00    +0.000 A 
ATOM      7  C   UNL     1       0.474   8.656  21.388  0.00  0.00    +0.000 A 
ATOM      8  C   UNL     1       0.658   9.343  20.185  0.00  0.00    +0.000 A 
ATOM      9  C   UNL     1       1.498   8.804  19.199  0.00  0.00    +0.000 A 
ATOM     10  C   UNL     1       2.105   7.540  19.432  0.00  0.00    +0.000 A 
BRANCH   9  11
ATOM     11  C   UNL     1       1.783   9.506  17.892  0.00  0.00    +0.000 C 
ATOM     12  F   UNL     1       2.428  10.694  18.002  0.00  0.00    +0.000 F 
ATOM     13  F   UNL     1       2.550   8.745  17.063  0.00  0.00    +0.000 F 
ATOM     14  F   UNL     1       0.640   9.771  17.201  0.00  0.00    +0.000 F 
ENDBRANCH   9  11
BRANCH   8  15
ATOM     15  C   UNL     1      -0.052  10.577  20.029  0.00  0.00    +0.000 C 
ATOM     16  N   UNL     1      -0.612  11.590  19.949  0.00  0.00    +0.000 NA
ENDBRANCH   8  15
ENDBRANCH   3   5
BRANCH   1  18
ATOM     17  C   UNL     1       2.471   2.622  21.568  0.00  0.00    +0.000 C 
ATOM     18  C   UNL     1       2.761   3.107  20.149  0.00  0.00    +0.000 C 
BRANCH  18  19
ATOM     19  O   UNL     1       2.138   2.147  19.267  0.00  0.00    +0.000 OA
ATOM     20  H   UNL     1       2.838   1.749  18.716  0.00  0.00    +0.000 HD
ENDBRANCH  18  19
BRANCH  18  21
ATOM     21  C   UNL     1       4.281   3.160  19.842  0.00  0.00    +0.000 C 
BRANCH  21  22
ATOM     22  N   UNL     1       4.651   3.723  18.553  0.00  0.00    +0.000 N 
ATOM     23  C   UNL     1       5.395   4.850  18.325  0.00  0.00    +0.000 A 
ATOM     24  C   UNL     1       5.457   4.994  16.954  0.00  0.00    +0.000 A 
ATOM     25  C   UNL     1       4.709   3.921  16.445  0.00  0.00    +0.000 A 
ATOM     26  N   UNL     1       4.191   3.160  17.416  0.00  0.00    +0.000 NA
BRANCH  24  27
ATOM     27  N   UNL     1       6.129   6.015  16.214  0.00  0.00    +0.000 N 
ATOM     28  O   UNL     1       7.363   6.056  16.293  0.00  0.00    +0.000 OA
ATOM     29  O   UNL     1       5.417   6.786  15.558  0.00  0.00    +0.000 OA
ENDBRANCH  24  27
ENDBRANCH  21  22
ENDBRANCH  18  21
ENDBRANCH   1  18
TORSDOF 8
ENDMDL
MODEL 4
REMARK VINA RESULT:      -7.2      1.744      2.139
REMARK  Name = 
REMARK  9 active torsions:
REMARK  status: ('A' for Active; 'I' for Inactive)
REMARK    1  A    between atoms: C_1  and  C_2
REMARK    2  A    between atoms: C_2  and  O_3
REMARK    3  A    between atoms: C_2  and  C_4
REMARK    4  A    between atoms: C_2  and  C_13
REMARK    5  A    between atoms: C_4  and  N_5
REMARK    6  A    between atoms: C_7  and  N_8
REMARK    7  A    between atoms: N_15  and  C_16
REMARK    8  A    between atoms: C_19  and  C_20
REMARK    9  A    between atoms: C_22  and  C_23
REMARK                            x       y       z     vdW  Elec       q    Type
REMARK                         _______ _______ _______ _____ _____    ______ ____
ROOT
ATOM      1  C   UNL     1       2.989   5.128  19.036  0.00  0.00    +0.000 C 
ATOM      2  O   UNL     1       1.846   4.708  19.224  0.00  0.00    +0.000 OA
ATOM      3  N   UNL     1       3.325   6.471  18.958  0.00  0.00    +0.000 N 
ATOM      4  H   UNL     1       4.285   6.704  18.729  0.00  0.00    +0.000 HD
ENDROOT
BRANCH   3   5
ATOM      5  C   UNL     1       2.388   7.533  19.001  0.00  0.00    +0.000 A 
ATOM      6  C   UNL     1       2.022   8.249  17.863  0.00  0.00    +0.000 A 
ATOM      7  C   UNL     1       1.212   9.375  17.949  0.00  0.00    +0.000 A 
ATOM      8  C   UNL     1       0.719   9.803  19.184  0.00  0.00    +0.000 A 
ATOM      9  C   UNL     1       1.001   9.061  20.341  0.00  0.00    +0.000 A 
ATOM     10  C   UNL     1       1.829   7.911  20.231  0.00  0.00    +0.000 A 
BRANCH   9  11
ATOM     11  C   UNL     1       0.468   9.434  21.704  0.00  0.00    +0.000 C 
ATOM     12  F   UNL     1      -0.836   9.128  21.920  0.00  0.00    +0.000 F 
ATOM     13  F   UNL     1       1.160   8.822  22.704  0.00  0.00    +0.000 F 
ATOM     14  F   UNL     1       0.576  10.770  21.941  0.00  0.00    +0.000 F 
ENDBRANCH   9  11
BRANCH   8  15
ATOM     15  C   UNL     1      -0.051  11.011  19.190  0.00  0.00    +0.000 C 
ATOM     16  N   UNL     1      -0.643  12.009  19.159  0.00  0.00    +0.000 NA
ENDBRANCH   8  15
ENDBRANCH   3   5
BRANCH   1  18
ATOM     17  C   UNL     1       5.507   4.719  19.367  0.00  0.00    +0.000 C 
ATOM     18  C   UNL     1       4.158   4.117  18.977  0.00  0.00    +0.000 C 
BRANCH  18  19
ATOM     19  O   UNL     1       3.878   3.101  19.965  0.00  0.00    +0.000 OA
ATOM     20  H   UNL     1       4.400   2.309  19.737  0.00  0.00    +0.000 HD
ENDBRANCH  18  19
BRANCH  18  21
ATOM     21  C   UNL     1       4.190   3.457  17.573  0.00  0.00    +0.000 C 
BRANCH  21  22
ATOM     22  N   UNL     1       4.865   4.212  16.529  0.00  0.00    +0.000 N 
ATOM     23  C   UNL     1       5.791   3.742  15.635  0.00  0.00    +0.000 A 
ATOM     24  C   UNL     1       6.161   4.828  14.867  0.00  0.00    +0.000 A 
ATOM     25  C   UNL     1       5.422   5.903  15.382  0.00  0.00    +0.000 A 
ATOM     26  N   UNL     1       4.653   5.539  16.415  0.00  0.00    +0.000 NA
BRANCH  24  27
ATOM     27  N   UNL     1       7.097   4.852  13.787  0.00  0.00    +0.000 N 
ATOM     28  O   UNL     1       8.064   5.617  13.890  0.00  0.00    +0.000 OA
ATOM     29  O   UNL     1       6.858   4.108  12.828  0.00  0.00    +0.000 OA
ENDBRANCH  24  27
ENDBRANCH  21  22
ENDBRANCH  18  21
ENDBRANCH   1  18
TORSDOF 8
ENDMDL
MODEL 5
REMARK VINA RESULT:      -7.2      1.580      1.915
REMARK  Name = 
REMARK  9 active torsions:
REMARK  status: ('A' for Active; 'I' for Inactive)
REMARK    1  A    between atoms: C_1  and  C_2
REMARK    2  A    between atoms: C_2  and  O_3
REMARK    3  A    between atoms: C_2  and  C_4
REMARK    4  A    between atoms: C_2  and  C_13
REMARK    5  A    between atoms: C_4  and  N_5
REMARK    6  A    between atoms: C_7  and  N_8
REMARK    7  A    between atoms: N_15  and  C_16
REMARK    8  A    between atoms: C_19  and  C_20
REMARK    9  A    between atoms: C_22  and  C_23
REMARK                            x       y       z     vdW  Elec       q    Type
REMARK                         _______ _______ _______ _____ _____    ______ ____
ROOT
ATOM      1  C   UNL     1       2.626   4.965  18.912  0.00  0.00    +0.000 C 
ATOM      2  O   UNL     1       1.440   4.658  18.780  0.00  0.00    +0.000 OA
ATOM      3  N   UNL     1       3.080   6.255  19.140  0.00  0.00    +0.000 N 
ATOM      4  H   UNL     1       4.082   6.405  19.161  0.00  0.00    +0.000 HD
ENDROOT
BRANCH   3   5
ATOM      5  C   UNL     1       2.247   7.401  19.170  0.00  0.00    +0.000 A 
ATOM      6  C   UNL     1       1.952   8.137  18.024  0.00  0.00    +0.000 A 
ATOM      7  C   UNL     1       1.252   9.335  18.097  0.00  0.00    +0.000 A 
ATOM      8  C   UNL     1       0.798   9.820  19.326  0.00  0.00    +0.000 A 
ATOM      9  C   UNL     1       1.006   9.065  20.491  0.00  0.00    +0.000 A 
ATOM     10  C   UNL     1       1.723   7.841  20.394  0.00  0.00    +0.000 A 
BRANCH   9  11
ATOM     11  C   UNL     1       0.507   9.500  21.849  0.00  0.00    +0.000 C 
ATOM     12  F   UNL     1      -0.751   9.099  22.159  0.00  0.00    +0.000 F 
ATOM     13  F   UNL     1       1.300   9.035  22.853  0.00  0.00    +0.000 F 
ATOM     14  F   UNL     1       0.503  10.855  21.975  0.00  0.00    +0.000 F 
ENDBRANCH   9  11
BRANCH   8  15
ATOM     15  C   UNL     1       0.145  11.095  19.318  0.00  0.00    +0.000 C 
ATOM     16  N   UNL     1      -0.366  12.136  19.359  0.00  0.00    +0.000 NA
ENDBRANCH   8  15
ENDBRANCH   3   5
BRANCH   1  18
ATOM     17  C   UNL     1       3.620   2.944  20.157  0.00  0.00    +0.000 C 
ATOM     18  C   UNL     1       3.693   3.843  18.924  0.00  0.00    +0.000 C 
BRANCH  18  19
ATOM     19  O   UNL     1       3.408   2.990  17.793  0.00  0.00    +0.000 OA
ATOM     20  H   UNL     1       3.598   2.070  18.058  0.00  0.00    +0.000 HD
ENDBRANCH  18  19
BRANCH  18  21
ATOM     21  C   UNL     1       5.098   4.475  18.735  0.00  0.00    +0.000 C 
BRANCH  21  22
ATOM     22  N   UNL     1       5.425   4.908  17.386  0.00  0.00    +0.000 N 
ATOM     23  C   UNL     1       6.190   4.241  16.466  0.00  0.00    +0.000 A 
ATOM     24  C   UNL     1       6.238   5.054  15.351  0.00  0.00    +0.000 A 
ATOM     25  C   UNL     1       5.490   6.189  15.700  0.00  0.00    +0.000 A 
ATOM     26  N   UNL     1       5.018   6.118  16.951  0.00  0.00    +0.000 NA
BRANCH  24  27
ATOM     27  N   UNL     1       6.907   4.799  14.114  0.00  0.00    +0.000 N 
ATOM     28  O   UNL     1       6.449   3.903  13.394  0.00  0.00    +0.000 OA
ATOM     29  O   UNL     1       7.901   5.493  13.867  0.00  0.00    +0.000 OA
ENDBRANCH  24  27
ENDBRANCH  21  22
ENDBRANCH  18  21
ENDBRANCH   1  18
TORSDOF 8
ENDMDL
MODEL 6
REMARK VINA RESULT:      -7.2      0.643      1.129
REMARK  Name = 
REMARK  9 active torsions:
REMARK  status: ('A' for Active; 'I' for Inactive)
REMARK    1  A    between atoms: C_1  and  C_2
REMARK    2  A    between atoms: C_2  and  O_3
REMARK    3  A    between atoms: C_2  and  C_4
REMARK    4  A    between atoms: C_2  and  C_13
REMARK    5  A    between atoms: C_4  and  N_5
REMARK    6  A    between atoms: C_7  and  N_8
REMARK    7  A    between atoms: N_15  and  C_16
REMARK    8  A    between atoms: C_19  and  C_20
REMARK    9  A    between atoms: C_22  and  C_23
REMARK                            x       y       z     vdW  Elec       q    Type
REMARK                         _______ _______ _______ _____ _____    ______ ____
ROOT
ATOM      1  C   UNL     1       2.353   4.389  19.159  0.00  0.00    +0.000 C 
ATOM      2  O   UNL     1       1.566   4.362  18.211  0.00  0.00    +0.000 OA
ATOM      3  N   UNL     1       2.689   5.534  19.864  0.00  0.00    +0.000 N 
ATOM      4  H   UNL     1       3.402   5.454  20.581  0.00  0.00    +0.000 HD
ENDROOT
BRANCH   3   5
ATOM      5  C   UNL     1       2.237   6.836  19.536  0.00  0.00    +0.000 A 
ATOM      6  C   UNL     1       2.598   7.472  18.349  0.00  0.00    +0.000 A 
ATOM      7  C   UNL     1       2.261   8.799  18.111  0.00  0.00    +0.000 A 
ATOM      8  C   UNL     1       1.523   9.525  19.049  0.00  0.00    +0.000 A 
ATOM      9  C   UNL     1       1.074   8.894  20.219  0.00  0.00    +0.000 A 
ATOM     10  C   UNL     1       1.427   7.535  20.443  0.00  0.00    +0.000 A 
BRANCH   9  11
ATOM     11  C   UNL     1       0.235   9.598  21.259  0.00  0.00    +0.000 C 
ATOM     12  F   UNL     1      -0.824  10.293  20.775  0.00  0.00    +0.000 F 
ATOM     13  F   UNL     1      -0.281   8.727  22.170  0.00  0.00    +0.000 F 
ATOM     14  F   UNL     1       0.967  10.494  21.977  0.00  0.00    +0.000 F 
ENDBRANCH   9  11
BRANCH   8  15
ATOM     15  C   UNL     1       1.279  10.905  18.754  0.00  0.00    +0.000 C 
ATOM     16  N   UNL     1       1.039  12.021  18.542  0.00  0.00    +0.000 NA
ENDBRANCH   8  15
ENDBRANCH   3   5
BRANCH   1  18
ATOM     17  C   UNL     1       2.355   2.608  21.016  0.00  0.00    +0.000 C 
ATOM     18  C   UNL     1       2.943   3.056  19.679  0.00  0.00    +0.000 C 
BRANCH  18  19
ATOM     19  O   UNL     1       2.575   2.039  18.723  0.00  0.00    +0.000 OA
ATOM     20  H   UNL     1       2.926   1.186  19.042  0.00  0.00    +0.000 HD
ENDBRANCH  18  19
BRANCH  18  21
ATOM     21  C   UNL     1       4.491   3.168  19.723  0.00  0.00    +0.000 C 
BRANCH  21  22
ATOM     22  N   UNL     1       5.088   4.105  18.784  0.00  0.00    +0.000 N 
ATOM     23  C   UNL     1       5.260   3.929  17.436  0.00  0.00    +0.000 A 
ATOM     24  C   UNL     1       5.889   5.070  16.981  0.00  0.00    +0.000 A 
ATOM     25  C   UNL     1       6.069   5.862  18.125  0.00  0.00    +0.000 A 
ATOM     26  N   UNL     1       5.609   5.266  19.231  0.00  0.00    +0.000 NA
BRANCH  24  27
ATOM     27  N   UNL     1       6.278   5.374  15.640  0.00  0.00    +0.000 N 
ATOM     28  O   UNL     1       5.431   5.215  14.752  0.00  0.00    +0.000 OA
ATOM     29  O   UNL     1       7.440   5.767  15.474  0.00  0.00    +0.000 OA
ENDBRANCH  24  27
ENDBRANCH  21  22
ENDBRANCH  18  21
ENDBRANCH   1  18
TORSDOF 8
ENDMDL
MODEL 7
REMARK VINA RESULT:      -7.2      2.155      4.346
REMARK  Name = 
REMARK  9 active torsions:
REMARK  status: ('A' for Active; 'I' for Inactive)
REMARK    1  A    between atoms: C_1  and  C_2
REMARK    2  A    between atoms: C_2  and  O_3
REMARK    3  A    between atoms: C_2  and  C_4
REMARK    4  A    between atoms: C_2  and  C_13
REMARK    5  A    between atoms: C_4  and  N_5
REMARK    6  A    between atoms: C_7  and  N_8
REMARK    7  A    between atoms: N_15  and  C_16
REMARK    8  A    between atoms: C_19  and  C_20
REMARK    9  A    between atoms: C_22  and  C_23
REMARK                            x       y       z     vdW  Elec       q    Type
REMARK                         _______ _______ _______ _____ _____    ______ ____
ROOT
ATOM      1  C   UNL     1       4.583   5.571  18.040  0.00  0.00    +0.000 C 
ATOM      2  O   UNL     1       5.323   5.903  18.967  0.00  0.00    +0.000 OA
ATOM      3  N   UNL     1       3.303   6.066  17.845  0.00  0.00    +0.000 N 
ATOM      4  H   UNL     1       2.754   5.670  17.090  0.00  0.00    +0.000 HD
ENDROOT
BRANCH   3   5
ATOM      5  C   UNL     1       2.648   6.957  18.731  0.00  0.00    +0.000 A 
ATOM      6  C   UNL     1       2.196   6.559  19.988  0.00  0.00    +0.000 A 
ATOM      7  C   UNL     1       1.433   7.406  20.782  0.00  0.00    +0.000 A 
ATOM      8  C   UNL     1       1.121   8.697  20.348  0.00  0.00    +0.000 A 
ATOM      9  C   UNL     1       1.626   9.161  19.124  0.00  0.00    +0.000 A 
ATOM     10  C   UNL     1       2.407   8.279  18.328  0.00  0.00    +0.000 A 
BRANCH   9  11
ATOM     11  C   UNL     1       1.370  10.557  18.608  0.00  0.00    +0.000 C 
ATOM     12  F   UNL     1       1.530  11.549  19.519  0.00  0.00    +0.000 F 
ATOM     13  F   UNL     1       2.194  10.873  17.571  0.00  0.00    +0.000 F 
ATOM     14  F   UNL     1       0.103  10.696  18.132  0.00  0.00    +0.000 F 
ENDBRANCH   9  11
BRANCH   8  15
ATOM     15  C   UNL     1       0.273   9.478  21.198  0.00  0.00    +0.000 C 
ATOM     16  N   UNL     1      -0.401  10.153  21.860  0.00  0.00    +0.000 NA
ENDBRANCH   8  15
ENDBRANCH   3   5
BRANCH   1  18
ATOM     17  C   UNL     1       5.362   5.288  15.604  0.00  0.00    +0.000 C 
ATOM     18  C   UNL     1       5.127   4.612  16.954  0.00  0.00    +0.000 C 
BRANCH  18  19
ATOM     19  O   UNL     1       6.426   4.169  17.406  0.00  0.00    +0.000 OA
ATOM     20  H   UNL     1       6.641   3.342  16.934  0.00  0.00    +0.000 HD
ENDBRANCH  18  19
BRANCH  18  21
ATOM     21  C   UNL     1       4.187   3.382  16.842  0.00  0.00    +0.000 C 
BRANCH  21  22
ATOM     22  N   UNL     1       3.252   3.194  17.941  0.00  0.00    +0.000 N 
ATOM     23  C   UNL     1       3.556   2.925  19.249  0.00  0.00    +0.000 A 
ATOM     24  C   UNL     1       2.347   2.806  19.903  0.00  0.00    +0.000 A 
ATOM     25  C   UNL     1       1.378   3.002  18.908  0.00  0.00    +0.000 A 
ATOM     26  N   UNL     1       1.924   3.209  17.704  0.00  0.00    +0.000 NA
BRANCH  24  27
ATOM     27  N   UNL     1       2.129   2.536  21.289  0.00  0.00    +0.000 N 
ATOM     28  O   UNL     1       3.117   2.243  21.974  0.00  0.00    +0.000 OA
ATOM     29  O   UNL     1       0.962   2.610  21.693  0.00  0.00    +0.000 OA
ENDBRANCH  24  27
ENDBRANCH  21  22
ENDBRANCH  18  21
ENDBRANCH   1  18
TORSDOF 8
ENDMDL
MODEL 8
REMARK VINA RESULT:      -7.1      4.358      7.655
REMARK  Name = 
REMARK  9 active torsions:
REMARK  status: ('A' for Active; 'I' for Inactive)
REMARK    1  A    between atoms: C_1  and  C_2
REMARK    2  A    between atoms: C_2  and  O_3
REMARK    3  A    between atoms: C_2  and  C_4
REMARK    4  A    between atoms: C_2  and  C_13
REMARK    5  A    between atoms: C_4  and  N_5
REMARK    6  A    between atoms: C_7  and  N_8
REMARK    7  A    between atoms: N_15  and  C_16
REMARK    8  A    between atoms: C_19  and  C_20
REMARK    9  A    between atoms: C_22  and  C_23
REMARK                            x       y       z     vdW  Elec       q    Type
REMARK                         _______ _______ _______ _____ _____    ______ ____
ROOT
ATOM      1  C   UNL     1       0.584   8.340  21.484  0.00  0.00    +0.000 C 
ATOM      2  O   UNL     1      -0.442   7.661  21.409  0.00  0.00    +0.000 OA
ATOM      3  N   UNL     1       1.786   8.008  20.878  0.00  0.00    +0.000 N 
ATOM      4  H   UNL     1       2.587   8.601  21.065  0.00  0.00    +0.000 HD
ENDROOT
BRANCH   3   5
ATOM      5  C   UNL     1       2.016   6.807  20.163  0.00  0.00    +0.000 A 
ATOM      6  C   UNL     1       2.197   6.787  18.780  0.00  0.00    +0.000 A 
ATOM      7  C   UNL     1       2.279   5.588  18.082  0.00  0.00    +0.000 A 
ATOM      8  C   UNL     1       2.211   4.366  18.756  0.00  0.00    +0.000 A 
ATOM      9  C   UNL     1       2.111   4.349  20.155  0.00  0.00    +0.000 A 
ATOM     10  C   UNL     1       2.030   5.585  20.851  0.00  0.00    +0.000 A 
BRANCH   9  11
ATOM     11  C   UNL     1       2.077   3.069  20.958  0.00  0.00    +0.000 C 
ATOM     12  F   UNL     1       1.092   2.200  20.619  0.00  0.00    +0.000 F 
ATOM     13  F   UNL     1       3.240   2.370  20.847  0.00  0.00    +0.000 F 
ATOM     14  F   UNL     1       1.914   3.311  22.287  0.00  0.00    +0.000 F 
ENDBRANCH   9  11
BRANCH   8  15
ATOM     15  C   UNL     1       2.236   3.182  17.951  0.00  0.00    +0.000 C 
ATOM     16  N   UNL     1       2.306   2.229  17.292  0.00  0.00    +0.000 NA
ENDBRANCH   8  15
ENDBRANCH   3   5
BRANCH   1  18
ATOM     17  C   UNL     1      -0.738   9.899  23.046  0.00  0.00    +0.000 C 
ATOM     18  C   UNL     1       0.529   9.702  22.215  0.00  0.00    +0.000 C 
BRANCH  18  19
ATOM     19  O   UNL     1       1.625   9.712  23.156  0.00  0.00    +0.000 OA
ATOM     20  H   UNL     1       1.547   8.916  23.715  0.00  0.00    +0.000 HD
ENDBRANCH  18  19
BRANCH  18  21
ATOM     21  C   UNL     1       0.742  10.842  21.184  0.00  0.00    +0.000 C 
BRANCH  21  22
ATOM     22  N   UNL     1      -0.371  11.102  20.284  0.00  0.00    +0.000 N 
ATOM     23  C   UNL     1      -0.780  10.330  19.229  0.00  0.00    +0.000 A 
ATOM     24  C   UNL     1      -1.850  10.994  18.664  0.00  0.00    +0.000 A 
ATOM     25  C   UNL     1      -1.998  12.158  19.434  0.00  0.00    +0.000 A 
ATOM     26  N   UNL     1      -1.080  12.243  20.404  0.00  0.00    +0.000 NA
BRANCH  24  27
ATOM     27  N   UNL     1      -2.631  10.589  17.539  0.00  0.00    +0.000 N 
ATOM     28  O   UNL     1      -3.220   9.503  17.616  0.00  0.00    +0.000 OA
ATOM     29  O   UNL     1      -2.649  11.357  16.569  0.00  0.00    +0.000 OA
ENDBRANCH  24  27
ENDBRANCH  21  22
ENDBRANCH  18  21
ENDBRANCH   1  18
TORSDOF 8
ENDMDL
MODEL 9
REMARK VINA RESULT:      -7.1      1.038      1.342
REMARK  Name = 
REMARK  9 active torsions:
REMARK  status: ('A' for Active; 'I' for Inactive)
REMARK    1  A    between atoms: C_1  and  C_2
REMARK    2  A    between atoms: C_2  and  O_3
REMARK    3  A    between atoms: C_2  and  C_4
REMARK    4  A    between atoms: C_2  and  C_13
REMARK    5  A    between atoms: C_4  and  N_5
REMARK    6  A    between atoms: C_7  and  N_8
REMARK    7  A    between atoms: N_15  and  C_16
REMARK    8  A    between atoms: C_19  and  C_20
REMARK    9  A    between atoms: C_22  and  C_23
REMARK                            x       y       z     vdW  Elec       q    Type
REMARK                         _______ _______ _______ _____ _____    ______ ____
ROOT
ATOM      1  C   UNL     1       2.360   4.176  18.646  0.00  0.00    +0.000 C 
ATOM      2  O   UNL     1       1.302   4.172  18.012  0.00  0.00    +0.000 OA
ATOM      3  N   UNL     1       2.914   5.302  19.234  0.00  0.00    +0.000 N 
ATOM      4  H   UNL     1       3.824   5.206  19.670  0.00  0.00    +0.000 HD
ENDROOT
BRANCH   3   5
ATOM      5  C   UNL     1       2.383   6.610  19.113  0.00  0.00    +0.000 A 
ATOM      6  C   UNL     1       2.607   7.405  17.990  0.00  0.00    +0.000 A 
ATOM      7  C   UNL     1       2.198   8.732  17.952  0.00  0.00    +0.000 A 
ATOM      8  C   UNL     1       1.522   9.299  19.035  0.00  0.00    +0.000 A 
ATOM      9  C   UNL     1       1.208   8.507  20.150  0.00  0.00    +0.000 A 
ATOM     10  C   UNL     1       1.634   7.151  20.168  0.00  0.00    +0.000 A 
BRANCH   9  11
ATOM     11  C   UNL     1       0.442   9.035  21.340  0.00  0.00    +0.000 C 
ATOM     12  F   UNL     1      -0.408   8.151  21.920  0.00  0.00    +0.000 F 
ATOM     13  F   UNL     1       1.273   9.453  22.334  0.00  0.00    +0.000 F 
ATOM     14  F   UNL     1      -0.319  10.115  21.012  0.00  0.00    +0.000 F 
ENDBRANCH   9  11
BRANCH   8  15
ATOM     15  C   UNL     1       1.198  10.691  18.939  0.00  0.00    +0.000 C 
ATOM     16  N   UNL     1       0.899  11.811  18.896  0.00  0.00    +0.000 NA
ENDBRANCH   8  15
ENDBRANCH   3   5
BRANCH   1  18
ATOM     17  C   UNL     1       3.636   2.695  20.318  0.00  0.00    +0.000 C 
ATOM     18  C   UNL     1       3.085   2.833  18.900  0.00  0.00    +0.000 C 
BRANCH  18  19
ATOM     19  O   UNL     1       2.093   1.793  18.757  0.00  0.00    +0.000 OA
ATOM     20  H   UNL     1       1.851   1.485  19.651  0.00  0.00    +0.000 HD
ENDBRANCH  18  19
BRANCH  18  21
ATOM     21  C   UNL     1       4.180   2.634  17.819  0.00  0.00    +0.000 C 
BRANCH  21  22
ATOM     22  N   UNL     1       4.917   3.827  17.431  0.00  0.00    +0.000 N 
ATOM     23  C   UNL     1       6.006   4.368  18.061  0.00  0.00    +0.000 A 
ATOM     24  C   UNL     1       6.336   5.501  17.346  0.00  0.00    +0.000 A 
ATOM     25  C   UNL     1       5.382   5.569  16.319  0.00  0.00    +0.000 A 
ATOM     26  N   UNL     1       4.497   4.567  16.385  0.00  0.00    +0.000 NA
BRANCH  24  27
ATOM     27  N   UNL     1       7.408   6.411  17.599  0.00  0.00    +0.000 N 
ATOM     28  O   UNL     1       7.759   7.150  16.670  0.00  0.00    +0.000 OA
ATOM     29  O   UNL     1       7.909   6.378  18.730  0.00  0.00    +0.000 OA
ENDBRANCH  24  27
ENDBRANCH  21  22
ENDBRANCH  18  21
ENDBRANCH   1  18
TORSDOF 8
ENDMDL
