MODEL 1
REMARK VINA RESULT:      -7.5      0.000      0.000
REMARK  Name = 
REMARK  5 active torsions:
REMARK  status: ('A' for Active; 'I' for Inactive)
REMARK    1  A    between atoms: C_2  and  C_12
REMARK    2  A    between atoms: N_3  and  C_4
REMARK    3  A    between atoms: C_4  and  C_5
REMARK    4  A    between atoms: C_12  and  S_13
REMARK    5  A    between atoms: S_13  and  C_16
REMARK                            x       y       z     vdW  Elec       q    Type
REMARK                         _______ _______ _______ _____ _____    ______ ____
ROOT
ATOM      1  C   UNL     1       5.265   4.431  16.228  0.00  0.00    +0.000 C 
ATOM      2  C   UNL     1       6.453   3.950  15.412  0.00  0.00    +0.000 C 
ATOM      3  C   UNL     1       5.408   4.820  14.771  0.00  0.00    +0.000 C 
ENDROOT
BRANCH   1   5
ATOM      4  O   UNL     1       3.062   3.673  16.156  0.00  0.00    +0.000 OA
ATOM      5  C   UNL     1       4.179   3.534  16.641  0.00  0.00    +0.000 C 
ATOM      6  N   UNL     1       4.506   2.565  17.557  0.00  0.00    +0.000 N 
ATOM      7  H   UNL     1       5.428   2.558  17.979  0.00  0.00    +0.000 HD
BRANCH   6   8
ATOM      8  C   UNL     1       3.516   1.644  18.074  0.00  0.00    +0.000 C 
BRANCH   8   9
ATOM      9  C   UNL     1       2.771   2.233  19.243  0.00  0.00    +0.000 A 
ATOM     10  C   UNL     1       1.454   2.689  19.043  0.00  0.00    +0.000 A 
ATOM     11  C   UNL     1       0.719   3.246  20.092  0.00  0.00    +0.000 A 
ATOM     12  C   UNL     1       1.285   3.350  21.359  0.00  0.00    +0.000 A 
ATOM     13  C   UNL     1       2.584   2.893  21.578  0.00  0.00    +0.000 A 
ATOM     14  C   UNL     1       3.322   2.334  20.529  0.00  0.00    +0.000 A 
ATOM     15 CL   UNL     1       4.917   1.775  20.885  0.00  0.00    +0.000 Cl
ENDBRANCH   8   9
ENDBRANCH   6   8
ENDBRANCH   1   5
BRANCH   1  16
ATOM     16  S   UNL     1       5.717   5.706  17.433  0.00  0.00    +0.000 S 
ATOM     17  O   UNL     1       6.383   5.005  18.517  0.00  0.00    +0.000 OA
ATOM     18  O   UNL     1       6.409   6.771  16.726  0.00  0.00    +0.000 OA
BRANCH  16  19
ATOM     19  C   UNL     1       4.220   6.404  18.096  0.00  0.00    +0.000 A 
ATOM     20  C   UNL     1       3.689   5.906  19.293  0.00  0.00    +0.000 A 
ATOM     21  C   UNL     1       2.613   6.562  19.902  0.00  0.00    +0.000 A 
ATOM     22  C   UNL     1       2.085   7.719  19.326  0.00  0.00    +0.000 A 
ATOM     23 CL   UNL     1       0.794   8.549  20.104  0.00  0.00    +0.000 Cl
ATOM     24  C   UNL     1       2.617   8.221  18.139  0.00  0.00    +0.000 A 
ATOM     25  C   UNL     1       3.687   7.564  17.522  0.00  0.00    +0.000 A 
ENDBRANCH  16  19
ENDBRANCH   1  16
TORSDOF 5
ENDMDL
MODEL 2
REMARK VINA RESULT:      -7.2      0.880      1.022
REMARK  Name = 
REMARK  5 active torsions:
REMARK  status: ('A' for Active; 'I' for Inactive)
REMARK    1  A    between atoms: C_2  and  C_12
REMARK    2  A    between atoms: N_3  and  C_4
REMARK    3  A    between atoms: C_4  and  C_5
REMARK    4  A    between atoms: C_12  and  S_13
REMARK    5  A    between atoms: S_13  and  C_16
REMARK                            x       y       z     vdW  Elec       q    Type
REMARK                         _______ _______ _______ _____ _____    ______ ____
ROOT
ATOM      1  C   UNL     1       5.878   4.798  16.496  0.00  0.00    +0.000 C 
ATOM      2  C   UNL     1       7.256   4.464  17.042  0.00  0.00    +0.000 C 
ATOM      3  C   UNL     1       7.019   4.466  15.558  0.00  0.00    +0.000 C 
ENDROOT
BRANCH   1   5
ATOM      4  O   UNL     1       3.819   3.948  15.809  0.00  0.00    +0.000 OA
ATOM      5  C   UNL     1       4.739   3.880  16.616  0.00  0.00    +0.000 C 
ATOM      6  N   UNL     1       4.795   2.971  17.644  0.00  0.00    +0.000 N 
ATOM      7  H   UNL     1       5.546   3.023  18.324  0.00  0.00    +0.000 HD
BRANCH   6   8
ATOM      8  C   UNL     1       3.718   2.037  17.892  0.00  0.00    +0.000 C 
BRANCH   8   9
ATOM      9  C   UNL     1       2.870   2.469  19.060  0.00  0.00    +0.000 A 
ATOM     10  C   UNL     1       1.577   2.967  18.809  0.00  0.00    +0.000 A 
ATOM     11  C   UNL     1       0.752   3.384  19.854  0.00  0.00    +0.000 A 
ATOM     12  C   UNL     1       1.201   3.305  21.169  0.00  0.00    +0.000 A 
ATOM     13  C   UNL     1       2.474   2.804  21.438  0.00  0.00    +0.000 A 
ATOM     14  C   UNL     1       3.304   2.385  20.392  0.00  0.00    +0.000 A 
ATOM     15 CL   UNL     1       4.859   1.761  20.808  0.00  0.00    +0.000 Cl
ENDBRANCH   8   9
ENDBRANCH   6   8
ENDBRANCH   1   5
BRANCH   1  16
ATOM     16  S   UNL     1       5.474   6.557  16.654  0.00  0.00    +0.000 S 
ATOM     17  O   UNL     1       6.633   7.174  17.275  0.00  0.00    +0.000 OA
ATOM     18  O   UNL     1       5.006   7.031  15.362  0.00  0.00    +0.000 OA
BRANCH  16  19
ATOM     19  C   UNL     1       4.116   6.717  17.793  0.00  0.00    +0.000 A 
ATOM     20  C   UNL     1       4.090   5.943  18.961  0.00  0.00    +0.000 A 
ATOM     21  C   UNL     1       3.117   6.188  19.937  0.00  0.00    +0.000 A 
ATOM     22  C   UNL     1       2.188   7.214  19.752  0.00  0.00    +0.000 A 
ATOM     23 CL   UNL     1       1.024   7.543  20.976  0.00  0.00    +0.000 Cl
ATOM     24  C   UNL     1       2.217   7.991  18.596  0.00  0.00    +0.000 A 
ATOM     25  C   UNL     1       3.182   7.744  17.613  0.00  0.00    +0.000 A 
ENDBRANCH  16  19
ENDBRANCH   1  16
TORSDOF 5
ENDMDL
MODEL 3
REMARK VINA RESULT:      -7.2      2.951      5.620
REMARK  Name = 
REMARK  5 active torsions:
REMARK  status: ('A' for Active; 'I' for Inactive)
REMARK    1  A    between atoms: C_2  and  C_12
REMARK    2  A    between atoms: N_3  and  C_4
REMARK    3  A    between atoms: C_4  and  C_5
REMARK    4  A    between atoms: C_12  and  S_13
REMARK    5  A    between atoms: S_13  and  C_16
REMARK                            x       y       z     vdW  Elec       q    Type
REMARK                         _______ _______ _______ _____ _____    ______ ____
ROOT
ATOM      1  C   UNL     1       2.466   3.760  19.107  0.00  0.00    +0.000 C 
ATOM      2  C   UNL     1       1.475   2.625  18.914  0.00  0.00    +0.000 C 
ATOM      3  C   UNL     1       1.502   3.769  17.940  0.00  0.00    +0.000 C 
ENDROOT
BRANCH   1   5
ATOM      4  O   UNL     1       2.533   4.425  21.340  0.00  0.00    +0.000 OA
ATOM      5  C   UNL     1       2.327   4.755  20.177  0.00  0.00    +0.000 C 
ATOM      6  N   UNL     1       1.983   6.025  19.787  0.00  0.00    +0.000 N 
ATOM      7  H   UNL     1       1.748   6.210  18.817  0.00  0.00    +0.000 HD
BRANCH   6   8
ATOM      8  C   UNL     1       1.778   7.086  20.749  0.00  0.00    +0.000 C 
BRANCH   8   9
ATOM      9  C   UNL     1       1.518   8.406  20.070  0.00  0.00    +0.000 A 
ATOM     10  C   UNL     1       1.904   8.560  18.725  0.00  0.00    +0.000 A 
ATOM     11  C   UNL     1       1.690   9.763  18.050  0.00  0.00    +0.000 A 
ATOM     12  C   UNL     1       1.080  10.829  18.703  0.00  0.00    +0.000 A 
ATOM     13  C   UNL     1       0.680  10.690  20.032  0.00  0.00    +0.000 A 
ATOM     14  C   UNL     1       0.893   9.486  20.712  0.00  0.00    +0.000 A 
ATOM     15 CL   UNL     1       0.354   9.387  22.349  0.00  0.00    +0.000 Cl
ENDBRANCH   8   9
ENDBRANCH   6   8
ENDBRANCH   1   5
BRANCH   1  16
ATOM     16  S   UNL     1       4.168   3.272  18.720  0.00  0.00    +0.000 S 
ATOM     17  O   UNL     1       4.672   2.618  19.914  0.00  0.00    +0.000 OA
ATOM     18  O   UNL     1       4.157   2.559  17.453  0.00  0.00    +0.000 OA
BRANCH  16  19
ATOM     19  C   UNL     1       5.131   4.750  18.480  0.00  0.00    +0.000 A 
ATOM     20  C   UNL     1       6.362   4.894  19.134  0.00  0.00    +0.000 A 
ATOM     21  C   UNL     1       7.197   5.972  18.816  0.00  0.00    +0.000 A 
ATOM     22  C   UNL     1       6.808   6.889  17.838  0.00  0.00    +0.000 A 
ATOM     23 CL   UNL     1       7.859   8.186  17.417  0.00  0.00    +0.000 Cl
ATOM     24  C   UNL     1       5.588   6.744  17.180  0.00  0.00    +0.000 A 
ATOM     25  C   UNL     1       4.746   5.673  17.500  0.00  0.00    +0.000 A 
ENDBRANCH  16  19
ENDBRANCH   1  16
TORSDOF 5
ENDMDL
MODEL 4
REMARK VINA RESULT:      -7.2      0.325      1.040
REMARK  Name = 
REMARK  5 active torsions:
REMARK  status: ('A' for Active; 'I' for Inactive)
REMARK    1  A    between atoms: C_2  and  C_12
REMARK    2  A    between atoms: N_3  and  C_4
REMARK    3  A    between atoms: C_4  and  C_5
REMARK    4  A    between atoms: C_12  and  S_13
REMARK    5  A    between atoms: S_13  and  C_16
REMARK                            x       y       z     vdW  Elec       q    Type
REMARK                         _______ _______ _______ _____ _____    ______ ____
ROOT
ATOM      1  C   UNL     1       5.265   4.201  16.241  0.00  0.00    +0.000 C 
ATOM      2  C   UNL     1       6.315   3.670  15.280  0.00  0.00    +0.000 C 
ATOM      3  C   UNL     1       5.322   4.695  14.811  0.00  0.00    +0.000 C 
ENDROOT
BRANCH   1   5
ATOM      4  O   UNL     1       3.001   3.646  16.273  0.00  0.00    +0.000 OA
ATOM      5  C   UNL     1       4.126   3.391  16.689  0.00  0.00    +0.000 C 
ATOM      6  N   UNL     1       4.412   2.365  17.556  0.00  0.00    +0.000 N 
ATOM      7  H   UNL     1       5.352   2.261  17.924  0.00  0.00    +0.000 HD
BRANCH   6   8
ATOM      8  C   UNL     1       3.372   1.519  18.101  0.00  0.00    +0.000 C 
BRANCH   8   9
ATOM      9  C   UNL     1       2.676   2.177  19.263  0.00  0.00    +0.000 A 
ATOM     10  C   UNL     1       1.355   2.632  19.090  0.00  0.00    +0.000 A 
ATOM     11  C   UNL     1       0.666   3.252  20.133  0.00  0.00    +0.000 A 
ATOM     12  C   UNL     1       1.281   3.422  21.370  0.00  0.00    +0.000 A 
ATOM     13  C   UNL     1       2.585   2.968  21.563  0.00  0.00    +0.000 A 
ATOM     14  C   UNL     1       3.279   2.346  20.519  0.00  0.00    +0.000 A 
ATOM     15 CL   UNL     1       4.883   1.795  20.844  0.00  0.00    +0.000 Cl
ENDBRANCH   8   9
ENDBRANCH   6   8
ENDBRANCH   1   5
BRANCH   1  16
ATOM     16  S   UNL     1       5.961   5.315  17.488  0.00  0.00    +0.000 S 
ATOM     17  O   UNL     1       6.487   4.456  18.535  0.00  0.00    +0.000 OA
ATOM     18  O   UNL     1       6.840   6.256  16.815  0.00  0.00    +0.000 OA
BRANCH  16  19
ATOM     19  C   UNL     1       4.630   6.259  18.199  0.00  0.00    +0.000 A 
ATOM     20  C   UNL     1       4.104   7.356  17.503  0.00  0.00    +0.000 A 
ATOM     21  C   UNL     1       2.951   7.992  17.978  0.00  0.00    +0.000 A 
ATOM     22  C   UNL     1       2.320   7.521  19.130  0.00  0.00    +0.000 A 
ATOM     23 CL   UNL     1       0.875   8.277  19.683  0.00  0.00    +0.000 Cl
ATOM     24  C   UNL     1       2.836   6.425  19.820  0.00  0.00    +0.000 A 
ATOM     25  C   UNL     1       3.993   5.791  19.355  0.00  0.00    +0.000 A 
ENDBRANCH  16  19
ENDBRANCH   1  16
TORSDOF 5
ENDMDL
MODEL 5
REMARK VINA RESULT:      -7.2      1.503      1.881
REMARK  Name = 
REMARK  5 active torsions:
REMARK  status: ('A' for Active; 'I' for Inactive)
REMARK    1  A    between atoms: C_2  and  C_12
REMARK    2  A    between atoms: N_3  and  C_4
REMARK    3  A    between atoms: C_4  and  C_5
REMARK    4  A    between atoms: C_12  and  S_13
REMARK    5  A    between atoms: S_13  and  C_16
REMARK                            x       y       z     vdW  Elec       q    Type
REMARK                         _______ _______ _______ _____ _____    ______ ____
ROOT
ATOM      1  C   UNL     1       6.083   4.897  16.607  0.00  0.00    +0.000 C 
ATOM      2  C   UNL     1       7.395   4.713  17.351  0.00  0.00    +0.000 C 
ATOM      3  C   UNL     1       7.359   4.589  15.853  0.00  0.00    +0.000 C 
ENDROOT
BRANCH   1   5
ATOM      4  O   UNL     1       4.317   3.707  15.659  0.00  0.00    +0.000 OA
ATOM      5  C   UNL     1       5.004   3.902  16.655  0.00  0.00    +0.000 C 
ATOM      6  N   UNL     1       4.849   3.229  17.842  0.00  0.00    +0.000 N 
ATOM      7  H   UNL     1       5.399   3.498  18.651  0.00  0.00    +0.000 HD
BRANCH   6   8
ATOM      8  C   UNL     1       3.798   2.252  18.028  0.00  0.00    +0.000 C 
BRANCH   8   9
ATOM      9  C   UNL     1       2.890   2.628  19.171  0.00  0.00    +0.000 A 
ATOM     10  C   UNL     1       3.235   2.213  20.471  0.00  0.00    +0.000 A 
ATOM     11  C   UNL     1       2.428   2.532  21.564  0.00  0.00    +0.000 A 
ATOM     12  C   UNL     1       1.266   3.275  21.379  0.00  0.00    +0.000 A 
ATOM     13  C   UNL     1       0.915   3.704  20.100  0.00  0.00    +0.000 A 
ATOM     14  C   UNL     1       1.723   3.387  19.002  0.00  0.00    +0.000 A 
ATOM     15 CL   UNL     1       1.228   3.970  17.453  0.00  0.00    +0.000 Cl
ENDBRANCH   8   9
ENDBRANCH   6   8
ENDBRANCH   1   5
BRANCH   1  16
ATOM     16  S   UNL     1       5.541   6.625  16.568  0.00  0.00    +0.000 S 
ATOM     17  O   UNL     1       6.652   7.399  17.093  0.00  0.00    +0.000 OA
ATOM     18  O   UNL     1       5.026   6.908  15.239  0.00  0.00    +0.000 OA
BRANCH  16  19
ATOM     19  C   UNL     1       4.184   6.810  17.705  0.00  0.00    +0.000 A 
ATOM     20  C   UNL     1       4.178   6.090  18.908  0.00  0.00    +0.000 A 
ATOM     21  C   UNL     1       3.204   6.361  19.876  0.00  0.00    +0.000 A 
ATOM     22  C   UNL     1       2.253   7.357  19.648  0.00  0.00    +0.000 A 
ATOM     23 CL   UNL     1       1.087   7.719  20.861  0.00  0.00    +0.000 Cl
ATOM     24  C   UNL     1       2.261   8.080  18.456  0.00  0.00    +0.000 A 
ATOM     25  C   UNL     1       3.228   7.808  17.482  0.00  0.00    +0.000 A 
ENDBRANCH  16  19
ENDBRANCH   1  16
TORSDOF 5
ENDMDL
MODEL 6
REMARK VINA RESULT:      -7.1      1.614      2.354
REMARK  Name = 
REMARK  5 active torsions:
REMARK  status: ('A' for Active; 'I' for Inactive)
REMARK    1  A    between atoms: C_2  and  C_12
REMARK    2  A    between atoms: N_3  and  C_4
REMARK    3  A    between atoms: C_4  and  C_5
REMARK    4  A    between atoms: C_12  and  S_13
REMARK    5  A    between atoms: S_13  and  C_16
REMARK                            x       y       z     vdW  Elec       q    Type
REMARK                         _______ _______ _______ _____ _____    ______ ____
ROOT
ATOM      1  C   UNL     1       6.288   5.240  17.757  0.00  0.00    +0.000 C 
ATOM      2  C   UNL     1       7.403   6.268  17.853  0.00  0.00    +0.000 C 
ATOM      3  C   UNL     1       7.635   4.979  17.116  0.00  0.00    +0.000 C 
ENDROOT
BRANCH   1   5
ATOM      4  O   UNL     1       6.073   4.841  20.043  0.00  0.00    +0.000 OA
ATOM      5  C   UNL     1       5.857   4.436  18.906  0.00  0.00    +0.000 C 
ATOM      6  N   UNL     1       5.208   3.261  18.618  0.00  0.00    +0.000 N 
ATOM      7  H   UNL     1       5.135   2.946  17.656  0.00  0.00    +0.000 HD
BRANCH   6   8
ATOM      8  C   UNL     1       4.767   2.361  19.662  0.00  0.00    +0.000 C 
BRANCH   8   9
ATOM      9  C   UNL     1       3.312   2.566  19.991  0.00  0.00    +0.000 A 
ATOM     10  C   UNL     1       2.960   2.914  21.309  0.00  0.00    +0.000 A 
ATOM     11  C   UNL     1       1.625   3.113  21.668  0.00  0.00    +0.000 A 
ATOM     12  C   UNL     1       0.620   2.975  20.715  0.00  0.00    +0.000 A 
ATOM     13  C   UNL     1       0.951   2.643  19.402  0.00  0.00    +0.000 A 
ATOM     14  C   UNL     1       2.288   2.443  19.039  0.00  0.00    +0.000 A 
ATOM     15 CL   UNL     1       2.617   2.051  17.390  0.00  0.00    +0.000 Cl
ENDBRANCH   8   9
ENDBRANCH   6   8
ENDBRANCH   1   5
BRANCH   1  16
ATOM     16  S   UNL     1       4.965   5.751  16.629  0.00  0.00    +0.000 S 
ATOM     17  O   UNL     1       5.557   6.743  15.750  0.00  0.00    +0.000 OA
ATOM     18  O   UNL     1       4.362   4.553  16.068  0.00  0.00    +0.000 OA
BRANCH  16  19
ATOM     19  C   UNL     1       3.706   6.573  17.583  0.00  0.00    +0.000 A 
ATOM     20  C   UNL     1       3.168   5.947  18.715  0.00  0.00    +0.000 A 
ATOM     21  C   UNL     1       2.307   6.658  19.560  0.00  0.00    +0.000 A 
ATOM     22  C   UNL     1       2.002   7.991  19.281  0.00  0.00    +0.000 A 
ATOM     23 CL   UNL     1       0.981   8.875  20.348  0.00  0.00    +0.000 Cl
ATOM     24  C   UNL     1       2.542   8.619  18.159  0.00  0.00    +0.000 A 
ATOM     25  C   UNL     1       3.396   7.910  17.307  0.00  0.00    +0.000 A 
ENDBRANCH  16  19
ENDBRANCH   1  16
TORSDOF 5
ENDMDL
MODEL 7
REMARK VINA RESULT:      -7.1      3.017      5.743
REMARK  Name = 
REMARK  5 active torsions:
REMARK  status: ('A' for Active; 'I' for Inactive)
REMARK    1  A    between atoms: C_2  and  C_12
REMARK    2  A    between atoms: N_3  and  C_4
REMARK    3  A    between atoms: C_4  and  C_5
REMARK    4  A    between atoms: C_12  and  S_13
REMARK    5  A    between atoms: S_13  and  C_16
REMARK                            x       y       z     vdW  Elec       q    Type
REMARK                         _______ _______ _______ _____ _____    ______ ____
ROOT
ATOM      1  C   UNL     1       2.279   3.887  19.021  0.00  0.00    +0.000 C 
ATOM      2  C   UNL     1       1.114   2.938  18.794  0.00  0.00    +0.000 C 
ATOM      3  C   UNL     1       1.402   4.022  17.794  0.00  0.00    +0.000 C 
ENDROOT
BRANCH   1   5
ATOM      4  O   UNL     1       2.356   4.614  21.235  0.00  0.00    +0.000 OA
ATOM      5  C   UNL     1       2.256   4.929  20.055  0.00  0.00    +0.000 C 
ATOM      6  N   UNL     1       2.137   6.224  19.611  0.00  0.00    +0.000 N 
ATOM      7  H   UNL     1       1.976   6.408  18.626  0.00  0.00    +0.000 HD
BRANCH   6   8
ATOM      8  C   UNL     1       2.064   7.338  20.531  0.00  0.00    +0.000 C 
BRANCH   8   9
ATOM      9  C   UNL     1       1.372   8.523  19.910  0.00  0.00    +0.000 A 
ATOM     10  C   UNL     1       1.708   8.887  18.592  0.00  0.00    +0.000 A 
ATOM     11  C   UNL     1       1.100   9.978  17.970  0.00  0.00    +0.000 A 
ATOM     12  C   UNL     1       0.139  10.721  18.650  0.00  0.00    +0.000 A 
ATOM     13  C   UNL     1      -0.215  10.368  19.952  0.00  0.00    +0.000 A 
ATOM     14  C   UNL     1       0.393   9.274  20.578  0.00  0.00    +0.000 A 
ATOM     15 CL   UNL     1      -0.113   8.891  22.184  0.00  0.00    +0.000 Cl
ENDBRANCH   8   9
ENDBRANCH   6   8
ENDBRANCH   1   5
BRANCH   1  16
ATOM     16  S   UNL     1       3.886   3.092  18.759  0.00  0.00    +0.000 S 
ATOM     17  O   UNL     1       4.286   2.575  20.056  0.00  0.00    +0.000 OA
ATOM     18  O   UNL     1       3.765   2.191  17.626  0.00  0.00    +0.000 OA
BRANCH  16  19
ATOM     19  C   UNL     1       5.062   4.349  18.305  0.00  0.00    +0.000 A 
ATOM     20  C   UNL     1       4.832   5.144  17.174  0.00  0.00    +0.000 A 
ATOM     21  C   UNL     1       5.663   6.240  16.913  0.00  0.00    +0.000 A 
ATOM     22  C   UNL     1       6.705   6.547  17.789  0.00  0.00    +0.000 A 
ATOM     23 CL   UNL     1       7.695   7.924  17.491  0.00  0.00    +0.000 Cl
ATOM     24  C   UNL     1       6.931   5.763  18.920  0.00  0.00    +0.000 A 
ATOM     25  C   UNL     1       6.109   4.662  19.180  0.00  0.00    +0.000 A 
ENDBRANCH  16  19
ENDBRANCH   1  16
TORSDOF 5
ENDMDL
MODEL 8
REMARK VINA RESULT:      -7.0      3.017      5.659
REMARK  Name = 
REMARK  5 active torsions:
REMARK  status: ('A' for Active; 'I' for Inactive)
REMARK    1  A    between atoms: C_2  and  C_12
REMARK    2  A    between atoms: N_3  and  C_4
REMARK    3  A    between atoms: C_4  and  C_5
REMARK    4  A    between atoms: C_12  and  S_13
REMARK    5  A    between atoms: S_13  and  C_16
REMARK                            x       y       z     vdW  Elec       q    Type
REMARK                         _______ _______ _______ _____ _____    ______ ____
ROOT
ATOM      1  C   UNL     1       2.131   3.638  19.278  0.00  0.00    +0.000 C 
ATOM      2  C   UNL     1       0.951   2.682  19.225  0.00  0.00    +0.000 C 
ATOM      3  C   UNL     1       1.131   3.710  18.143  0.00  0.00    +0.000 C 
ENDROOT
BRANCH   1   5
ATOM      4  O   UNL     1       2.315   4.478  21.444  0.00  0.00    +0.000 OA
ATOM      5  C   UNL     1       2.213   4.735  20.250  0.00  0.00    +0.000 C 
ATOM      6  N   UNL     1       2.186   6.008  19.736  0.00  0.00    +0.000 N 
ATOM      7  H   UNL     1       2.017   6.149  18.745  0.00  0.00    +0.000 HD
BRANCH   6   8
ATOM      8  C   UNL     1       2.221   7.174  20.592  0.00  0.00    +0.000 C 
BRANCH   8   9
ATOM      9  C   UNL     1       1.446   8.320  19.996  0.00  0.00    +0.000 A 
ATOM     10  C   UNL     1       0.454   8.943  20.778  0.00  0.00    +0.000 A 
ATOM     11  C   UNL     1      -0.295  10.007  20.273  0.00  0.00    +0.000 A 
ATOM     12  C   UNL     1      -0.063  10.472  18.983  0.00  0.00    +0.000 A 
ATOM     13  C   UNL     1       0.923   9.875  18.198  0.00  0.00    +0.000 A 
ATOM     14  C   UNL     1       1.676   8.808  18.701  0.00  0.00    +0.000 A 
ATOM     15 CL   UNL     1       2.890   8.134  17.674  0.00  0.00    +0.000 Cl
ENDBRANCH   8   9
ENDBRANCH   6   8
ENDBRANCH   1   5
BRANCH   1  16
ATOM     16  S   UNL     1       3.704   2.826  18.893  0.00  0.00    +0.000 S 
ATOM     17  O   UNL     1       4.186   2.284  20.151  0.00  0.00    +0.000 OA
ATOM     18  O   UNL     1       3.491   1.943  17.758  0.00  0.00    +0.000 OA
BRANCH  16  19
ATOM     19  C   UNL     1       4.864   4.073  18.375  0.00  0.00    +0.000 A 
ATOM     20  C   UNL     1       4.693   4.716  17.142  0.00  0.00    +0.000 A 
ATOM     21  C   UNL     1       5.500   5.811  16.810  0.00  0.00    +0.000 A 
ATOM     22  C   UNL     1       6.459   6.269  17.716  0.00  0.00    +0.000 A 
ATOM     23 CL   UNL     1       7.416   7.644  17.324  0.00  0.00    +0.000 Cl
ATOM     24  C   UNL     1       6.625   5.636  18.947  0.00  0.00    +0.000 A 
ATOM     25  C   UNL     1       5.827   4.536  19.279  0.00  0.00    +0.000 A 
ENDBRANCH  16  19
ENDBRANCH   1  16
TORSDOF 5
ENDMDL
MODEL 9
REMARK VINA RESULT:      -7.0      1.597      2.537
REMARK  Name = 
REMARK  5 active torsions:
REMARK  status: ('A' for Active; 'I' for Inactive)
REMARK    1  A    between atoms: C_2  and  C_12
REMARK    2  A    between atoms: N_3  and  C_4
REMARK    3  A    between atoms: C_4  and  C_5
REMARK    4  A    between atoms: C_12  and  S_13
REMARK    5  A    between atoms: S_13  and  C_16
REMARK                            x       y       z     vdW  Elec       q    Type
REMARK                         _______ _______ _______ _____ _____    ______ ____
ROOT
ATOM      1  C   UNL     1       6.281   5.214  17.705  0.00  0.00    +0.000 C 
ATOM      2  C   UNL     1       7.462   6.169  17.752  0.00  0.00    +0.000 C 
ATOM      3  C   UNL     1       7.558   4.897  16.958  0.00  0.00    +0.000 C 
ENDROOT
BRANCH   1   5
ATOM      4  O   UNL     1       6.191   4.752  19.988  0.00  0.00    +0.000 OA
ATOM      5  C   UNL     1       5.884   4.394  18.857  0.00  0.00    +0.000 C 
ATOM      6  N   UNL     1       5.163   3.260  18.576  0.00  0.00    +0.000 N 
ATOM      7  H   UNL     1       5.015   2.980  17.612  0.00  0.00    +0.000 HD
BRANCH   6   8
ATOM      8  C   UNL     1       4.746   2.348  19.620  0.00  0.00    +0.000 C 
BRANCH   8   9
ATOM      9  C   UNL     1       3.303   2.562  19.996  0.00  0.00    +0.000 A 
ATOM     10  C   UNL     1       2.997   2.909  21.326  0.00  0.00    +0.000 A 
ATOM     11  C   UNL     1       1.676   3.116  21.729  0.00  0.00    +0.000 A 
ATOM     12  C   UNL     1       0.640   2.986  20.809  0.00  0.00    +0.000 A 
ATOM     13  C   UNL     1       0.925   2.654  19.485  0.00  0.00    +0.000 A 
ATOM     14  C   UNL     1       2.248   2.446  19.079  0.00  0.00    +0.000 A 
ATOM     15 CL   UNL     1       2.520   2.056  17.419  0.00  0.00    +0.000 Cl
ENDBRANCH   8   9
ENDBRANCH   6   8
ENDBRANCH   1   5
BRANCH   1  16
ATOM     16  S   UNL     1       4.914   5.846  16.698  0.00  0.00    +0.000 S 
ATOM     17  O   UNL     1       5.516   6.764  15.747  0.00  0.00    +0.000 OA
ATOM     18  O   UNL     1       4.143   4.711  16.219  0.00  0.00    +0.000 OA
BRANCH  16  19
ATOM     19  C   UNL     1       3.841   6.801  17.749  0.00  0.00    +0.000 A 
ATOM     20  C   UNL     1       3.404   8.066  17.334  0.00  0.00    +0.000 A 
ATOM     21  C   UNL     1       2.429   8.743  18.077  0.00  0.00    +0.000 A 
ATOM     22  C   UNL     1       1.884   8.149  19.216  0.00  0.00    +0.000 A 
ATOM     23 CL   UNL     1       0.652   8.965  20.099  0.00  0.00    +0.000 Cl
ATOM     24  C   UNL     1       2.311   6.888  19.626  0.00  0.00    +0.000 A 
ATOM     25  C   UNL     1       3.291   6.210  18.893  0.00  0.00    +0.000 A 
ENDBRANCH  16  19
ENDBRANCH   1  16
TORSDOF 5
ENDMDL
