MODEL 1
REMARK VINA RESULT:      -7.0      0.000      0.000
REMARK  Name = 
REMARK  2 active torsions:
REMARK  status: ('A' for Active; 'I' for Inactive)
REMARK    1  A    between atoms: C_1  and  N_2
REMARK    2  A    between atoms: C_6  and  C_7
REMARK                            x       y       z     vdW  Elec       q    Type
REMARK                         _______ _______ _______ _____ _____    ______ ____
ROOT
ATOM      1  C   UNL     1       3.019   7.369  18.271  0.00  0.00    +0.000 C 
ATOM      2  O   UNL     1       3.037   8.389  17.591  0.00  0.00    +0.000 OA
ATOM      3  N   UNL     1       2.322   7.191  19.449  0.00  0.00    +0.000 N 
ATOM      4  C   UNL     1       1.518   8.123  20.053  0.00  0.00    +0.000 A 
ATOM      5  N   UNL     1       1.145   8.023  21.308  0.00  0.00    +0.000 NA
ATOM      6  C   UNL     1       0.405   9.145  21.663  0.00  0.00    +0.000 A 
ATOM      7  C   UNL     1      -0.091   9.454  22.947  0.00  0.00    +0.000 A 
ATOM      8  C   UNL     1      -0.807  10.641  23.154  0.00  0.00    +0.000 A 
ATOM      9  C   UNL     1      -1.055  11.510  22.097  0.00  0.00    +0.000 A 
ATOM     10  C   UNL     1      -0.588  11.223  20.813  0.00  0.00    +0.000 A 
ATOM     11  C   UNL     1       0.150  10.043  20.623  0.00  0.00    +0.000 A 
ATOM     12  S   UNL     1       0.883   9.450  19.192  0.00  0.00    +0.000 S 
ATOM     13  H   UNL     1       2.528   6.354  19.983  0.00  0.00    +0.000 HD
ENDROOT
BRANCH   1  19
ATOM     14  C   UNL     1       6.909   4.644  17.284  0.00  0.00    +0.000 C 
ATOM     15  N   UNL     1       5.515   4.982  17.456  0.00  0.00    +0.000 N 
ATOM     16  C   UNL     1       4.462   4.130  17.342  0.00  0.00    +0.000 A 
ATOM     17  C   UNL     1       3.344   4.874  17.618  0.00  0.00    +0.000 A 
ATOM     18 CL   UNL     1       1.745   4.308  17.615  0.00  0.00    +0.000 Cl
ATOM     19  C   UNL     1       3.816   6.187  17.895  0.00  0.00    +0.000 A 
ATOM     20  N   UNL     1       5.163   6.247  17.768  0.00  0.00    +0.000 NA
ENDBRANCH   1  19
TORSDOF 1
ENDMDL
MODEL 2
REMARK VINA RESULT:      -6.8      4.263      8.408
REMARK  Name = 
REMARK  2 active torsions:
REMARK  status: ('A' for Active; 'I' for Inactive)
REMARK    1  A    between atoms: C_1  and  N_2
REMARK    2  A    between atoms: C_6  and  C_7
REMARK                            x       y       z     vdW  Elec       q    Type
REMARK                         _______ _______ _______ _____ _____    ______ ____
ROOT
ATOM      1  C   UNL     1       4.411   5.294  18.276  0.00  0.00    +0.000 C 
ATOM      2  O   UNL     1       5.036   6.348  18.302  0.00  0.00    +0.000 OA
ATOM      3  N   UNL     1       4.466   4.341  17.279  0.00  0.00    +0.000 N 
ATOM      4  C   UNL     1       5.244   4.406  16.151  0.00  0.00    +0.000 A 
ATOM      5  N   UNL     1       5.026   3.650  15.101  0.00  0.00    +0.000 NA
ATOM      6  C   UNL     1       5.917   3.990  14.090  0.00  0.00    +0.000 A 
ATOM      7  C   UNL     1       5.938   3.471  12.777  0.00  0.00    +0.000 A 
ATOM      8  C   UNL     1       6.892   3.931  11.859  0.00  0.00    +0.000 A 
ATOM      9  C   UNL     1       7.836   4.881  12.236  0.00  0.00    +0.000 A 
ATOM     10  C   UNL     1       7.846   5.401  13.532  0.00  0.00    +0.000 A 
ATOM     11  C   UNL     1       6.870   4.951  14.436  0.00  0.00    +0.000 A 
ATOM     12  S   UNL     1       6.604   5.431  16.059  0.00  0.00    +0.000 S 
ATOM     13  H   UNL     1       3.777   3.599  17.313  0.00  0.00    +0.000 HD
ENDROOT
BRANCH   1  19
ATOM     14  C   UNL     1       2.135   2.645  21.643  0.00  0.00    +0.000 C 
ATOM     15  N   UNL     1       2.449   3.793  20.824  0.00  0.00    +0.000 N 
ATOM     16  C   UNL     1       1.874   5.022  20.909  0.00  0.00    +0.000 A 
ATOM     17  C   UNL     1       2.501   5.797  19.966  0.00  0.00    +0.000 A 
ATOM     18 CL   UNL     1       2.171   7.427  19.638  0.00  0.00    +0.000 Cl
ATOM     19  C   UNL     1       3.457   4.945  19.346  0.00  0.00    +0.000 A 
ATOM     20  N   UNL     1       3.398   3.699  19.870  0.00  0.00    +0.000 NA
ENDBRANCH   1  19
TORSDOF 1
ENDMDL
MODEL 3
REMARK VINA RESULT:      -6.7      1.516      1.662
REMARK  Name = 
REMARK  2 active torsions:
REMARK  status: ('A' for Active; 'I' for Inactive)
REMARK    1  A    between atoms: C_1  and  N_2
REMARK    2  A    between atoms: C_6  and  C_7
REMARK                            x       y       z     vdW  Elec       q    Type
REMARK                         _______ _______ _______ _____ _____    ______ ____
ROOT
ATOM      1  C   UNL     1       2.978   6.974  18.789  0.00  0.00    +0.000 C 
ATOM      2  O   UNL     1       3.103   7.885  17.978  0.00  0.00    +0.000 OA
ATOM      3  N   UNL     1       2.209   7.008  19.935  0.00  0.00    +0.000 N 
ATOM      4  C   UNL     1       1.440   8.063  20.354  0.00  0.00    +0.000 A 
ATOM      5  N   UNL     1       0.994   8.166  21.584  0.00  0.00    +0.000 NA
ATOM      6  C   UNL     1       0.315   9.370  21.734  0.00  0.00    +0.000 A 
ATOM      7  C   UNL     1      -0.225   9.887  22.930  0.00  0.00    +0.000 A 
ATOM      8  C   UNL     1      -0.868  11.132  22.925  0.00  0.00    +0.000 A 
ATOM      9  C   UNL     1      -0.998  11.857  21.745  0.00  0.00    +0.000 A 
ATOM     10  C   UNL     1      -0.484  11.362  20.545  0.00  0.00    +0.000 A 
ATOM     11  C   UNL     1       0.179  10.125  20.566  0.00  0.00    +0.000 A 
ATOM     12  S   UNL     1       0.944   9.292  19.280  0.00  0.00    +0.000 S 
ATOM     13  H   UNL     1       2.327   6.244  20.591  0.00  0.00    +0.000 HD
ENDROOT
BRANCH   1  19
ATOM     14  C   UNL     1       4.459   2.445  19.694  0.00  0.00    +0.000 C 
ATOM     15  N   UNL     1       4.371   3.718  19.019  0.00  0.00    +0.000 N 
ATOM     16  C   UNL     1       5.010   4.065  17.870  0.00  0.00    +0.000 A 
ATOM     17  C   UNL     1       4.608   5.346  17.587  0.00  0.00    +0.000 A 
ATOM     18 CL   UNL     1       5.106   6.275  16.259  0.00  0.00    +0.000 Cl
ATOM     19  C   UNL     1       3.711   5.704  18.631  0.00  0.00    +0.000 A 
ATOM     20  N   UNL     1       3.591   4.696  19.526  0.00  0.00    +0.000 NA
ENDBRANCH   1  19
TORSDOF 1
ENDMDL
MODEL 4
REMARK VINA RESULT:      -6.6      2.407      3.303
REMARK  Name = 
REMARK  2 active torsions:
REMARK  status: ('A' for Active; 'I' for Inactive)
REMARK    1  A    between atoms: C_1  and  N_2
REMARK    2  A    between atoms: C_6  and  C_7
REMARK                            x       y       z     vdW  Elec       q    Type
REMARK                         _______ _______ _______ _____ _____    ______ ____
ROOT
ATOM      1  C   UNL     1       4.216   5.659  17.617  0.00  0.00    +0.000 C 
ATOM      2  O   UNL     1       3.732   4.882  18.432  0.00  0.00    +0.000 OA
ATOM      3  N   UNL     1       3.881   6.989  17.465  0.00  0.00    +0.000 N 
ATOM      4  C   UNL     1       2.957   7.674  18.211  0.00  0.00    +0.000 A 
ATOM      5  N   UNL     1       2.451   8.822  17.827  0.00  0.00    +0.000 NA
ATOM      6  C   UNL     1       1.489   9.236  18.741  0.00  0.00    +0.000 A 
ATOM      7  C   UNL     1       0.656  10.369  18.630  0.00  0.00    +0.000 A 
ATOM      8  C   UNL     1      -0.286  10.645  19.631  0.00  0.00    +0.000 A 
ATOM      9  C   UNL     1      -0.393   9.823  20.747  0.00  0.00    +0.000 A 
ATOM     10  C   UNL     1       0.428   8.703  20.889  0.00  0.00    +0.000 A 
ATOM     11  C   UNL     1       1.351   8.422  19.868  0.00  0.00    +0.000 A 
ATOM     12  S   UNL     1       2.447   7.112  19.739  0.00  0.00    +0.000 S 
ATOM     13  H   UNL     1       4.246   7.465  16.647  0.00  0.00    +0.000 HD
ENDROOT
BRANCH   1  19
ATOM     14  C   UNL     1       6.083   3.755  13.565  0.00  0.00    +0.000 C 
ATOM     15  N   UNL     1       6.059   4.374  14.869  0.00  0.00    +0.000 N 
ATOM     16  C   UNL     1       7.139   4.796  15.579  0.00  0.00    +0.000 A 
ATOM     17  C   UNL     1       6.640   5.343  16.734  0.00  0.00    +0.000 A 
ATOM     18 CL   UNL     1       7.555   6.023  17.989  0.00  0.00    +0.000 Cl
ATOM     19  C   UNL     1       5.227   5.210  16.641  0.00  0.00    +0.000 A 
ATOM     20  N   UNL     1       4.880   4.586  15.491  0.00  0.00    +0.000 NA
ENDBRANCH   1  19
TORSDOF 1
ENDMDL
MODEL 5
REMARK VINA RESULT:      -6.5      1.494      1.874
REMARK  Name = 
REMARK  2 active torsions:
REMARK  status: ('A' for Active; 'I' for Inactive)
REMARK    1  A    between atoms: C_1  and  N_2
REMARK    2  A    between atoms: C_6  and  C_7
REMARK                            x       y       z     vdW  Elec       q    Type
REMARK                         _______ _______ _______ _____ _____    ______ ____
ROOT
ATOM      1  C   UNL     1       2.399   6.591  19.533  0.00  0.00    +0.000 C 
ATOM      2  O   UNL     1       2.038   5.974  20.529  0.00  0.00    +0.000 OA
ATOM      3  N   UNL     1       2.100   7.906  19.239  0.00  0.00    +0.000 N 
ATOM      4  C   UNL     1       1.358   8.753  20.021  0.00  0.00    +0.000 A 
ATOM      5  N   UNL     1       0.840   9.867  19.559  0.00  0.00    +0.000 NA
ATOM      6  C   UNL     1       0.080  10.474  20.552  0.00  0.00    +0.000 A 
ATOM      7  C   UNL     1      -0.710  11.635  20.415  0.00  0.00    +0.000 A 
ATOM      8  C   UNL     1      -1.440  12.117  21.510  0.00  0.00    +0.000 A 
ATOM      9  C   UNL     1      -1.378  11.472  22.741  0.00  0.00    +0.000 A 
ATOM     10  C   UNL     1      -0.593  10.329  22.908  0.00  0.00    +0.000 A 
ATOM     11  C   UNL     1       0.115   9.842  21.797  0.00  0.00    +0.000 A 
ATOM     12  S   UNL     1       1.112   8.453  21.682  0.00  0.00    +0.000 S 
ATOM     13  H   UNL     1       2.330   8.234  18.307  0.00  0.00    +0.000 HD
ENDROOT
BRANCH   1  19
ATOM     14  C   UNL     1       6.037   5.803  16.421  0.00  0.00    +0.000 C 
ATOM     15  N   UNL     1       4.784   5.582  17.105  0.00  0.00    +0.000 N 
ATOM     16  C   UNL     1       3.951   4.521  16.935  0.00  0.00    +0.000 A 
ATOM     17  C   UNL     1       2.910   4.716  17.806  0.00  0.00    +0.000 A 
ATOM     18 CL   UNL     1       1.575   3.690  18.007  0.00  0.00    +0.000 Cl
ATOM     19  C   UNL     1       3.195   5.938  18.477  0.00  0.00    +0.000 A 
ATOM     20  N   UNL     1       4.348   6.477  18.016  0.00  0.00    +0.000 NA
ENDBRANCH   1  19
TORSDOF 1
ENDMDL
MODEL 6
REMARK VINA RESULT:      -6.5      3.378      6.599
REMARK  Name = 
REMARK  2 active torsions:
REMARK  status: ('A' for Active; 'I' for Inactive)
REMARK    1  A    between atoms: C_1  and  N_2
REMARK    2  A    between atoms: C_6  and  C_7
REMARK                            x       y       z     vdW  Elec       q    Type
REMARK                         _______ _______ _______ _____ _____    ______ ____
ROOT
ATOM      1  C   UNL     1       1.775   9.253  18.332  0.00  0.00    +0.000 C 
ATOM      2  O   UNL     1       2.179   8.859  17.244  0.00  0.00    +0.000 OA
ATOM      3  N   UNL     1       1.721   8.512  19.495  0.00  0.00    +0.000 N 
ATOM      4  C   UNL     1       2.124   7.209  19.634  0.00  0.00    +0.000 A 
ATOM      5  N   UNL     1       1.761   6.464  20.652  0.00  0.00    +0.000 NA
ATOM      6  C   UNL     1       2.255   5.175  20.485  0.00  0.00    +0.000 A 
ATOM      7  C   UNL     1       2.000   4.063  21.315  0.00  0.00    +0.000 A 
ATOM      8  C   UNL     1       2.557   2.815  21.001  0.00  0.00    +0.000 A 
ATOM      9  C   UNL     1       3.378   2.666  19.889  0.00  0.00    +0.000 A 
ATOM     10  C   UNL     1       3.658   3.753  19.059  0.00  0.00    +0.000 A 
ATOM     11  C   UNL     1       3.074   4.993  19.368  0.00  0.00    +0.000 A 
ATOM     12  S   UNL     1       3.192   6.478  18.524  0.00  0.00    +0.000 S 
ATOM     13  H   UNL     1       1.216   8.916  20.276  0.00  0.00    +0.000 HD
ENDROOT
BRANCH   1  19
ATOM     14  C   UNL     1       1.711  14.090  18.694  0.00  0.00    +0.000 C 
ATOM     15  N   UNL     1       1.200  12.740  18.664  0.00  0.00    +0.000 N 
ATOM     16  C   UNL     1      -0.106  12.373  18.743  0.00  0.00    +0.000 A 
ATOM     17  C   UNL     1      -0.121  11.005  18.641  0.00  0.00    +0.000 A 
ATOM     18 CL   UNL     1      -1.498  10.017  18.684  0.00  0.00    +0.000 Cl
ATOM     19  C   UNL     1       1.241  10.618  18.500  0.00  0.00    +0.000 A 
ATOM     20  N   UNL     1       2.052  11.701  18.539  0.00  0.00    +0.000 NA
ENDBRANCH   1  19
TORSDOF 1
ENDMDL
MODEL 7
REMARK VINA RESULT:      -6.4      1.553      2.069
REMARK  Name = 
REMARK  2 active torsions:
REMARK  status: ('A' for Active; 'I' for Inactive)
REMARK    1  A    between atoms: C_1  and  N_2
REMARK    2  A    between atoms: C_6  and  C_7
REMARK                            x       y       z     vdW  Elec       q    Type
REMARK                         _______ _______ _______ _____ _____    ______ ____
ROOT
ATOM      1  C   UNL     1       2.953   6.208  19.116  0.00  0.00    +0.000 C 
ATOM      2  O   UNL     1       2.467   5.772  20.154  0.00  0.00    +0.000 OA
ATOM      3  N   UNL     1       2.700   7.445  18.558  0.00  0.00    +0.000 N 
ATOM      4  C   UNL     1       1.870   8.404  19.079  0.00  0.00    +0.000 A 
ATOM      5  N   UNL     1       1.420   9.410  18.365  0.00  0.00    +0.000 NA
ATOM      6  C   UNL     1       0.545  10.170  19.133  0.00  0.00    +0.000 A 
ATOM      7  C   UNL     1      -0.215  11.275  18.694  0.00  0.00    +0.000 A 
ATOM      8  C   UNL     1      -1.074  11.930  19.587  0.00  0.00    +0.000 A 
ATOM      9  C   UNL     1      -1.168  11.516  20.911  0.00  0.00    +0.000 A 
ATOM     10  C   UNL     1      -0.417  10.434  21.375  0.00  0.00    +0.000 A 
ATOM     11  C   UNL     1       0.421   9.769  20.465  0.00  0.00    +0.000 A 
ATOM     12  S   UNL     1       1.417   8.400  20.723  0.00  0.00    +0.000 S 
ATOM     13  H   UNL     1       3.046   7.605  17.619  0.00  0.00    +0.000 HD
ENDROOT
BRANCH   1  19
ATOM     14  C   UNL     1       7.088   4.678  17.093  0.00  0.00    +0.000 C 
ATOM     15  N   UNL     1       5.678   4.712  17.404  0.00  0.00    +0.000 N 
ATOM     16  C   UNL     1       4.742   3.820  16.986  0.00  0.00    +0.000 A 
ATOM     17  C   UNL     1       3.557   4.226  17.546  0.00  0.00    +0.000 A 
ATOM     18 CL   UNL     1       2.052   3.472  17.349  0.00  0.00    +0.000 Cl
ATOM     19  C   UNL     1       3.871   5.391  18.300  0.00  0.00    +0.000 A 
ATOM     20  N   UNL     1       5.185   5.696  18.185  0.00  0.00    +0.000 NA
ENDBRANCH   1  19
TORSDOF 1
ENDMDL
MODEL 8
REMARK VINA RESULT:      -6.4      2.770      7.522
REMARK  Name = 
REMARK  2 active torsions:
REMARK  status: ('A' for Active; 'I' for Inactive)
REMARK    1  A    between atoms: C_1  and  N_2
REMARK    2  A    between atoms: C_6  and  C_7
REMARK                            x       y       z     vdW  Elec       q    Type
REMARK                         _______ _______ _______ _____ _____    ______ ____
ROOT
ATOM      1  C   UNL     1       1.221   8.567  20.349  0.00  0.00    +0.000 C 
ATOM      2  O   UNL     1       1.356   7.677  21.182  0.00  0.00    +0.000 OA
ATOM      3  N   UNL     1       1.782   8.591  19.089  0.00  0.00    +0.000 N 
ATOM      4  C   UNL     1       2.577   7.614  18.547  0.00  0.00    +0.000 A 
ATOM      5  N   UNL     1       3.334   7.824  17.495  0.00  0.00    +0.000 NA
ATOM      6  C   UNL     1       4.081   6.684  17.224  0.00  0.00    +0.000 A 
ATOM      7  C   UNL     1       5.078   6.547  16.235  0.00  0.00    +0.000 A 
ATOM      8  C   UNL     1       5.762   5.332  16.096  0.00  0.00    +0.000 A 
ATOM      9  C   UNL     1       5.453   4.248  16.911  0.00  0.00    +0.000 A 
ATOM     10  C   UNL     1       4.462   4.352  17.889  0.00  0.00    +0.000 A 
ATOM     11  C   UNL     1       3.800   5.582  18.036  0.00  0.00    +0.000 A 
ATOM     12  S   UNL     1       2.587   6.024  19.162  0.00  0.00    +0.000 S 
ATOM     13  H   UNL     1       1.716   9.461  18.572  0.00  0.00    +0.000 HD
ENDROOT
BRANCH   1  19
ATOM     14  C   UNL     1      -1.208  12.700  19.606  0.00  0.00    +0.000 C 
ATOM     15  N   UNL     1      -0.628  11.596  20.336  0.00  0.00    +0.000 N 
ATOM     16  C   UNL     1      -0.740  11.368  21.671  0.00  0.00    +0.000 A 
ATOM     17  C   UNL     1      -0.062  10.200  21.912  0.00  0.00    +0.000 A 
ATOM     18 CL   UNL     1       0.122   9.449  23.421  0.00  0.00    +0.000 Cl
ATOM     19  C   UNL     1       0.437   9.780  20.648  0.00  0.00    +0.000 A 
ATOM     20  N   UNL     1       0.100  10.667  19.683  0.00  0.00    +0.000 NA
ENDBRANCH   1  19
TORSDOF 1
ENDMDL
MODEL 9
REMARK VINA RESULT:      -6.4      2.768      7.262
REMARK  Name = 
REMARK  2 active torsions:
REMARK  status: ('A' for Active; 'I' for Inactive)
REMARK    1  A    between atoms: C_1  and  N_2
REMARK    2  A    between atoms: C_6  and  C_7
REMARK                            x       y       z     vdW  Elec       q    Type
REMARK                         _______ _______ _______ _____ _____    ______ ____
ROOT
ATOM      1  C   UNL     1       1.357   8.988  19.464  0.00  0.00    +0.000 C 
ATOM      2  O   UNL     1       1.457   9.129  18.251  0.00  0.00    +0.000 OA
ATOM      3  N   UNL     1       1.723   7.869  20.185  0.00  0.00    +0.000 N 
ATOM      4  C   UNL     1       2.274   6.727  19.665  0.00  0.00    +0.000 A 
ATOM      5  N   UNL     1       2.303   5.594  20.328  0.00  0.00    +0.000 NA
ATOM      6  C   UNL     1       2.848   4.599  19.524  0.00  0.00    +0.000 A 
ATOM      7  C   UNL     1       2.960   3.229  19.842  0.00  0.00    +0.000 A 
ATOM      8  C   UNL     1       3.517   2.339  18.913  0.00  0.00    +0.000 A 
ATOM      9  C   UNL     1       3.983   2.798  17.686  0.00  0.00    +0.000 A 
ATOM     10  C   UNL     1       3.896   4.151  17.351  0.00  0.00    +0.000 A 
ATOM     11  C   UNL     1       3.313   5.028  18.279  0.00  0.00    +0.000 A 
ATOM     12  S   UNL     1       3.031   6.712  18.137  0.00  0.00    +0.000 S 
ATOM     13  H   UNL     1       1.435   7.833  21.157  0.00  0.00    +0.000 HD
ENDROOT
BRANCH   1  19
ATOM     14  C   UNL     1      -1.192  11.040  23.045  0.00  0.00    +0.000 C 
ATOM     15  N   UNL     1      -0.351  10.956  21.874  0.00  0.00    +0.000 N 
ATOM     16  C   UNL     1       0.218  12.001  21.217  0.00  0.00    +0.000 A 
ATOM     17  C   UNL     1       0.950  11.449  20.196  0.00  0.00    +0.000 A 
ATOM     18 CL   UNL     1       1.866  12.304  19.053  0.00  0.00    +0.000 Cl
ATOM     19  C   UNL     1       0.767  10.043  20.310  0.00  0.00    +0.000 A 
ATOM     20  N   UNL     1      -0.062   9.751  21.340  0.00  0.00    +0.000 NA
ENDBRANCH   1  19
TORSDOF 1
ENDMDL
