MODEL 1
REMARK VINA RESULT:      -8.8      0.000      0.000
REMARK  Name = 
REMARK  7 active torsions:
REMARK  status: ('A' for Active; 'I' for Inactive)
REMARK    1  A    between atoms: N_7  and  C_8
REMARK    2  A    between atoms: C_11  and  N_12
REMARK    3  A    between atoms: C_18  and  O_19
REMARK    4  A    between atoms: O_19  and  C_20
REMARK    5  A    between atoms: C_20  and  C_21
REMARK    6  A    between atoms: N_23  and  C_24
REMARK    7  A    between atoms: C_24  and  C_25
REMARK                            x       y       z     vdW  Elec       q    Type
REMARK                         _______ _______ _______ _____ _____    ______ ____
ROOT
ATOM      1  N   UNL     1       2.953   7.194  20.028  0.00  0.00    +0.000 N 
ATOM      2  C   UNL     1       3.017   5.837  19.714  0.00  0.00    +0.000 A 
ATOM      3  N   UNL     1       1.882   5.152  19.632  0.00  0.00    +0.000 NA
ATOM      4  C   UNL     1       2.033   3.873  19.354  0.00  0.00    +0.000 A 
ATOM      5 CL   UNL     1       0.611   2.930  19.373  0.00  0.00    +0.000 Cl
ATOM      6  N   UNL     1       3.153   3.234  19.081  0.00  0.00    +0.000 NA
ATOM      7  C   UNL     1       4.216   4.016  19.171  0.00  0.00    +0.000 A 
ATOM      8  N   UNL     1       4.217   5.295  19.540  0.00  0.00    +0.000 NA
ATOM      9  H   UNL     1       3.684   7.463  20.669  0.00  0.00    +0.000 HD
ENDROOT
BRANCH   1  13
ATOM     10  C   UNL     1      -0.249   9.943  19.531  0.00  0.00    +0.000 A 
ATOM     11  C   UNL     1       0.645   9.662  18.489  0.00  0.00    +0.000 A 
ATOM     12  C   UNL     1       1.692   8.741  18.648  0.00  0.00    +0.000 A 
ATOM     13  C   UNL     1       1.874   8.071  19.855  0.00  0.00    +0.000 A 
ATOM     14  C   UNL     1       0.962   8.327  20.885  0.00  0.00    +0.000 A 
ATOM     15  C   UNL     1      -0.076   9.249  20.731  0.00  0.00    +0.000 A 
BRANCH  10  22
ATOM     16  O   UNL     1      -0.514  12.361  21.075  0.00  0.00    +0.000 OA
ATOM     17  C   UNL     1      -1.392  12.006  20.289  0.00  0.00    +0.000 C 
ATOM     18  C   UNL     1      -2.677  12.843  20.186  0.00  0.00    +0.000 C 
ATOM     19  O   UNL     1      -3.790  12.284  19.515  0.00  0.00    +0.000 OA
ATOM     20  C   UNL     1      -3.368  11.765  18.260  0.00  0.00    +0.000 C 
ATOM     21  C   UNL     1      -2.402  10.609  18.490  0.00  0.00    +0.000 C 
ATOM     22  N   UNL     1      -1.284  10.938  19.391  0.00  0.00    +0.000 N 
ENDBRANCH  10  22
ENDBRANCH   1  13
BRANCH   7  23
ATOM     23  O   UNL     1       5.460   3.490  18.893  0.00  0.00    +0.000 OA
BRANCH  23  24
ATOM     24  C   UNL     1       6.394   4.494  18.471  0.00  0.00    +0.000 C 
BRANCH  24  25
ATOM     25  C   UNL     1       6.515   4.527  16.988  0.00  0.00    +0.000 A 
ATOM     26  C   UNL     1       5.555   4.391  16.010  0.00  0.00    +0.000 A 
ATOM     27  N   UNL     1       6.239   4.582  14.846  0.00  0.00    +0.000 N 
ATOM     28  N   UNL     1       7.548   4.798  15.081  0.00  0.00    +0.000 NA
ATOM     29  N   UNL     1       7.731   4.752  16.392  0.00  0.00    +0.000 NA
BRANCH  27  30
ATOM     30  C   UNL     1       5.696   4.732  13.508  0.00  0.00    +0.000 C 
BRANCH  30  31
ATOM     31  C   UNL     1       6.060   3.583  12.601  0.00  0.00    +0.000 A 
ATOM     32  C   UNL     1       5.073   2.691  12.153  0.00  0.00    +0.000 A 
ATOM     33  C   UNL     1       5.396   1.665  11.263  0.00  0.00    +0.000 A 
ATOM     34  C   UNL     1       6.705   1.518  10.810  0.00  0.00    +0.000 A 
ATOM     35  C   UNL     1       7.695   2.392  11.251  0.00  0.00    +0.000 A 
ATOM     36  C   UNL     1       7.375   3.421  12.139  0.00  0.00    +0.000 A 
ENDBRANCH  30  31
ENDBRANCH  27  30
ENDBRANCH  24  25
ENDBRANCH  23  24
ENDBRANCH   7  23
TORSDOF 7
ENDMDL
MODEL 2
REMARK VINA RESULT:      -8.7      1.097      1.515
REMARK  Name = 
REMARK  7 active torsions:
REMARK  status: ('A' for Active; 'I' for Inactive)
REMARK    1  A    between atoms: N_7  and  C_8
REMARK    2  A    between atoms: C_11  and  N_12
REMARK    3  A    between atoms: C_18  and  O_19
REMARK    4  A    between atoms: O_19  and  C_20
REMARK    5  A    between atoms: C_20  and  C_21
REMARK    6  A    between atoms: N_23  and  C_24
REMARK    7  A    between atoms: C_24  and  C_25
REMARK                            x       y       z     vdW  Elec       q    Type
REMARK                         _______ _______ _______ _____ _____    ______ ____
ROOT
ATOM      1  N   UNL     1       3.082   6.847  19.605  0.00  0.00    +0.000 N 
ATOM      2  C   UNL     1       2.977   5.566  19.065  0.00  0.00    +0.000 A 
ATOM      3  N   UNL     1       1.796   4.959  19.100  0.00  0.00    +0.000 NA
ATOM      4  C   UNL     1       1.790   3.745  18.590  0.00  0.00    +0.000 A 
ATOM      5 CL   UNL     1       0.326   2.879  18.738  0.00  0.00    +0.000 Cl
ATOM      6  N   UNL     1       2.783   3.113  17.997  0.00  0.00    +0.000 NA
ATOM      7  C   UNL     1       3.903   3.817  18.000  0.00  0.00    +0.000 A 
ATOM      8  N   UNL     1       4.075   5.009  18.567  0.00  0.00    +0.000 NA
ATOM      9  H   UNL     1       3.941   6.965  20.122  0.00  0.00    +0.000 HD
ENDROOT
BRANCH   1  13
ATOM     10  C   UNL     1       0.073   9.782  20.226  0.00  0.00    +0.000 A 
ATOM     11  C   UNL     1       0.792   9.713  19.026  0.00  0.00    +0.000 A 
ATOM     12  C   UNL     1       1.774   8.733  18.814  0.00  0.00    +0.000 A 
ATOM     13  C   UNL     1       2.063   7.790  19.797  0.00  0.00    +0.000 A 
ATOM     14  C   UNL     1       1.323   7.839  20.983  0.00  0.00    +0.000 A 
ATOM     15  C   UNL     1       0.350   8.819  21.200  0.00  0.00    +0.000 A 
BRANCH  10  22
ATOM     16  O   UNL     1      -2.056  10.594  18.462  0.00  0.00    +0.000 OA
ATOM     17  C   UNL     1      -1.794  11.230  19.483  0.00  0.00    +0.000 C 
ATOM     18  C   UNL     1      -2.584  12.516  19.776  0.00  0.00    +0.000 C 
ATOM     19  O   UNL     1      -2.094  13.391  20.774  0.00  0.00    +0.000 OA
ATOM     20  C   UNL     1      -1.798  12.646  21.948  0.00  0.00    +0.000 C 
ATOM     21  C   UNL     1      -0.661  11.673  21.657  0.00  0.00    +0.000 C 
ATOM     22  N   UNL     1      -0.888  10.829  20.471  0.00  0.00    +0.000 N 
ENDBRANCH  10  22
ENDBRANCH   1  13
BRANCH   7  23
ATOM     23  O   UNL     1       5.026   3.292  17.397  0.00  0.00    +0.000 OA
BRANCH  23  24
ATOM     24  C   UNL     1       6.178   4.131  17.566  0.00  0.00    +0.000 C 
BRANCH  24  25
ATOM     25  C   UNL     1       6.719   4.573  16.252  0.00  0.00    +0.000 A 
ATOM     26  C   UNL     1       6.647   3.981  15.011  0.00  0.00    +0.000 A 
ATOM     27  N   UNL     1       7.255   4.876  14.182  0.00  0.00    +0.000 N 
ATOM     28  N   UNL     1       7.701   5.947  14.865  0.00  0.00    +0.000 NA
ATOM     29  N   UNL     1       7.391   5.765  16.140  0.00  0.00    +0.000 NA
BRANCH  27  30
ATOM     30  C   UNL     1       7.304   4.855  12.730  0.00  0.00    +0.000 C 
BRANCH  30  31
ATOM     31  C   UNL     1       6.682   3.612  12.146  0.00  0.00    +0.000 A 
ATOM     32  C   UNL     1       5.288   3.508  12.018  0.00  0.00    +0.000 A 
ATOM     33  C   UNL     1       4.713   2.386  11.418  0.00  0.00    +0.000 A 
ATOM     34  C   UNL     1       5.521   1.357  10.940  0.00  0.00    +0.000 A 
ATOM     35  C   UNL     1       6.905   1.444  11.066  0.00  0.00    +0.000 A 
ATOM     36  C   UNL     1       7.483   2.566  11.661  0.00  0.00    +0.000 A 
ENDBRANCH  30  31
ENDBRANCH  27  30
ENDBRANCH  24  25
ENDBRANCH  23  24
ENDBRANCH   7  23
TORSDOF 7
ENDMDL
MODEL 3
REMARK VINA RESULT:      -8.5      0.856      1.256
REMARK  Name = 
REMARK  7 active torsions:
REMARK  status: ('A' for Active; 'I' for Inactive)
REMARK    1  A    between atoms: N_7  and  C_8
REMARK    2  A    between atoms: C_11  and  N_12
REMARK    3  A    between atoms: C_18  and  O_19
REMARK    4  A    between atoms: O_19  and  C_20
REMARK    5  A    between atoms: C_20  and  C_21
REMARK    6  A    between atoms: N_23  and  C_24
REMARK    7  A    between atoms: C_24  and  C_25
REMARK                            x       y       z     vdW  Elec       q    Type
REMARK                         _______ _______ _______ _____ _____    ______ ____
ROOT
ATOM      1  N   UNL     1       3.105   7.249  19.009  0.00  0.00    +0.000 N 
ATOM      2  C   UNL     1       2.994   5.891  18.715  0.00  0.00    +0.000 A 
ATOM      3  N   UNL     1       1.823   5.294  18.910  0.00  0.00    +0.000 NA
ATOM      4  C   UNL     1       1.811   4.008  18.629  0.00  0.00    +0.000 A 
ATOM      5 CL   UNL     1       0.367   3.175  18.995  0.00  0.00    +0.000 Cl
ATOM      6  N   UNL     1       2.787   3.285  18.117  0.00  0.00    +0.000 NA
ATOM      7  C   UNL     1       3.897   3.983  17.943  0.00  0.00    +0.000 A 
ATOM      8  N   UNL     1       4.077   5.259  18.278  0.00  0.00    +0.000 NA
ATOM      9  H   UNL     1       3.983   7.463  19.458  0.00  0.00    +0.000 HD
ENDROOT
BRANCH   1  13
ATOM     10  C   UNL     1      -0.072  10.065  19.184  0.00  0.00    +0.000 A 
ATOM     11  C   UNL     1       0.328   9.341  20.314  0.00  0.00    +0.000 A 
ATOM     12  C   UNL     1       1.389   8.423  20.261  0.00  0.00    +0.000 A 
ATOM     13  C   UNL     1       2.083   8.206  19.073  0.00  0.00    +0.000 A 
ATOM     14  C   UNL     1       1.704   8.953  17.952  0.00  0.00    +0.000 A 
ATOM     15  C   UNL     1       0.643   9.861  18.002  0.00  0.00    +0.000 A 
BRANCH  10  22
ATOM     16  O   UNL     1      -0.498  12.208  21.063  0.00  0.00    +0.000 OA
ATOM     17  C   UNL     1      -1.373  11.875  20.265  0.00  0.00    +0.000 C 
ATOM     18  C   UNL     1      -2.737  12.582  20.325  0.00  0.00    +0.000 C 
ATOM     19  O   UNL     1      -3.821  12.009  19.619  0.00  0.00    +0.000 OA
ATOM     20  C   UNL     1      -3.411  11.714  18.290  0.00  0.00    +0.000 C 
ATOM     21  C   UNL     1      -2.326  10.643  18.321  0.00  0.00    +0.000 C 
ATOM     22  N   UNL     1      -1.204  10.958  19.222  0.00  0.00    +0.000 N 
ENDBRANCH  10  22
ENDBRANCH   1  13
BRANCH   7  23
ATOM     23  O   UNL     1       4.999   3.363  17.396  0.00  0.00    +0.000 OA
BRANCH  23  24
ATOM     24  C   UNL     1       6.199   4.133  17.568  0.00  0.00    +0.000 C 
BRANCH  24  25
ATOM     25  C   UNL     1       6.751   4.570  16.257  0.00  0.00    +0.000 A 
ATOM     26  C   UNL     1       6.726   3.951  15.026  0.00  0.00    +0.000 A 
ATOM     27  N   UNL     1       7.319   4.851  14.192  0.00  0.00    +0.000 N 
ATOM     28  N   UNL     1       7.711   5.952  14.862  0.00  0.00    +0.000 NA
ATOM     29  N   UNL     1       7.380   5.783  16.134  0.00  0.00    +0.000 NA
BRANCH  27  30
ATOM     30  C   UNL     1       7.399   4.804  12.743  0.00  0.00    +0.000 C 
BRANCH  30  31
ATOM     31  C   UNL     1       6.681   3.613  12.159  0.00  0.00    +0.000 A 
ATOM     32  C   UNL     1       5.282   3.613  12.044  0.00  0.00    +0.000 A 
ATOM     33  C   UNL     1       4.620   2.540  11.446  0.00  0.00    +0.000 A 
ATOM     34  C   UNL     1       5.344   1.456  10.956  0.00  0.00    +0.000 A 
ATOM     35  C   UNL     1       6.732   1.439  11.069  0.00  0.00    +0.000 A 
ATOM     36  C   UNL     1       7.398   2.513  11.664  0.00  0.00    +0.000 A 
ENDBRANCH  30  31
ENDBRANCH  27  30
ENDBRANCH  24  25
ENDBRANCH  23  24
ENDBRANCH   7  23
TORSDOF 7
ENDMDL
MODEL 4
REMARK VINA RESULT:      -8.5      4.047     12.390
REMARK  Name = 
REMARK  7 active torsions:
REMARK  status: ('A' for Active; 'I' for Inactive)
REMARK    1  A    between atoms: N_7  and  C_8
REMARK    2  A    between atoms: C_11  and  N_12
REMARK    3  A    between atoms: C_18  and  O_19
REMARK    4  A    between atoms: O_19  and  C_20
REMARK    5  A    between atoms: C_20  and  C_21
REMARK    6  A    between atoms: N_23  and  C_24
REMARK    7  A    between atoms: C_24  and  C_25
REMARK                            x       y       z     vdW  Elec       q    Type
REMARK                         _______ _______ _______ _____ _____    ______ ____
ROOT
ATOM      1  N   UNL     1       1.081   9.816  20.570  0.00  0.00    +0.000 N 
ATOM      2  C   UNL     1      -0.047  10.549  20.205  0.00  0.00    +0.000 A 
ATOM      3  N   UNL     1      -0.665  10.238  19.071  0.00  0.00    +0.000 NA
ATOM      4  C   UNL     1      -1.707  10.993  18.791  0.00  0.00    +0.000 A 
ATOM      5 CL   UNL     1      -2.447  10.715  17.278  0.00  0.00    +0.000 Cl
ATOM      6  N   UNL     1      -2.233  11.949  19.530  0.00  0.00    +0.000 NA
ATOM      7  C   UNL     1      -1.552  12.160  20.644  0.00  0.00    +0.000 A 
ATOM      8  N   UNL     1      -0.428  11.541  21.002  0.00  0.00    +0.000 NA
ATOM      9  H   UNL     1       1.802  10.408  20.956  0.00  0.00    +0.000 HD
ENDROOT
BRANCH   1  13
ATOM     10  C   UNL     1       2.264   5.903  19.410  0.00  0.00    +0.000 A 
ATOM     11  C   UNL     1       1.617   6.142  20.629  0.00  0.00    +0.000 A 
ATOM     12  C   UNL     1       1.210   7.432  21.005  0.00  0.00    +0.000 A 
ATOM     13  C   UNL     1       1.438   8.522  20.168  0.00  0.00    +0.000 A 
ATOM     14  C   UNL     1       2.055   8.279  18.936  0.00  0.00    +0.000 A 
ATOM     15  C   UNL     1       2.468   6.997  18.564  0.00  0.00    +0.000 A 
BRANCH  10  22
ATOM     16  O   UNL     1       4.995   4.992  19.514  0.00  0.00    +0.000 OA
ATOM     17  C   UNL     1       4.110   4.300  19.012  0.00  0.00    +0.000 C 
ATOM     18  C   UNL     1       4.493   2.955  18.374  0.00  0.00    +0.000 C 
ATOM     19  O   UNL     1       3.543   2.309  17.549  0.00  0.00    +0.000 OA
ATOM     20  C   UNL     1       2.292   2.263  18.223  0.00  0.00    +0.000 C 
ATOM     21  C   UNL     1       1.770   3.681  18.420  0.00  0.00    +0.000 C 
ATOM     22  N   UNL     1       2.741   4.590  19.053  0.00  0.00    +0.000 N 
ENDBRANCH  10  22
ENDBRANCH   1  13
BRANCH   7  23
ATOM     23  O   UNL     1      -1.995  13.119  21.529  0.00  0.00    +0.000 OA
BRANCH  23  24
ATOM     24  C   UNL     1      -2.374  12.558  22.795  0.00  0.00    +0.000 C 
BRANCH  24  25
ATOM     25  C   UNL     1      -3.853  12.546  22.957  0.00  0.00    +0.000 A 
ATOM     26  C   UNL     1      -4.853  12.869  22.066  0.00  0.00    +0.000 A 
ATOM     27  N   UNL     1      -6.002  12.597  22.746  0.00  0.00    +0.000 N 
ATOM     28  N   UNL     1      -5.739  12.158  23.992  0.00  0.00    +0.000 NA
ATOM     29  N   UNL     1      -4.422  12.137  24.137  0.00  0.00    +0.000 NA
BRANCH  27  30
ATOM     30  C   UNL     1      -7.359  12.578  22.230  0.00  0.00    +0.000 C 
BRANCH  30  31
ATOM     31  C   UNL     1      -7.419  12.819  20.742  0.00  0.00    +0.000 A 
ATOM     32  C   UNL     1      -7.220  11.760  19.842  0.00  0.00    +0.000 A 
ATOM     33  C   UNL     1      -7.338  11.967  18.467  0.00  0.00    +0.000 A 
ATOM     34  C   UNL     1      -7.655  13.231  17.974  0.00  0.00    +0.000 A 
ATOM     35  C   UNL     1      -7.850  14.291  18.855  0.00  0.00    +0.000 A 
ATOM     36  C   UNL     1      -7.736  14.087  20.231  0.00  0.00    +0.000 A 
ENDBRANCH  30  31
ENDBRANCH  27  30
ENDBRANCH  24  25
ENDBRANCH  23  24
ENDBRANCH   7  23
TORSDOF 7
ENDMDL
MODEL 5
REMARK VINA RESULT:      -8.4      0.727      1.095
REMARK  Name = 
REMARK  7 active torsions:
REMARK  status: ('A' for Active; 'I' for Inactive)
REMARK    1  A    between atoms: N_7  and  C_8
REMARK    2  A    between atoms: C_11  and  N_12
REMARK    3  A    between atoms: C_18  and  O_19
REMARK    4  A    between atoms: O_19  and  C_20
REMARK    5  A    between atoms: C_20  and  C_21
REMARK    6  A    between atoms: N_23  and  C_24
REMARK    7  A    between atoms: C_24  and  C_25
REMARK                            x       y       z     vdW  Elec       q    Type
REMARK                         _______ _______ _______ _____ _____    ______ ____
ROOT
ATOM      1  N   UNL     1       2.997   7.252  20.048  0.00  0.00    +0.000 N 
ATOM      2  C   UNL     1       3.149   5.975  19.509  0.00  0.00    +0.000 A 
ATOM      3  N   UNL     1       2.068   5.341  19.070  0.00  0.00    +0.000 NA
ATOM      4  C   UNL     1       2.296   4.132  18.598  0.00  0.00    +0.000 A 
ATOM      5 CL   UNL     1       0.917   3.232  18.149  0.00  0.00    +0.000 Cl
ATOM      6  N   UNL     1       3.459   3.531  18.449  0.00  0.00    +0.000 NA
ATOM      7  C   UNL     1       4.467   4.260  18.899  0.00  0.00    +0.000 A 
ATOM      8  N   UNL     1       4.369   5.449  19.489  0.00  0.00    +0.000 NA
ATOM      9  H   UNL     1       3.576   7.383  20.864  0.00  0.00    +0.000 HD
ENDROOT
BRANCH   1  13
ATOM     10  C   UNL     1      -0.213   9.942  19.334  0.00  0.00    +0.000 A 
ATOM     11  C   UNL     1      -0.014   9.356  20.591  0.00  0.00    +0.000 A 
ATOM     12  C   UNL     1       1.057   8.480  20.831  0.00  0.00    +0.000 A 
ATOM     13  C   UNL     1       1.963   8.168  19.820  0.00  0.00    +0.000 A 
ATOM     14  C   UNL     1       1.782   8.779  18.575  0.00  0.00    +0.000 A 
ATOM     15  C   UNL     1       0.712   9.645  18.331  0.00  0.00    +0.000 A 
BRANCH  10  22
ATOM     16  O   UNL     1      -0.893  12.377  20.717  0.00  0.00    +0.000 OA
ATOM     17  C   UNL     1      -1.658  11.875  19.894  0.00  0.00    +0.000 C 
ATOM     18  C   UNL     1      -3.026  12.535  19.656  0.00  0.00    +0.000 C 
ATOM     19  O   UNL     1      -4.007  11.806  18.942  0.00  0.00    +0.000 OA
ATOM     20  C   UNL     1      -3.430  11.287  17.751  0.00  0.00    +0.000 C 
ATOM     21  C   UNL     1      -2.347  10.276  18.112  0.00  0.00    +0.000 C 
ATOM     22  N   UNL     1      -1.350  10.788  19.068  0.00  0.00    +0.000 N 
ENDBRANCH  10  22
ENDBRANCH   1  13
BRANCH   7  23
ATOM     23  O   UNL     1       5.750   3.768  18.791  0.00  0.00    +0.000 OA
BRANCH  23  24
ATOM     24  C   UNL     1       6.636   4.693  18.144  0.00  0.00    +0.000 C 
BRANCH  24  25
ATOM     25  C   UNL     1       6.269   4.880  16.715  0.00  0.00    +0.000 A 
ATOM     26  C   UNL     1       5.835   3.969  15.777  0.00  0.00    +0.000 A 
ATOM     27  N   UNL     1       5.585   4.725  14.671  0.00  0.00    +0.000 N 
ATOM     28  N   UNL     1       5.869   6.023  14.895  0.00  0.00    +0.000 NA
ATOM     29  N   UNL     1       6.303   6.127  16.143  0.00  0.00    +0.000 NA
BRANCH  27  30
ATOM     30  C   UNL     1       4.934   4.315  13.440  0.00  0.00    +0.000 C 
BRANCH  30  31
ATOM     31  C   UNL     1       5.817   3.450  12.576  0.00  0.00    +0.000 A 
ATOM     32  C   UNL     1       5.281   2.346  11.894  0.00  0.00    +0.000 A 
ATOM     33  C   UNL     1       6.082   1.582  11.043  0.00  0.00    +0.000 A 
ATOM     34  C   UNL     1       7.424   1.910  10.863  0.00  0.00    +0.000 A 
ATOM     35  C   UNL     1       7.969   2.999  11.537  0.00  0.00    +0.000 A 
ATOM     36  C   UNL     1       7.171   3.767  12.386  0.00  0.00    +0.000 A 
ENDBRANCH  30  31
ENDBRANCH  27  30
ENDBRANCH  24  25
ENDBRANCH  23  24
ENDBRANCH   7  23
TORSDOF 7
ENDMDL
MODEL 6
REMARK VINA RESULT:      -8.4      0.926      1.730
REMARK  Name = 
REMARK  7 active torsions:
REMARK  status: ('A' for Active; 'I' for Inactive)
REMARK    1  A    between atoms: N_7  and  C_8
REMARK    2  A    between atoms: C_11  and  N_12
REMARK    3  A    between atoms: C_18  and  O_19
REMARK    4  A    between atoms: O_19  and  C_20
REMARK    5  A    between atoms: C_20  and  C_21
REMARK    6  A    between atoms: N_23  and  C_24
REMARK    7  A    between atoms: C_24  and  C_25
REMARK                            x       y       z     vdW  Elec       q    Type
REMARK                         _______ _______ _______ _____ _____    ______ ____
ROOT
ATOM      1  N   UNL     1       3.094   7.114  19.414  0.00  0.00    +0.000 N 
ATOM      2  C   UNL     1       2.952   5.759  19.117  0.00  0.00    +0.000 A 
ATOM      3  N   UNL     1       1.803   5.163  19.413  0.00  0.00    +0.000 NA
ATOM      4  C   UNL     1       1.761   3.879  19.120  0.00  0.00    +0.000 A 
ATOM      5 CL   UNL     1       0.354   3.045  19.608  0.00  0.00    +0.000 Cl
ATOM      6  N   UNL     1       2.684   3.160  18.512  0.00  0.00    +0.000 NA
ATOM      7  C   UNL     1       3.775   3.858  18.245  0.00  0.00    +0.000 A 
ATOM      8  N   UNL     1       3.989   5.130  18.575  0.00  0.00    +0.000 NA
ATOM      9  H   UNL     1       4.010   7.320  19.783  0.00  0.00    +0.000 HD
ENDROOT
BRANCH   1  13
ATOM     10  C   UNL     1      -0.044   9.939  19.891  0.00  0.00    +0.000 A 
ATOM     11  C   UNL     1       0.310   9.055  20.919  0.00  0.00    +0.000 A 
ATOM     12  C   UNL     1       1.357   8.134  20.769  0.00  0.00    +0.000 A 
ATOM     13  C   UNL     1       2.085   8.071  19.582  0.00  0.00    +0.000 A 
ATOM     14  C   UNL     1       1.753   8.975  18.567  0.00  0.00    +0.000 A 
ATOM     15  C   UNL     1       0.705   9.887  18.713  0.00  0.00    +0.000 A 
BRANCH  10  22
ATOM     16  O   UNL     1      -2.350  10.057  18.167  0.00  0.00    +0.000 OA
ATOM     17  C   UNL     1      -2.164  10.900  19.044  0.00  0.00    +0.000 C 
ATOM     18  C   UNL     1      -3.154  12.070  19.168  0.00  0.00    +0.000 C 
ATOM     19  O   UNL     1      -2.786  13.179  19.966  0.00  0.00    +0.000 OA
ATOM     20  C   UNL     1      -2.319  12.715  21.226  0.00  0.00    +0.000 C 
ATOM     21  C   UNL     1      -1.041  11.908  21.027  0.00  0.00    +0.000 C 
ATOM     22  N   UNL     1      -1.163  10.839  20.021  0.00  0.00    +0.000 N 
ENDBRANCH  10  22
ENDBRANCH   1  13
BRANCH   7  23
ATOM     23  O   UNL     1       4.821   3.242  17.592  0.00  0.00    +0.000 OA
BRANCH  23  24
ATOM     24  C   UNL     1       6.044   3.987  17.698  0.00  0.00    +0.000 C 
BRANCH  24  25
ATOM     25  C   UNL     1       6.540   4.399  16.358  0.00  0.00    +0.000 A 
ATOM     26  C   UNL     1       6.126   4.028  15.098  0.00  0.00    +0.000 A 
ATOM     27  N   UNL     1       6.895   4.780  14.261  0.00  0.00    +0.000 N 
ATOM     28  N   UNL     1       7.753   5.554  14.953  0.00  0.00    +0.000 NA
ATOM     29  N   UNL     1       7.554   5.317  16.242  0.00  0.00    +0.000 NA
BRANCH  27  30
ATOM     30  C   UNL     1       6.760   4.933  12.823  0.00  0.00    +0.000 C 
BRANCH  30  31
ATOM     31  C   UNL     1       6.440   3.635  12.128  0.00  0.00    +0.000 A 
ATOM     32  C   UNL     1       7.469   2.766  11.734  0.00  0.00    +0.000 A 
ATOM     33  C   UNL     1       7.172   1.534  11.148  0.00  0.00    +0.000 A 
ATOM     34  C   UNL     1       5.847   1.156  10.948  0.00  0.00    +0.000 A 
ATOM     35  C   UNL     1       4.815   2.010  11.328  0.00  0.00    +0.000 A 
ATOM     36  C   UNL     1       5.109   3.241  11.918  0.00  0.00    +0.000 A 
ENDBRANCH  30  31
ENDBRANCH  27  30
ENDBRANCH  24  25
ENDBRANCH  23  24
ENDBRANCH   7  23
TORSDOF 7
ENDMDL
MODEL 7
REMARK VINA RESULT:      -8.3      1.298      1.880
REMARK  Name = 
REMARK  7 active torsions:
REMARK  status: ('A' for Active; 'I' for Inactive)
REMARK    1  A    between atoms: N_7  and  C_8
REMARK    2  A    between atoms: C_11  and  N_12
REMARK    3  A    between atoms: C_18  and  O_19
REMARK    4  A    between atoms: O_19  and  C_20
REMARK    5  A    between atoms: C_20  and  C_21
REMARK    6  A    between atoms: N_23  and  C_24
REMARK    7  A    between atoms: C_24  and  C_25
REMARK                            x       y       z     vdW  Elec       q    Type
REMARK                         _______ _______ _______ _____ _____    ______ ____
ROOT
ATOM      1  N   UNL     1       2.835   7.317  19.730  0.00  0.00    +0.000 N 
ATOM      2  C   UNL     1       2.771   5.936  19.550  0.00  0.00    +0.000 A 
ATOM      3  N   UNL     1       1.817   5.259  20.179  0.00  0.00    +0.000 NA
ATOM      4  C   UNL     1       1.842   3.958  19.972  0.00  0.00    +0.000 A 
ATOM      5 CL   UNL     1       0.718   3.037  20.867  0.00  0.00    +0.000 Cl
ATOM      6  N   UNL     1       2.642   3.284  19.172  0.00  0.00    +0.000 NA
ATOM      7  C   UNL     1       3.538   4.058  18.582  0.00  0.00    +0.000 A 
ATOM      8  N   UNL     1       3.689   5.366  18.777  0.00  0.00    +0.000 NA
ATOM      9  H   UNL     1       3.788   7.637  19.823  0.00  0.00    +0.000 HD
ENDROOT
BRANCH   1  13
ATOM     10  C   UNL     1      -0.200  10.035  20.934  0.00  0.00    +0.000 A 
ATOM     11  C   UNL     1       0.269   9.998  19.614  0.00  0.00    +0.000 A 
ATOM     12  C   UNL     1       1.260   9.088  19.212  0.00  0.00    +0.000 A 
ATOM     13  C   UNL     1       1.808   8.186  20.121  0.00  0.00    +0.000 A 
ATOM     14  C   UNL     1       1.317   8.202  21.431  0.00  0.00    +0.000 A 
ATOM     15  C   UNL     1       0.337   9.112  21.834  0.00  0.00    +0.000 A 
BRANCH  10  22
ATOM     16  O   UNL     1      -1.721  11.795  19.233  0.00  0.00    +0.000 OA
ATOM     17  C   UNL     1      -1.747  11.910  20.458  0.00  0.00    +0.000 C 
ATOM     18  C   UNL     1      -2.560  13.060  21.076  0.00  0.00    +0.000 C 
ATOM     19  O   UNL     1      -2.356  13.367  22.442  0.00  0.00    +0.000 OA
ATOM     20  C   UNL     1      -2.423  12.171  23.207  0.00  0.00    +0.000 C 
ATOM     21  C   UNL     1      -1.271  11.252  22.813  0.00  0.00    +0.000 C 
ATOM     22  N   UNL     1      -1.169  11.014  21.363  0.00  0.00    +0.000 N 
ENDBRANCH  10  22
ENDBRANCH   1  13
BRANCH   7  23
ATOM     23  O   UNL     1       4.433   3.494  17.698  0.00  0.00    +0.000 OA
BRANCH  23  24
ATOM     24  C   UNL     1       5.706   4.157  17.715  0.00  0.00    +0.000 C 
BRANCH  24  25
ATOM     25  C   UNL     1       6.056   4.682  16.368  0.00  0.00    +0.000 A 
ATOM     26  C   UNL     1       6.932   4.199  15.420  0.00  0.00    +0.000 A 
ATOM     27  N   UNL     1       6.780   5.049  14.366  0.00  0.00    +0.000 N 
ATOM     28  N   UNL     1       5.885   6.016  14.645  0.00  0.00    +0.000 NA
ATOM     29  N   UNL     1       5.445   5.809  15.878  0.00  0.00    +0.000 NA
BRANCH  27  30
ATOM     30  C   UNL     1       7.322   4.912  13.025  0.00  0.00    +0.000 C 
BRANCH  30  31
ATOM     31  C   UNL     1       6.746   3.732  12.283  0.00  0.00    +0.000 A 
ATOM     32  C   UNL     1       7.592   2.750  11.744  0.00  0.00    +0.000 A 
ATOM     33  C   UNL     1       7.059   1.625  11.112  0.00  0.00    +0.000 A 
ATOM     34  C   UNL     1       5.679   1.467  11.012  0.00  0.00    +0.000 A 
ATOM     35  C   UNL     1       4.828   2.436  11.537  0.00  0.00    +0.000 A 
ATOM     36  C   UNL     1       5.358   3.561  12.172  0.00  0.00    +0.000 A 
ENDBRANCH  30  31
ENDBRANCH  27  30
ENDBRANCH  24  25
ENDBRANCH  23  24
ENDBRANCH   7  23
TORSDOF 7
ENDMDL
MODEL 8
REMARK VINA RESULT:      -8.3      3.605      5.678
REMARK  Name = 
REMARK  7 active torsions:
REMARK  status: ('A' for Active; 'I' for Inactive)
REMARK    1  A    between atoms: N_7  and  C_8
REMARK    2  A    between atoms: C_11  and  N_12
REMARK    3  A    between atoms: C_18  and  O_19
REMARK    4  A    between atoms: O_19  and  C_20
REMARK    5  A    between atoms: C_20  and  C_21
REMARK    6  A    between atoms: N_23  and  C_24
REMARK    7  A    between atoms: C_24  and  C_25
REMARK                            x       y       z     vdW  Elec       q    Type
REMARK                         _______ _______ _______ _____ _____    ______ ____
ROOT
ATOM      1  N   UNL     1       0.913  11.501  18.572  0.00  0.00    +0.000 N 
ATOM      2  C   UNL     1       1.381  10.191  18.675  0.00  0.00    +0.000 A 
ATOM      3  N   UNL     1       1.060   9.487  19.755  0.00  0.00    +0.000 NA
ATOM      4  C   UNL     1       1.561   8.269  19.782  0.00  0.00    +0.000 A 
ATOM      5 CL   UNL     1       1.287   7.380  21.214  0.00  0.00    +0.000 Cl
ATOM      6  N   UNL     1       2.263   7.664  18.845  0.00  0.00    +0.000 NA
ATOM      7  C   UNL     1       2.504   8.449  17.809  0.00  0.00    +0.000 A 
ATOM      8  N   UNL     1       2.147   9.726  17.695  0.00  0.00    +0.000 NA
ATOM      9  H   UNL     1       1.616  12.119  18.195  0.00  0.00    +0.000 HD
ENDROOT
BRANCH   1  13
ATOM     10  C   UNL     1      -2.444  13.158  20.582  0.00  0.00    +0.000 A 
ATOM     11  C   UNL     1      -1.133  13.498  20.941  0.00  0.00    +0.000 A 
ATOM     12  C   UNL     1      -0.024  12.964  20.266  0.00  0.00    +0.000 A 
ATOM     13  C   UNL     1      -0.195  12.075  19.208  0.00  0.00    +0.000 A 
ATOM     14  C   UNL     1      -1.505  11.760  18.828  0.00  0.00    +0.000 A 
ATOM     15  C   UNL     1      -2.610  12.284  19.504  0.00  0.00    +0.000 A 
BRANCH  10  22
ATOM     16  O   UNL     1      -3.470  12.100  23.058  0.00  0.00    +0.000 OA
ATOM     17  C   UNL     1      -4.073  12.975  22.438  0.00  0.00    +0.000 C 
ATOM     18  C   UNL     1      -5.431  13.458  22.974  0.00  0.00    +0.000 C 
ATOM     19  O   UNL     1      -6.250  14.235  22.121  0.00  0.00    +0.000 OA
ATOM     20  C   UNL     1      -5.476  15.285  21.556  0.00  0.00    +0.000 C 
ATOM     21  C   UNL     1      -4.395  14.691  20.660  0.00  0.00    +0.000 C 
ATOM     22  N   UNL     1      -3.581  13.653  21.318  0.00  0.00    +0.000 N 
ENDBRANCH  10  22
ENDBRANCH   1  13
BRANCH   7  23
ATOM     23  O   UNL     1       3.213   7.945  16.739  0.00  0.00    +0.000 OA
BRANCH  23  24
ATOM     24  C   UNL     1       4.516   7.477  17.120  0.00  0.00    +0.000 C 
BRANCH  24  25
ATOM     25  C   UNL     1       4.571   5.990  17.132  0.00  0.00    +0.000 A 
ATOM     26  C   UNL     1       4.327   5.095  18.150  0.00  0.00    +0.000 A 
ATOM     27  N   UNL     1       4.460   3.875  17.556  0.00  0.00    +0.000 N 
ATOM     28  N   UNL     1       4.791   4.000  16.256  0.00  0.00    +0.000 NA
ATOM     29  N   UNL     1       4.876   5.295  15.988  0.00  0.00    +0.000 NA
BRANCH  27  30
ATOM     30  C   UNL     1       4.134   2.574  18.112  0.00  0.00    +0.000 C 
BRANCH  30  31
ATOM     31  C   UNL     1       3.070   2.646  19.177  0.00  0.00    +0.000 A 
ATOM     32  C   UNL     1       3.417   2.573  20.535  0.00  0.00    +0.000 A 
ATOM     33  C   UNL     1       2.441   2.704  21.525  0.00  0.00    +0.000 A 
ATOM     34  C   UNL     1       1.110   2.909  21.171  0.00  0.00    +0.000 A 
ATOM     35  C   UNL     1       0.750   2.977  19.827  0.00  0.00    +0.000 A 
ATOM     36  C   UNL     1       1.724   2.850  18.836  0.00  0.00    +0.000 A 
ENDBRANCH  30  31
ENDBRANCH  27  30
ENDBRANCH  24  25
ENDBRANCH  23  24
ENDBRANCH   7  23
TORSDOF 7
ENDMDL
MODEL 9
REMARK VINA RESULT:      -8.2      0.648      1.419
REMARK  Name = 
REMARK  7 active torsions:
REMARK  status: ('A' for Active; 'I' for Inactive)
REMARK    1  A    between atoms: N_7  and  C_8
REMARK    2  A    between atoms: C_11  and  N_12
REMARK    3  A    between atoms: C_18  and  O_19
REMARK    4  A    between atoms: O_19  and  C_20
REMARK    5  A    between atoms: C_20  and  C_21
REMARK    6  A    between atoms: N_23  and  C_24
REMARK    7  A    between atoms: C_24  and  C_25
REMARK                            x       y       z     vdW  Elec       q    Type
REMARK                         _______ _______ _______ _____ _____    ______ ____
ROOT
ATOM      1  N   UNL     1       3.030   7.214  19.996  0.00  0.00    +0.000 N 
ATOM      2  C   UNL     1       3.080   5.848  19.721  0.00  0.00    +0.000 A 
ATOM      3  N   UNL     1       1.958   5.143  19.816  0.00  0.00    +0.000 NA
ATOM      4  C   UNL     1       2.098   3.858  19.561  0.00  0.00    +0.000 A 
ATOM      5 CL   UNL     1       0.711   2.892  19.804  0.00  0.00    +0.000 Cl
ATOM      6  N   UNL     1       3.183   3.227  19.160  0.00  0.00    +0.000 NA
ATOM      7  C   UNL     1       4.232   4.029  19.079  0.00  0.00    +0.000 A 
ATOM      8  N   UNL     1       4.256   5.320  19.403  0.00  0.00    +0.000 NA
ATOM      9  H   UNL     1       3.836   7.517  20.523  0.00  0.00    +0.000 HD
ENDROOT
BRANCH   1  13
ATOM     10  C   UNL     1      -0.271   9.886  19.879  0.00  0.00    +0.000 A 
ATOM     11  C   UNL     1       0.662   9.828  18.836  0.00  0.00    +0.000 A 
ATOM     12  C   UNL     1       1.743   8.933  18.866  0.00  0.00    +0.000 A 
ATOM     13  C   UNL     1       1.920   8.067  19.942  0.00  0.00    +0.000 A 
ATOM     14  C   UNL     1       0.970   8.103  20.969  0.00  0.00    +0.000 A 
ATOM     15  C   UNL     1      -0.102   8.998  20.944  0.00  0.00    +0.000 A 
BRANCH  10  22
ATOM     16  O   UNL     1      -2.513   9.951  18.070  0.00  0.00    +0.000 OA
ATOM     17  C   UNL     1      -2.309  10.866  18.867  0.00  0.00    +0.000 C 
ATOM     18  C   UNL     1      -3.238  12.091  18.842  0.00  0.00    +0.000 C 
ATOM     19  O   UNL     1      -2.834  13.253  19.541  0.00  0.00    +0.000 OA
ATOM     20  C   UNL     1      -2.432  12.893  20.856  0.00  0.00    +0.000 C 
ATOM     21  C   UNL     1      -1.194  12.006  20.782  0.00  0.00    +0.000 C 
ATOM     22  N   UNL     1      -1.343  10.851  19.880  0.00  0.00    +0.000 N 
ENDBRANCH  10  22
ENDBRANCH   1  13
BRANCH   7  23
ATOM     23  O   UNL     1       5.437   3.513  18.653  0.00  0.00    +0.000 OA
BRANCH  23  24
ATOM     24  C   UNL     1       6.348   4.538  18.226  0.00  0.00    +0.000 C 
BRANCH  24  25
ATOM     25  C   UNL     1       6.419   4.611  16.742  0.00  0.00    +0.000 A 
ATOM     26  C   UNL     1       5.481   4.290  15.786  0.00  0.00    +0.000 A 
ATOM     27  N   UNL     1       6.078   4.631  14.609  0.00  0.00    +0.000 N 
ATOM     28  N   UNL     1       7.320   5.112  14.815  0.00  0.00    +0.000 NA
ATOM     29  N   UNL     1       7.545   5.090  16.120  0.00  0.00    +0.000 NA
BRANCH  27  30
ATOM     30  C   UNL     1       5.479   4.679  13.287  0.00  0.00    +0.000 C 
BRANCH  30  31
ATOM     31  C   UNL     1       5.954   3.562  12.393  0.00  0.00    +0.000 A 
ATOM     32  C   UNL     1       7.310   3.456  12.046  0.00  0.00    +0.000 A 
ATOM     33  C   UNL     1       7.762   2.386  11.271  0.00  0.00    +0.000 A 
ATOM     34  C   UNL     1       6.868   1.412  10.834  0.00  0.00    +0.000 A 
ATOM     35  C   UNL     1       5.519   1.508  11.165  0.00  0.00    +0.000 A 
ATOM     36  C   UNL     1       5.064   2.574  11.942  0.00  0.00    +0.000 A 
ENDBRANCH  30  31
ENDBRANCH  27  30
ENDBRANCH  24  25
ENDBRANCH  23  24
ENDBRANCH   7  23
TORSDOF 7
ENDMDL
