MODEL 1
REMARK VINA RESULT:      -4.8      0.000      0.000
REMARK  Name = 
REMARK  0 active torsions:
REMARK  status: ('A' for Active; 'I' for Inactive)
REMARK                            x       y       z     vdW  Elec       q    Type
REMARK                         _______ _______ _______ _____ _____    ______ ____
ROOT
ATOM      1  N   UNL     1       8.259   5.382  20.326  0.00  0.00    +0.000 N 
ATOM      2  C   UNL     1       7.919   5.590  19.032  0.00  0.00    +0.000 A 
ATOM      3  N   UNL     1       7.580   4.629  18.242  0.00  0.00    +0.000 NA
ATOM      4  C   UNL     1       7.248   4.992  16.941  0.00  0.00    +0.000 A 
ATOM      5  O   UNL     1       6.923   4.109  16.155  0.00  0.00    +0.000 OA
ATOM      6  N   UNL     1       7.263   6.306  16.488  0.00  0.00    +0.000 NA
ATOM      7  C   UNL     1       7.604   7.187  17.362  0.00  0.00    +0.000 A 
ATOM      8  N   UNL     1       7.954   6.876  18.628  0.00  0.00    +0.000 N 
ATOM      9  H   UNL     1       8.325   4.385  20.522  0.00  0.00    +0.000 HD
ATOM     10  H   UNL     1       9.105   5.851  20.629  0.00  0.00    +0.000 HD
ATOM     11  H   UNL     1       8.031   7.602  19.325  0.00  0.00    +0.000 HD
ENDROOT
TORSDOF 0
ENDMDL
MODEL 2
REMARK VINA RESULT:      -4.7      2.083      2.696
REMARK  Name = 
REMARK  0 active torsions:
REMARK  status: ('A' for Active; 'I' for Inactive)
REMARK                            x       y       z     vdW  Elec       q    Type
REMARK                         _______ _______ _______ _____ _____    ______ ____
ROOT
ATOM      1  N   UNL     1       5.743   3.859  18.950  0.00  0.00    +0.000 N 
ATOM      2  C   UNL     1       6.293   4.597  17.955  0.00  0.00    +0.000 A 
ATOM      3  N   UNL     1       6.652   5.823  18.121  0.00  0.00    +0.000 NA
ATOM      4  C   UNL     1       7.209   6.454  17.014  0.00  0.00    +0.000 A 
ATOM      5  O   UNL     1       7.563   7.623  17.126  0.00  0.00    +0.000 OA
ATOM      6  N   UNL     1       7.390   5.826  15.787  0.00  0.00    +0.000 NA
ATOM      7  C   UNL     1       7.008   4.597  15.736  0.00  0.00    +0.000 A 
ATOM      8  N   UNL     1       6.443   3.954  16.780  0.00  0.00    +0.000 N 
ATOM      9  H   UNL     1       5.553   4.442  19.763  0.00  0.00    +0.000 HD
ATOM     10  H   UNL     1       4.911   3.341  18.692  0.00  0.00    +0.000 HD
ATOM     11  H   UNL     1       6.332   2.951  16.756  0.00  0.00    +0.000 HD
ENDROOT
TORSDOF 0
ENDMDL
MODEL 3
REMARK VINA RESULT:      -4.7      2.114      2.967
REMARK  Name = 
REMARK  0 active torsions:
REMARK  status: ('A' for Active; 'I' for Inactive)
REMARK                            x       y       z     vdW  Elec       q    Type
REMARK                         _______ _______ _______ _____ _____    ______ ____
ROOT
ATOM      1  N   UNL     1       7.792   4.381  18.224  0.00  0.00    +0.000 N 
ATOM      2  C   UNL     1       7.110   4.456  17.056  0.00  0.00    +0.000 A 
ATOM      3  N   UNL     1       7.650   4.877  15.965  0.00  0.00    +0.000 NA
ATOM      4  C   UNL     1       6.831   4.893  14.841  0.00  0.00    +0.000 A 
ATOM      5  O   UNL     1       7.303   5.290  13.781  0.00  0.00    +0.000 OA
ATOM      6  N   UNL     1       5.504   4.478  14.857  0.00  0.00    +0.000 NA
ATOM      7  C   UNL     1       5.070   4.064  15.996  0.00  0.00    +0.000 A 
ATOM      8  N   UNL     1       5.825   4.052  17.116  0.00  0.00    +0.000 N 
ATOM      9  H   UNL     1       8.711   4.810  18.129  0.00  0.00    +0.000 HD
ATOM     10  H   UNL     1       7.311   4.765  19.030  0.00  0.00    +0.000 HD
ATOM     11  H   UNL     1       5.509   3.551  17.933  0.00  0.00    +0.000 HD
ENDROOT
TORSDOF 0
ENDMDL
MODEL 4
REMARK VINA RESULT:      -4.7      1.795      2.812
REMARK  Name = 
REMARK  0 active torsions:
REMARK  status: ('A' for Active; 'I' for Inactive)
REMARK                            x       y       z     vdW  Elec       q    Type
REMARK                         _______ _______ _______ _____ _____    ______ ____
ROOT
ATOM      1  N   UNL     1       6.618   3.883  16.153  0.00  0.00    +0.000 N 
ATOM      2  C   UNL     1       7.026   4.820  17.042  0.00  0.00    +0.000 A 
ATOM      3  N   UNL     1       7.212   4.555  18.290  0.00  0.00    +0.000 NA
ATOM      4  C   UNL     1       7.639   5.613  19.085  0.00  0.00    +0.000 A 
ATOM      5  O   UNL     1       7.826   5.407  20.279  0.00  0.00    +0.000 OA
ATOM      6  N   UNL     1       7.867   6.894  18.593  0.00  0.00    +0.000 NA
ATOM      7  C   UNL     1       7.662   7.044  17.331  0.00  0.00    +0.000 A 
ATOM      8  N   UNL     1       7.228   6.049  16.528  0.00  0.00    +0.000 N 
ATOM      9  H   UNL     1       6.373   3.018  16.633  0.00  0.00    +0.000 HD
ATOM     10  H   UNL     1       5.859   4.168  15.544  0.00  0.00    +0.000 HD
ATOM     11  H   UNL     1       7.260   6.158  15.525  0.00  0.00    +0.000 HD
ENDROOT
TORSDOF 0
ENDMDL
MODEL 5
REMARK VINA RESULT:      -4.6      5.214      5.694
REMARK  Name = 
REMARK  0 active torsions:
REMARK  status: ('A' for Active; 'I' for Inactive)
REMARK                            x       y       z     vdW  Elec       q    Type
REMARK                         _______ _______ _______ _____ _____    ______ ____
ROOT
ATOM      1  N   UNL     1       4.907   1.970  19.949  0.00  0.00    +0.000 N 
ATOM      2  C   UNL     1       3.937   2.366  19.089  0.00  0.00    +0.000 A 
ATOM      3  N   UNL     1       2.693   2.086  19.273  0.00  0.00    +0.000 NA
ATOM      4  C   UNL     1       1.808   2.563  18.313  0.00  0.00    +0.000 A 
ATOM      5  O   UNL     1       0.614   2.317  18.446  0.00  0.00    +0.000 OA
ATOM      6  N   UNL     1       2.208   3.311  17.211  0.00  0.00    +0.000 NA
ATOM      7  C   UNL     1       3.472   3.544  17.132  0.00  0.00    +0.000 A 
ATOM      8  N   UNL     1       4.367   3.080  18.030  0.00  0.00    +0.000 N 
ATOM      9  H   UNL     1       4.525   1.341  20.652  0.00  0.00    +0.000 HD
ATOM     10  H   UNL     1       5.722   1.553  19.515  0.00  0.00    +0.000 HD
ATOM     11  H   UNL     1       5.311   3.439  18.035  0.00  0.00    +0.000 HD
ENDROOT
TORSDOF 0
ENDMDL
MODEL 6
REMARK VINA RESULT:      -4.5      4.841      5.447
REMARK  Name = 
REMARK  0 active torsions:
REMARK  status: ('A' for Active; 'I' for Inactive)
REMARK                            x       y       z     vdW  Elec       q    Type
REMARK                         _______ _______ _______ _____ _____    ______ ____
ROOT
ATOM      1  N   UNL     1       3.992   0.780  18.318  0.00  0.00    +0.000 N 
ATOM      2  C   UNL     1       3.625   2.066  18.105  0.00  0.00    +0.000 A 
ATOM      3  N   UNL     1       2.421   2.398  17.784  0.00  0.00    +0.000 NA
ATOM      4  C   UNL     1       2.186   3.756  17.603  0.00  0.00    +0.000 A 
ATOM      5  O   UNL     1       1.056   4.116  17.293  0.00  0.00    +0.000 OA
ATOM      6  N   UNL     1       3.168   4.728  17.758  0.00  0.00    +0.000 NA
ATOM      7  C   UNL     1       4.331   4.288  18.092  0.00  0.00    +0.000 A 
ATOM      8  N   UNL     1       4.607   2.976  18.257  0.00  0.00    +0.000 N 
ATOM      9  H   UNL     1       3.235   0.146  18.070  0.00  0.00    +0.000 HD
ATOM     10  H   UNL     1       4.849   0.494  17.857  0.00  0.00    +0.000 HD
ATOM     11  H   UNL     1       5.470   2.692  18.696  0.00  0.00    +0.000 HD
ENDROOT
TORSDOF 0
ENDMDL
MODEL 7
REMARK VINA RESULT:      -4.4      1.493      1.824
REMARK  Name = 
REMARK  0 active torsions:
REMARK  status: ('A' for Active; 'I' for Inactive)
REMARK                            x       y       z     vdW  Elec       q    Type
REMARK                         _______ _______ _______ _____ _____    ______ ____
ROOT
ATOM      1  N   UNL     1       5.723   3.729  18.854  0.00  0.00    +0.000 N 
ATOM      2  C   UNL     1       6.339   4.626  18.047  0.00  0.00    +0.000 A 
ATOM      3  N   UNL     1       6.520   4.415  16.789  0.00  0.00    +0.000 NA
ATOM      4  C   UNL     1       7.161   5.426  16.082  0.00  0.00    +0.000 A 
ATOM      5  O   UNL     1       7.356   5.266  14.882  0.00  0.00    +0.000 OA
ATOM      6  N   UNL     1       7.589   6.613  16.667  0.00  0.00    +0.000 NA
ATOM      7  C   UNL     1       7.347   6.725  17.927  0.00  0.00    +0.000 A 
ATOM      8  N   UNL     1       6.747   5.759  18.653  0.00  0.00    +0.000 N 
ATOM      9  H   UNL     1       5.553   2.858  18.355  0.00  0.00    +0.000 HD
ATOM     10  H   UNL     1       6.197   3.541  19.730  0.00  0.00    +0.000 HD
ATOM     11  H   UNL     1       6.411   5.960  19.584  0.00  0.00    +0.000 HD
ENDROOT
TORSDOF 0
ENDMDL
MODEL 8
REMARK VINA RESULT:      -4.4      6.365      7.076
REMARK  Name = 
REMARK  0 active torsions:
REMARK  status: ('A' for Active; 'I' for Inactive)
REMARK                            x       y       z     vdW  Elec       q    Type
REMARK                         _______ _______ _______ _____ _____    ______ ____
ROOT
ATOM      1  N   UNL     1       4.091   1.381  18.302  0.00  0.00    +0.000 N 
ATOM      2  C   UNL     1       3.087   1.928  19.029  0.00  0.00    +0.000 A 
ATOM      3  N   UNL     1       3.259   2.357  20.232  0.00  0.00    +0.000 NA
ATOM      4  C   UNL     1       2.142   2.901  20.855  0.00  0.00    +0.000 A 
ATOM      5  O   UNL     1       2.259   3.320  22.002  0.00  0.00    +0.000 OA
ATOM      6  N   UNL     1       0.897   2.999  20.242  0.00  0.00    +0.000 NA
ATOM      7  C   UNL     1       0.840   2.551  19.036  0.00  0.00    +0.000 A 
ATOM      8  N   UNL     1       1.896   1.996  18.403  0.00  0.00    +0.000 N 
ATOM      9  H   UNL     1       4.921   1.255  18.878  0.00  0.00    +0.000 HD
ATOM     10  H   UNL     1       3.859   0.512  17.833  0.00  0.00    +0.000 HD
ATOM     11  H   UNL     1       1.859   1.832  17.407  0.00  0.00    +0.000 HD
ENDROOT
TORSDOF 0
ENDMDL
MODEL 9
REMARK VINA RESULT:      -4.4      5.522      6.268
REMARK  Name = 
REMARK  0 active torsions:
REMARK  status: ('A' for Active; 'I' for Inactive)
REMARK                            x       y       z     vdW  Elec       q    Type
REMARK                         _______ _______ _______ _____ _____    ______ ____
ROOT
ATOM      1  N   UNL     1       4.040   0.759  18.388  0.00  0.00    +0.000 N 
ATOM      2  C   UNL     1       3.215   1.833  18.336  0.00  0.00    +0.000 A 
ATOM      3  N   UNL     1       3.617   2.996  17.954  0.00  0.00    +0.000 NA
ATOM      4  C   UNL     1       2.659   4.004  17.944  0.00  0.00    +0.000 A 
ATOM      5  O   UNL     1       2.999   5.128  17.590  0.00  0.00    +0.000 OA
ATOM      6  N   UNL     1       1.334   3.801  18.311  0.00  0.00    +0.000 NA
ATOM      7  C   UNL     1       1.037   2.599  18.664  0.00  0.00    +0.000 A 
ATOM      8  N   UNL     1       1.942   1.597  18.708  0.00  0.00    +0.000 N 
ATOM      9  H   UNL     1       5.002   1.039  18.209  0.00  0.00    +0.000 HD
ATOM     10  H   UNL     1       3.989   0.218  19.243  0.00  0.00    +0.000 HD
ATOM     11  H   UNL     1       1.633   0.640  18.807  0.00  0.00    +0.000 HD
ENDROOT
TORSDOF 0
ENDMDL
