MODEL 1
REMARK VINA RESULT:      -8.1      0.000      0.000
REMARK  Name = 
REMARK  7 active torsions:
REMARK  status: ('A' for Active; 'I' for Inactive)
REMARK    1  A    between atoms: C_1  and  C_2
REMARK    2  A    between atoms: C_3  and  C_4
REMARK    3  A    between atoms: N_6  and  S_7
REMARK    4  A    between atoms: S_7  and  C_10
REMARK    5  A    between atoms: C_23  and  S_24
REMARK    6  A    between atoms: S_24  and  N_27
REMARK    7  A    between atoms: N_27  and  C_28
REMARK                            x       y       z     vdW  Elec       q    Type
REMARK                         _______ _______ _______ _____ _____    ______ ____
ROOT
ATOM      1  C   UNL     1       2.323   6.043  19.839  0.00  0.00    +0.000 C 
ATOM      2  C   UNL     1       3.863   5.851  19.829  0.00  0.00    +0.000 C 
ATOM      3  N   UNL     1       4.501   5.763  18.466  0.00  0.00    +0.000 NA
ATOM      4  C   UNL     1       4.076   6.948  17.646  0.00  0.00    +0.000 C 
ATOM      5  C   UNL     1       2.544   7.119  17.588  0.00  0.00    +0.000 C 
ATOM      6  N   UNL     1       1.923   7.137  18.925  0.00  0.00    +0.000 N 
ATOM      7  C   UNL     1       1.464   8.326  19.471  0.00  0.00    +0.000 A 
ATOM      8  C   UNL     1       0.833   9.294  18.677  0.00  0.00    +0.000 A 
ATOM      9  C   UNL     1       0.352  10.480  19.235  0.00  0.00    +0.000 A 
ATOM     10  C   UNL     1       0.494  10.673  20.600  0.00  0.00    +0.000 A 
ATOM     11  C   UNL     1       1.115   9.691  21.338  0.00  0.00    +0.000 A 
ATOM     12  N   UNL     1       1.591   8.535  20.803  0.00  0.00    +0.000 NA
ENDROOT
BRANCH   1  15
ATOM     13  C   UNL     1       0.841   2.320  18.898  0.00  0.00    +0.000 C 
ATOM     14  C   UNL     1       1.177   3.722  19.164  0.00  0.00    +0.000 C 
ATOM     15  C   UNL     1       1.626   4.799  19.446  0.00  0.00    +0.000 C 
ENDBRANCH   1  15
BRANCH   3  16
ATOM     16  S   UNL     1       4.562   4.304  17.564  0.00  0.00    +0.000 S 
ATOM     17  O   UNL     1       5.103   3.262  18.387  0.00  0.00    +0.000 OA
ATOM     18  O   UNL     1       3.237   4.137  17.000  0.00  0.00    +0.000 OA
BRANCH  16  19
ATOM     19  C   UNL     1       5.638   4.599  16.199  0.00  0.00    +0.000 A 
ATOM     20  C   UNL     1       5.407   4.093  14.923  0.00  0.00    +0.000 A 
ATOM     21  C   UNL     1       6.317   4.390  13.905  0.00  0.00    +0.000 A 
ATOM     22  C   UNL     1       7.397   5.216  14.184  0.00  0.00    +0.000 A 
ATOM     23  N   UNL     1       8.385   5.442  13.231  0.00  0.00    +0.000 N 
ATOM     24  N   UNL     1       7.595   5.759  15.397  0.00  0.00    +0.000 NA
ATOM     25  C   UNL     1       6.709   5.453  16.378  0.00  0.00    +0.000 A 
ATOM     26  H   UNL     1       8.023   5.713  12.327  0.00  0.00    +0.000 HD
ATOM     27  H   UNL     1       9.030   6.128  13.616  0.00  0.00    +0.000 HD
ENDBRANCH  16  19
ENDBRANCH   3  16
BRANCH  10  28
ATOM     28  S   UNL     1      -0.036  12.147  21.391  0.00  0.00    +0.000 S 
ATOM     29  O   UNL     1       1.140  12.962  21.607  0.00  0.00    +0.000 OA
ATOM     30  O   UNL     1      -1.199  12.657  20.699  0.00  0.00    +0.000 OA
BRANCH  28  31
ATOM     31  N   UNL     1      -0.530  11.626  22.913  0.00  0.00    +0.000 NA
ATOM     32  C   UNL     1      -1.965  11.620  23.189  0.00  0.00    +0.000 C 
ATOM     33  H   UNL     1       0.076  12.003  23.642  0.00  0.00    +0.000 HD
ENDBRANCH  28  31
ENDBRANCH  10  28
TORSDOF 5
ENDMDL
MODEL 2
REMARK VINA RESULT:      -8.0      0.924      1.228
REMARK  Name = 
REMARK  7 active torsions:
REMARK  status: ('A' for Active; 'I' for Inactive)
REMARK    1  A    between atoms: C_1  and  C_2
REMARK    2  A    between atoms: C_3  and  C_4
REMARK    3  A    between atoms: N_6  and  S_7
REMARK    4  A    between atoms: S_7  and  C_10
REMARK    5  A    between atoms: C_23  and  S_24
REMARK    6  A    between atoms: S_24  and  N_27
REMARK    7  A    between atoms: N_27  and  C_28
REMARK                            x       y       z     vdW  Elec       q    Type
REMARK                         _______ _______ _______ _____ _____    ______ ____
ROOT
ATOM      1  C   UNL     1       2.259   6.053  19.983  0.00  0.00    +0.000 C 
ATOM      2  C   UNL     1       3.801   5.896  19.904  0.00  0.00    +0.000 C 
ATOM      3  N   UNL     1       4.379   5.819  18.514  0.00  0.00    +0.000 NA
ATOM      4  C   UNL     1       3.890   6.992  17.712  0.00  0.00    +0.000 C 
ATOM      5  C   UNL     1       2.353   7.128  17.722  0.00  0.00    +0.000 C 
ATOM      6  N   UNL     1       1.793   7.135  19.087  0.00  0.00    +0.000 N 
ATOM      7  C   UNL     1       1.332   8.315  19.651  0.00  0.00    +0.000 A 
ATOM      8  C   UNL     1       0.644   9.266  18.884  0.00  0.00    +0.000 A 
ATOM      9  C   UNL     1       0.161  10.442  19.462  0.00  0.00    +0.000 A 
ATOM     10  C   UNL     1       0.360  10.641  20.818  0.00  0.00    +0.000 A 
ATOM     11  C   UNL     1       1.037   9.677  21.529  0.00  0.00    +0.000 A 
ATOM     12  N   UNL     1       1.515   8.530  20.975  0.00  0.00    +0.000 NA
ENDROOT
BRANCH   1  15
ATOM     13  C   UNL     1       0.851   2.315  18.992  0.00  0.00    +0.000 C 
ATOM     14  C   UNL     1       1.144   3.710  19.332  0.00  0.00    +0.000 C 
ATOM     15  C   UNL     1       1.574   4.792  19.624  0.00  0.00    +0.000 C 
ENDBRANCH   1  15
BRANCH   3  16
ATOM     16  S   UNL     1       4.433   4.359  17.612  0.00  0.00    +0.000 S 
ATOM     17  O   UNL     1       4.935   3.307  18.446  0.00  0.00    +0.000 OA
ATOM     18  O   UNL     1       3.118   4.218  17.018  0.00  0.00    +0.000 OA
BRANCH  16  19
ATOM     19  C   UNL     1       5.545   4.634  16.272  0.00  0.00    +0.000 A 
ATOM     20  C   UNL     1       5.322   4.153  14.986  0.00  0.00    +0.000 A 
ATOM     21  C   UNL     1       6.261   4.430  13.989  0.00  0.00    +0.000 A 
ATOM     22  C   UNL     1       7.364   5.215  14.300  0.00  0.00    +0.000 A 
ATOM     23  N   UNL     1       8.377   5.420  13.370  0.00  0.00    +0.000 N 
ATOM     24  N   UNL     1       7.556   5.736  15.524  0.00  0.00    +0.000 NA
ATOM     25  C   UNL     1       6.640   5.449  16.483  0.00  0.00    +0.000 A 
ATOM     26  H   UNL     1       8.042   5.713  12.462  0.00  0.00    +0.000 HD
ATOM     27  H   UNL     1       9.038   6.078  13.776  0.00  0.00    +0.000 HD
ENDBRANCH  16  19
ENDBRANCH   3  16
BRANCH  10  28
ATOM     28  S   UNL     1      -0.168  12.106  21.629  0.00  0.00    +0.000 S 
ATOM     29  O   UNL     1      -1.176  12.718  20.791  0.00  0.00    +0.000 OA
ATOM     30  O   UNL     1      -0.415  11.807  23.022  0.00  0.00    +0.000 OA
BRANCH  28  31
ATOM     31  N   UNL     1       1.180  13.111  21.550  0.00  0.00    +0.000 NA
ATOM     32  C   UNL     1       1.395  13.850  20.308  0.00  0.00    +0.000 C 
ATOM     33  H   UNL     1       1.997  12.658  21.962  0.00  0.00    +0.000 HD
ENDBRANCH  28  31
ENDBRANCH  10  28
TORSDOF 5
ENDMDL
MODEL 3
REMARK VINA RESULT:      -7.7      2.817      9.704
REMARK  Name = 
REMARK  7 active torsions:
REMARK  status: ('A' for Active; 'I' for Inactive)
REMARK    1  A    between atoms: C_1  and  C_2
REMARK    2  A    between atoms: C_3  and  C_4
REMARK    3  A    between atoms: N_6  and  S_7
REMARK    4  A    between atoms: S_7  and  C_10
REMARK    5  A    between atoms: C_23  and  S_24
REMARK    6  A    between atoms: S_24  and  N_27
REMARK    7  A    between atoms: N_27  and  C_28
REMARK                            x       y       z     vdW  Elec       q    Type
REMARK                         _______ _______ _______ _____ _____    ______ ____
ROOT
ATOM      1  C   UNL     1       0.937   9.836  18.203  0.00  0.00    +0.000 C 
ATOM      2  C   UNL     1       1.468  11.232  18.626  0.00  0.00    +0.000 C 
ATOM      3  N   UNL     1       0.972  11.742  19.955  0.00  0.00    +0.000 NA
ATOM      4  C   UNL     1       1.226  10.701  21.008  0.00  0.00    +0.000 C 
ATOM      5  C   UNL     1       0.648   9.319  20.636  0.00  0.00    +0.000 C 
ATOM      6  N   UNL     1       1.086   8.860  19.305  0.00  0.00    +0.000 N 
ATOM      7  C   UNL     1       2.040   7.860  19.185  0.00  0.00    +0.000 A 
ATOM      8  C   UNL     1       2.057   6.765  20.060  0.00  0.00    +0.000 A 
ATOM      9  C   UNL     1       3.005   5.748  19.921  0.00  0.00    +0.000 A 
ATOM     10  C   UNL     1       3.920   5.836  18.884  0.00  0.00    +0.000 A 
ATOM     11  C   UNL     1       3.859   6.928  18.049  0.00  0.00    +0.000 A 
ATOM     12  N   UNL     1       2.943   7.925  18.179  0.00  0.00    +0.000 NA
ENDROOT
BRANCH   1  15
ATOM     13  C   UNL     1      -3.133   9.977  17.612  0.00  0.00    +0.000 C 
ATOM     14  C   UNL     1      -1.668   9.945  17.606  0.00  0.00    +0.000 C 
ATOM     15  C   UNL     1      -0.484   9.904  17.799  0.00  0.00    +0.000 C 
ENDBRANCH   1  15
BRANCH   3  16
ATOM     16  S   UNL     1      -0.539  12.535  20.139  0.00  0.00    +0.000 S 
ATOM     17  O   UNL     1      -0.945  13.078  18.875  0.00  0.00    +0.000 OA
ATOM     18  O   UNL     1      -1.403  11.580  20.804  0.00  0.00    +0.000 OA
BRANCH  16  19
ATOM     19  C   UNL     1      -0.285  13.846  21.291  0.00  0.00    +0.000 A 
ATOM     20  C   UNL     1       0.313  15.055  20.949  0.00  0.00    +0.000 A 
ATOM     21  C   UNL     1       0.463  16.035  21.934  0.00  0.00    +0.000 A 
ATOM     22  C   UNL     1      -0.028  15.792  23.210  0.00  0.00    +0.000 A 
ATOM     23  N   UNL     1       0.202  16.692  24.245  0.00  0.00    +0.000 N 
ATOM     24  N   UNL     1      -0.661  14.652  23.532  0.00  0.00    +0.000 NA
ATOM     25  C   UNL     1      -0.790  13.705  22.568  0.00  0.00    +0.000 A 
ATOM     26  H   UNL     1      -0.026  17.648  24.009  0.00  0.00    +0.000 HD
ATOM     27  H   UNL     1      -0.306  16.357  25.060  0.00  0.00    +0.000 HD
ENDBRANCH  16  19
ENDBRANCH   3  16
BRANCH  10  28
ATOM     28  S   UNL     1       5.178   4.635  18.651  0.00  0.00    +0.000 S 
ATOM     29  O   UNL     1       4.721   3.413  19.276  0.00  0.00    +0.000 OA
ATOM     30  O   UNL     1       5.610   4.670  17.272  0.00  0.00    +0.000 OA
BRANCH  28  31
ATOM     31  N   UNL     1       6.447   5.201  19.603  0.00  0.00    +0.000 NA
ATOM     32  C   UNL     1       7.547   5.879  18.922  0.00  0.00    +0.000 C 
ATOM     33  H   UNL     1       6.700   4.516  20.316  0.00  0.00    +0.000 HD
ENDBRANCH  28  31
ENDBRANCH  10  28
TORSDOF 5
ENDMDL
MODEL 4
REMARK VINA RESULT:      -7.7      2.869      9.705
REMARK  Name = 
REMARK  7 active torsions:
REMARK  status: ('A' for Active; 'I' for Inactive)
REMARK    1  A    between atoms: C_1  and  C_2
REMARK    2  A    between atoms: C_3  and  C_4
REMARK    3  A    between atoms: N_6  and  S_7
REMARK    4  A    between atoms: S_7  and  C_10
REMARK    5  A    between atoms: C_23  and  S_24
REMARK    6  A    between atoms: S_24  and  N_27
REMARK    7  A    between atoms: N_27  and  C_28
REMARK                            x       y       z     vdW  Elec       q    Type
REMARK                         _______ _______ _______ _____ _____    ______ ____
ROOT
ATOM      1  C   UNL     1       0.925   9.860  18.195  0.00  0.00    +0.000 C 
ATOM      2  C   UNL     1       1.451  11.249  18.644  0.00  0.00    +0.000 C 
ATOM      3  N   UNL     1       0.982  11.719  19.997  0.00  0.00    +0.000 NA
ATOM      4  C   UNL     1       1.272  10.652  21.015  0.00  0.00    +0.000 C 
ATOM      5  C   UNL     1       0.700   9.274  20.620  0.00  0.00    +0.000 C 
ATOM      6  N   UNL     1       1.110   8.856  19.267  0.00  0.00    +0.000 N 
ATOM      7  C   UNL     1       2.072   7.870  19.098  0.00  0.00    +0.000 A 
ATOM      8  C   UNL     1       2.121   6.752  19.942  0.00  0.00    +0.000 A 
ATOM      9  C   UNL     1       3.077   5.751  19.753  0.00  0.00    +0.000 A 
ATOM     10  C   UNL     1       3.965   5.877  18.697  0.00  0.00    +0.000 A 
ATOM     11  C   UNL     1       3.873   6.990  17.893  0.00  0.00    +0.000 A 
ATOM     12  N   UNL     1       2.949   7.973  18.072  0.00  0.00    +0.000 NA
ENDROOT
BRANCH   1  15
ATOM     13  C   UNL     1      -2.910   9.792  16.703  0.00  0.00    +0.000 C 
ATOM     14  C   UNL     1      -1.631   9.913  17.408  0.00  0.00    +0.000 C 
ATOM     15  C   UNL     1      -0.506   9.923  17.827  0.00  0.00    +0.000 C 
ENDBRANCH   1  15
BRANCH   3  16
ATOM     16  S   UNL     1      -0.532  12.489  20.238  0.00  0.00    +0.000 S 
ATOM     17  O   UNL     1      -1.024  12.970  18.980  0.00  0.00    +0.000 OA
ATOM     18  O   UNL     1      -1.335  11.547  20.993  0.00  0.00    +0.000 OA
BRANCH  16  19
ATOM     19  C   UNL     1      -0.239  13.852  21.318  0.00  0.00    +0.000 A 
ATOM     20  C   UNL     1       0.364  15.036  20.904  0.00  0.00    +0.000 A 
ATOM     21  C   UNL     1       0.546  16.062  21.834  0.00  0.00    +0.000 A 
ATOM     22  C   UNL     1       0.081  15.889  23.131  0.00  0.00    +0.000 A 
ATOM     23  N   UNL     1       0.342  16.836  24.115  0.00  0.00    +0.000 N 
ATOM     24  N   UNL     1      -0.558  14.773  23.524  0.00  0.00    +0.000 NA
ATOM     25  C   UNL     1      -0.718  13.781  22.611  0.00  0.00    +0.000 A 
ATOM     26  H   UNL     1       0.119  17.782  23.837  0.00  0.00    +0.000 HD
ATOM     27  H   UNL     1      -0.151  16.548  24.957  0.00  0.00    +0.000 HD
ENDBRANCH  16  19
ENDBRANCH   3  16
BRANCH  10  28
ATOM     28  S   UNL     1       5.230   4.696  18.402  0.00  0.00    +0.000 S 
ATOM     29  O   UNL     1       5.501   4.709  16.981  0.00  0.00    +0.000 OA
ATOM     30  O   UNL     1       6.280   4.881  19.379  0.00  0.00    +0.000 OA
BRANCH  28  31
ATOM     31  N   UNL     1       4.481   3.224  18.723  0.00  0.00    +0.000 NA
ATOM     32  C   UNL     1       3.551   2.710  17.720  0.00  0.00    +0.000 C 
ATOM     33  H   UNL     1       4.180   3.173  19.697  0.00  0.00    +0.000 HD
ENDBRANCH  28  31
ENDBRANCH  10  28
TORSDOF 5
ENDMDL
MODEL 5
REMARK VINA RESULT:      -7.6      3.319      9.694
REMARK  Name = 
REMARK  7 active torsions:
REMARK  status: ('A' for Active; 'I' for Inactive)
REMARK    1  A    between atoms: C_1  and  C_2
REMARK    2  A    between atoms: C_3  and  C_4
REMARK    3  A    between atoms: N_6  and  S_7
REMARK    4  A    between atoms: S_7  and  C_10
REMARK    5  A    between atoms: C_23  and  S_24
REMARK    6  A    between atoms: S_24  and  N_27
REMARK    7  A    between atoms: N_27  and  C_28
REMARK                            x       y       z     vdW  Elec       q    Type
REMARK                         _______ _______ _______ _____ _____    ______ ____
ROOT
ATOM      1  C   UNL     1       0.985   9.626  20.340  0.00  0.00    +0.000 C 
ATOM      2  C   UNL     1      -0.560   9.480  20.365  0.00  0.00    +0.000 C 
ATOM      3  N   UNL     1      -1.295  10.128  19.219  0.00  0.00    +0.000 NA
ATOM      4  C   UNL     1      -0.706   9.649  17.923  0.00  0.00    +0.000 C 
ATOM      5  C   UNL     1       0.823   9.844  17.850  0.00  0.00    +0.000 C 
ATOM      6  N   UNL     1       1.526   9.266  19.010  0.00  0.00    +0.000 N 
ATOM      7  C   UNL     1       2.244   8.086  18.880  0.00  0.00    +0.000 A 
ATOM      8  C   UNL     1       2.994   7.816  17.727  0.00  0.00    +0.000 A 
ATOM      9  C   UNL     1       3.734   6.637  17.610  0.00  0.00    +0.000 A 
ATOM     10  C   UNL     1       3.725   5.745  18.670  0.00  0.00    +0.000 A 
ATOM     11  C   UNL     1       2.978   6.057  19.783  0.00  0.00    +0.000 A 
ATOM     12  N   UNL     1       2.251   7.200  19.904  0.00  0.00    +0.000 NA
ENDROOT
BRANCH   1  15
ATOM     13  C   UNL     1       1.866  13.616  20.830  0.00  0.00    +0.000 C 
ATOM     14  C   UNL     1       1.667  12.164  20.838  0.00  0.00    +0.000 C 
ATOM     15  C   UNL     1       1.398  11.005  20.679  0.00  0.00    +0.000 C 
ENDBRANCH   1  15
BRANCH   3  16
ATOM     16  S   UNL     1      -1.700  11.796  19.202  0.00  0.00    +0.000 S 
ATOM     17  O   UNL     1      -1.703  12.296  20.546  0.00  0.00    +0.000 OA
ATOM     18  O   UNL     1      -0.814  12.403  18.228  0.00  0.00    +0.000 OA
BRANCH  16  19
ATOM     19  C   UNL     1      -3.323  11.914  18.523  0.00  0.00    +0.000 A 
ATOM     20  C   UNL     1      -3.637  11.519  17.227  0.00  0.00    +0.000 A 
ATOM     21  C   UNL     1      -4.956  11.646  16.783  0.00  0.00    +0.000 A 
ATOM     22  C   UNL     1      -5.921  12.119  17.662  0.00  0.00    +0.000 A 
ATOM     23  N   UNL     1      -7.219  12.368  17.228  0.00  0.00    +0.000 N 
ATOM     24  N   UNL     1      -5.639  12.445  18.935  0.00  0.00    +0.000 NA
ATOM     25  C   UNL     1      -4.352  12.326  19.348  0.00  0.00    +0.000 A 
ATOM     26  H   UNL     1      -7.629  11.601  16.712  0.00  0.00    +0.000 HD
ATOM     27  H   UNL     1      -7.769  12.631  18.042  0.00  0.00    +0.000 HD
ENDBRANCH  16  19
ENDBRANCH   3  16
BRANCH  10  28
ATOM     28  S   UNL     1       4.585   4.216  18.604  0.00  0.00    +0.000 S 
ATOM     29  O   UNL     1       4.086   3.399  19.689  0.00  0.00    +0.000 OA
ATOM     30  O   UNL     1       4.596   3.744  17.238  0.00  0.00    +0.000 OA
BRANCH  28  31
ATOM     31  N   UNL     1       6.163   4.630  19.018  0.00  0.00    +0.000 NA
ATOM     32  C   UNL     1       7.118   4.817  17.928  0.00  0.00    +0.000 C 
ATOM     33  H   UNL     1       6.483   4.087  19.821  0.00  0.00    +0.000 HD
ENDBRANCH  28  31
ENDBRANCH  10  28
TORSDOF 5
ENDMDL
MODEL 6
REMARK VINA RESULT:      -7.6      3.410      9.695
REMARK  Name = 
REMARK  7 active torsions:
REMARK  status: ('A' for Active; 'I' for Inactive)
REMARK    1  A    between atoms: C_1  and  C_2
REMARK    2  A    between atoms: C_3  and  C_4
REMARK    3  A    between atoms: N_6  and  S_7
REMARK    4  A    between atoms: S_7  and  C_10
REMARK    5  A    between atoms: C_23  and  S_24
REMARK    6  A    between atoms: S_24  and  N_27
REMARK    7  A    between atoms: N_27  and  C_28
REMARK                            x       y       z     vdW  Elec       q    Type
REMARK                         _______ _______ _______ _____ _____    ______ ____
ROOT
ATOM      1  C   UNL     1       0.938   9.697  20.344  0.00  0.00    +0.000 C 
ATOM      2  C   UNL     1      -0.605   9.532  20.379  0.00  0.00    +0.000 C 
ATOM      3  N   UNL     1      -1.357  10.183  19.246  0.00  0.00    +0.000 NA
ATOM      4  C   UNL     1      -0.772   9.726  17.941  0.00  0.00    +0.000 C 
ATOM      5  C   UNL     1       0.754   9.941  17.858  0.00  0.00    +0.000 C 
ATOM      6  N   UNL     1       1.473   9.359  19.006  0.00  0.00    +0.000 N 
ATOM      7  C   UNL     1       2.204   8.190  18.858  0.00  0.00    +0.000 A 
ATOM      8  C   UNL     1       2.949   7.942  17.696  0.00  0.00    +0.000 A 
ATOM      9  C   UNL     1       3.702   6.773  17.560  0.00  0.00    +0.000 A 
ATOM     10  C   UNL     1       3.713   5.870  18.611  0.00  0.00    +0.000 A 
ATOM     11  C   UNL     1       2.970   6.160  19.732  0.00  0.00    +0.000 A 
ATOM     12  N   UNL     1       2.230   7.293  19.872  0.00  0.00    +0.000 NA
ENDROOT
BRANCH   1  15
ATOM     13  C   UNL     1       1.747  13.696  20.889  0.00  0.00    +0.000 C 
ATOM     14  C   UNL     1       1.585  12.239  20.869  0.00  0.00    +0.000 C 
ATOM     15  C   UNL     1       1.336  11.078  20.695  0.00  0.00    +0.000 C 
ENDBRANCH   1  15
BRANCH   3  16
ATOM     16  S   UNL     1      -1.783  11.846  19.251  0.00  0.00    +0.000 S 
ATOM     17  O   UNL     1      -1.795  12.328  20.601  0.00  0.00    +0.000 OA
ATOM     18  O   UNL     1      -0.902  12.477  18.287  0.00  0.00    +0.000 OA
BRANCH  16  19
ATOM     19  C   UNL     1      -3.406  11.953  18.569  0.00  0.00    +0.000 A 
ATOM     20  C   UNL     1      -3.718  11.542  17.277  0.00  0.00    +0.000 A 
ATOM     21  C   UNL     1      -5.036  11.662  16.831  0.00  0.00    +0.000 A 
ATOM     22  C   UNL     1      -6.004  12.143  17.704  0.00  0.00    +0.000 A 
ATOM     23  N   UNL     1      -7.301  12.384  17.266  0.00  0.00    +0.000 N 
ATOM     24  N   UNL     1      -5.723  12.484  18.973  0.00  0.00    +0.000 NA
ATOM     25  C   UNL     1      -4.436  12.373  19.388  0.00  0.00    +0.000 A 
ATOM     26  H   UNL     1      -7.709  11.610  16.759  0.00  0.00    +0.000 HD
ATOM     27  H   UNL     1      -7.853  12.656  18.077  0.00  0.00    +0.000 HD
ENDBRANCH  16  19
ENDBRANCH   3  16
BRANCH  10  28
ATOM     28  S   UNL     1       4.591   4.352  18.521  0.00  0.00    +0.000 S 
ATOM     29  O   UNL     1       4.579   3.935  17.136  0.00  0.00    +0.000 OA
ATOM     30  O   UNL     1       5.822   4.479  19.268  0.00  0.00    +0.000 OA
BRANCH  28  31
ATOM     31  N   UNL     1       3.598   3.271  19.344  0.00  0.00    +0.000 NA
ATOM     32  C   UNL     1       4.248   2.273  20.192  0.00  0.00    +0.000 C 
ATOM     33  H   UNL     1       2.842   2.940  18.743  0.00  0.00    +0.000 HD
ENDBRANCH  28  31
ENDBRANCH  10  28
TORSDOF 5
ENDMDL
MODEL 7
REMARK VINA RESULT:      -7.4      4.726      7.714
REMARK  Name = 
REMARK  7 active torsions:
REMARK  status: ('A' for Active; 'I' for Inactive)
REMARK    1  A    between atoms: C_1  and  C_2
REMARK    2  A    between atoms: C_3  and  C_4
REMARK    3  A    between atoms: N_6  and  S_7
REMARK    4  A    between atoms: S_7  and  C_10
REMARK    5  A    between atoms: C_23  and  S_24
REMARK    6  A    between atoms: S_24  and  N_27
REMARK    7  A    between atoms: N_27  and  C_28
REMARK                            x       y       z     vdW  Elec       q    Type
REMARK                         _______ _______ _______ _____ _____    ______ ____
ROOT
ATOM      1  C   UNL     1       5.805   6.779  16.566  0.00  0.00    +0.000 C 
ATOM      2  C   UNL     1       4.352   6.764  17.110  0.00  0.00    +0.000 C 
ATOM      3  N   UNL     1       4.073   5.760  18.199  0.00  0.00    +0.000 NA
ATOM      4  C   UNL     1       5.084   5.931  19.297  0.00  0.00    +0.000 C 
ATOM      5  C   UNL     1       6.539   5.882  18.786  0.00  0.00    +0.000 C 
ATOM      6  N   UNL     1       6.783   6.821  17.676  0.00  0.00    +0.000 N 
ATOM      7  C   UNL     1       7.499   7.990  17.889  0.00  0.00    +0.000 A 
ATOM      8  C   UNL     1       8.610   8.016  18.744  0.00  0.00    +0.000 A 
ATOM      9  C   UNL     1       9.341   9.190  18.937  0.00  0.00    +0.000 A 
ATOM     10  C   UNL     1       8.955  10.329  18.249  0.00  0.00    +0.000 A 
ATOM     11  C   UNL     1       7.862  10.252  17.417  0.00  0.00    +0.000 A 
ATOM     12  N   UNL     1       7.140   9.114  17.226  0.00  0.00    +0.000 NA
ENDROOT
BRANCH   1  15
ATOM     13  C   UNL     1       6.206   3.701  13.863  0.00  0.00    +0.000 C 
ATOM     14  C   UNL     1       6.202   4.684  14.950  0.00  0.00    +0.000 C 
ATOM     15  C   UNL     1       6.073   5.592  15.724  0.00  0.00    +0.000 C 
ENDBRANCH   1  15
BRANCH   3  16
ATOM     16  S   UNL     1       3.703   4.116  17.871  0.00  0.00    +0.000 S 
ATOM     17  O   UNL     1       2.918   4.038  16.673  0.00  0.00    +0.000 OA
ATOM     18  O   UNL     1       4.968   3.411  17.930  0.00  0.00    +0.000 OA
BRANCH  16  19
ATOM     19  C   UNL     1       2.756   3.530  19.238  0.00  0.00    +0.000 A 
ATOM     20  C   UNL     1       1.364   3.512  19.248  0.00  0.00    +0.000 A 
ATOM     21  C   UNL     1       0.705   3.021  20.378  0.00  0.00    +0.000 A 
ATOM     22  C   UNL     1       1.454   2.523  21.436  0.00  0.00    +0.000 A 
ATOM     23  N   UNL     1       0.842   2.132  22.621  0.00  0.00    +0.000 N 
ATOM     24  N   UNL     1       2.798   2.480  21.408  0.00  0.00    +0.000 NA
ATOM     25  C   UNL     1       3.424   2.970  20.309  0.00  0.00    +0.000 A 
ATOM     26  H   UNL     1       0.058   1.508  22.486  0.00  0.00    +0.000 HD
ATOM     27  H   UNL     1       1.561   1.734  23.221  0.00  0.00    +0.000 HD
ENDBRANCH  16  19
ENDBRANCH   3  16
BRANCH  10  28
ATOM     28  S   UNL     1       9.781  11.864  18.457  0.00  0.00    +0.000 S 
ATOM     29  O   UNL     1       8.902  12.893  17.944  0.00  0.00    +0.000 OA
ATOM     30  O   UNL     1      10.326  11.925  19.794  0.00  0.00    +0.000 OA
BRANCH  28  31
ATOM     31  N   UNL     1      11.070  11.770  17.378  0.00  0.00    +0.000 NA
ATOM     32  C   UNL     1      11.844  12.988  17.149  0.00  0.00    +0.000 C 
ATOM     33  H   UNL     1      10.816  11.225  16.554  0.00  0.00    +0.000 HD
ENDBRANCH  28  31
ENDBRANCH  10  28
TORSDOF 5
ENDMDL
MODEL 8
REMARK VINA RESULT:      -7.4      2.432      9.813
REMARK  Name = 
REMARK  7 active torsions:
REMARK  status: ('A' for Active; 'I' for Inactive)
REMARK    1  A    between atoms: C_1  and  C_2
REMARK    2  A    between atoms: C_3  and  C_4
REMARK    3  A    between atoms: N_6  and  S_7
REMARK    4  A    between atoms: S_7  and  C_10
REMARK    5  A    between atoms: C_23  and  S_24
REMARK    6  A    between atoms: S_24  and  N_27
REMARK    7  A    between atoms: N_27  and  C_28
REMARK                            x       y       z     vdW  Elec       q    Type
REMARK                         _______ _______ _______ _____ _____    ______ ____
ROOT
ATOM      1  C   UNL     1       0.611  10.005  18.410  0.00  0.00    +0.000 C 
ATOM      2  C   UNL     1       1.079  11.399  18.905  0.00  0.00    +0.000 C 
ATOM      3  N   UNL     1       0.653  11.773  20.302  0.00  0.00    +0.000 NA
ATOM      4  C   UNL     1       1.053  10.677  21.248  0.00  0.00    +0.000 C 
ATOM      5  C   UNL     1       0.541   9.289  20.809  0.00  0.00    +0.000 C 
ATOM      6  N   UNL     1       0.906   8.962  19.418  0.00  0.00    +0.000 N 
ATOM      7  C   UNL     1       1.912   8.045  19.153  0.00  0.00    +0.000 A 
ATOM      8  C   UNL     1       2.067   6.891  19.934  0.00  0.00    +0.000 A 
ATOM      9  C   UNL     1       3.067   5.958  19.649  0.00  0.00    +0.000 A 
ATOM     10  C   UNL     1       3.893   6.189  18.561  0.00  0.00    +0.000 A 
ATOM     11  C   UNL     1       3.698   7.332  17.821  0.00  0.00    +0.000 A 
ATOM     12  N   UNL     1       2.730   8.249  18.094  0.00  0.00    +0.000 NA
ENDROOT
BRANCH   1  15
ATOM     13  C   UNL     1      -3.278  10.093  17.066  0.00  0.00    +0.000 C 
ATOM     14  C   UNL     1      -1.979  10.025  17.741  0.00  0.00    +0.000 C 
ATOM     15  C   UNL     1      -0.838  10.001  18.114  0.00  0.00    +0.000 C 
ENDBRANCH   1  15
BRANCH   3  16
ATOM     16  S   UNL     1      -0.889  12.440  20.653  0.00  0.00    +0.000 S 
ATOM     17  O   UNL     1      -1.431  13.030  19.464  0.00  0.00    +0.000 OA
ATOM     18  O   UNL     1      -1.630  11.384  21.315  0.00  0.00    +0.000 OA
BRANCH  16  19
ATOM     19  C   UNL     1      -0.632  13.691  21.870  0.00  0.00    +0.000 A 
ATOM     20  C   UNL     1      -1.454  13.851  22.982  0.00  0.00    +0.000 A 
ATOM     21  C   UNL     1      -1.162  14.869  23.894  0.00  0.00    +0.000 A 
ATOM     22  C   UNL     1      -0.039  15.659  23.689  0.00  0.00    +0.000 A 
ATOM     23  N   UNL     1       0.222  16.752  24.508  0.00  0.00    +0.000 N 
ATOM     24  N   UNL     1       0.794  15.471  22.651  0.00  0.00    +0.000 NA
ATOM     25  C   UNL     1       0.492  14.486  21.768  0.00  0.00    +0.000 A 
ATOM     26  H   UNL     1       0.177  16.540  25.495  0.00  0.00    +0.000 HD
ATOM     27  H   UNL     1       1.123  17.135  24.230  0.00  0.00    +0.000 HD
ENDBRANCH  16  19
ENDBRANCH   3  16
BRANCH  10  28
ATOM     28  S   UNL     1       5.207   5.101  18.145  0.00  0.00    +0.000 S 
ATOM     29  O   UNL     1       5.938   4.831  19.365  0.00  0.00    +0.000 OA
ATOM     30  O   UNL     1       4.688   4.036  17.317  0.00  0.00    +0.000 OA
BRANCH  28  31
ATOM     31  N   UNL     1       6.220   6.049  17.192  0.00  0.00    +0.000 NA
ATOM     32  C   UNL     1       7.459   6.530  17.800  0.00  0.00    +0.000 C 
ATOM     33  H   UNL     1       5.681   6.726  16.650  0.00  0.00    +0.000 HD
ENDBRANCH  28  31
ENDBRANCH  10  28
TORSDOF 5
ENDMDL
MODEL 9
REMARK VINA RESULT:      -7.3      3.032      9.139
REMARK  Name = 
REMARK  7 active torsions:
REMARK  status: ('A' for Active; 'I' for Inactive)
REMARK    1  A    between atoms: C_1  and  C_2
REMARK    2  A    between atoms: C_3  and  C_4
REMARK    3  A    between atoms: N_6  and  S_7
REMARK    4  A    between atoms: S_7  and  C_10
REMARK    5  A    between atoms: C_23  and  S_24
REMARK    6  A    between atoms: S_24  and  N_27
REMARK    7  A    between atoms: N_27  and  C_28
REMARK                            x       y       z     vdW  Elec       q    Type
REMARK                         _______ _______ _______ _____ _____    ______ ____
ROOT
ATOM      1  C   UNL     1       1.109   9.470  19.434  0.00  0.00    +0.000 C 
ATOM      2  C   UNL     1       1.729  10.620  20.271  0.00  0.00    +0.000 C 
ATOM      3  N   UNL     1       1.025  10.937  21.567  0.00  0.00    +0.000 NA
ATOM      4  C   UNL     1       0.877   9.674  22.367  0.00  0.00    +0.000 C 
ATOM      5  C   UNL     1       0.202   8.535  21.574  0.00  0.00    +0.000 C 
ATOM      6  N   UNL     1       0.858   8.280  20.278  0.00  0.00    +0.000 N 
ATOM      7  C   UNL     1       1.657   7.160  20.104  0.00  0.00    +0.000 A 
ATOM      8  C   UNL     1       1.314   5.927  20.678  0.00  0.00    +0.000 A 
ATOM      9  C   UNL     1       2.108   4.796  20.481  0.00  0.00    +0.000 A 
ATOM     10  C   UNL     1       3.238   4.913  19.686  0.00  0.00    +0.000 A 
ATOM     11  C   UNL     1       3.530   6.142  19.141  0.00  0.00    +0.000 A 
ATOM     12  N   UNL     1       2.764   7.251  19.331  0.00  0.00    +0.000 NA
ENDROOT
BRANCH   1  15
ATOM     13  C   UNL     1      -2.106  10.810  17.242  0.00  0.00    +0.000 C 
ATOM     14  C   UNL     1      -1.108  10.280  18.175  0.00  0.00    +0.000 C 
ATOM     15  C   UNL     1      -0.158   9.893  18.798  0.00  0.00    +0.000 C 
ENDBRANCH   1  15
BRANCH   3  16
ATOM     16  S   UNL     1      -0.355  11.954  21.647  0.00  0.00    +0.000 S 
ATOM     17  O   UNL     1      -1.484  11.265  21.092  0.00  0.00    +0.000 OA
ATOM     18  O   UNL     1      -0.419  12.418  23.019  0.00  0.00    +0.000 OA
BRANCH  16  19
ATOM     19  C   UNL     1       0.008  13.376  20.670  0.00  0.00    +0.000 A 
ATOM     20  C   UNL     1      -0.655  13.675  19.484  0.00  0.00    +0.000 A 
ATOM     21  C   UNL     1      -0.299  14.831  18.784  0.00  0.00    +0.000 A 
ATOM     22  C   UNL     1       0.673  15.669  19.315  0.00  0.00    +0.000 A 
ATOM     23  N   UNL     1       1.137  16.766  18.597  0.00  0.00    +0.000 N 
ATOM     24  N   UNL     1       1.275  15.420  20.490  0.00  0.00    +0.000 NA
ATOM     25  C   UNL     1       0.926  14.289  21.152  0.00  0.00    +0.000 A 
ATOM     26  H   UNL     1       0.399  17.352  18.229  0.00  0.00    +0.000 HD
ATOM     27  H   UNL     1       1.780  17.276  19.198  0.00  0.00    +0.000 HD
ENDBRANCH  16  19
ENDBRANCH   3  16
BRANCH  10  28
ATOM     28  S   UNL     1       4.326   3.563  19.414  0.00  0.00    +0.000 S 
ATOM     29  O   UNL     1       5.659   4.109  19.287  0.00  0.00    +0.000 OA
ATOM     30  O   UNL     1       4.019   2.516  20.362  0.00  0.00    +0.000 OA
BRANCH  28  31
ATOM     31  N   UNL     1       3.898   3.013  17.881  0.00  0.00    +0.000 NA
ATOM     32  C   UNL     1       2.731   2.138  17.783  0.00  0.00    +0.000 C 
ATOM     33  H   UNL     1       4.724   2.737  17.349  0.00  0.00    +0.000 HD
ENDBRANCH  28  31
ENDBRANCH  10  28
TORSDOF 5
ENDMDL
