MODEL 1
REMARK VINA RESULT:      -7.9      0.000      0.000
REMARK  Name = 
REMARK  3 active torsions:
REMARK  status: ('A' for Active; 'I' for Inactive)
REMARK    1  A    between atoms: O_1  and  C_2
REMARK    2  A    between atoms: N_6  and  C_7
REMARK    3  A    between atoms: C_7  and  C_8
REMARK                            x       y       z     vdW  Elec       q    Type
REMARK                         _______ _______ _______ _____ _____    ______ ____
ROOT
ATOM      1  C   UNL     1       2.187   8.468  18.404  0.00  0.00    +0.000 A 
ATOM      2  C   UNL     1       1.452   9.501  18.941  0.00  0.00    +0.000 A 
ATOM      3  C   UNL     1       1.058   9.053  20.231  0.00  0.00    +0.000 A 
ATOM      4  N   UNL     1       1.568   7.844  20.511  0.00  0.00    +0.000 NA
ATOM      5  N   UNL     1       2.281   7.528  19.400  0.00  0.00    +0.000 N 
ATOM      6  C   UNL     1       0.203   9.828  21.130  0.00  0.00    +0.000 A 
ATOM      7  C   UNL     1       0.114   9.527  22.496  0.00  0.00    +0.000 A 
ATOM      8  C   UNL     1      -0.696  10.295  23.339  0.00  0.00    +0.000 A 
ATOM      9  C   UNL     1      -1.431  11.361  22.824  0.00  0.00    +0.000 A 
ATOM     10  C   UNL     1      -1.363  11.664  21.462  0.00  0.00    +0.000 A 
ATOM     11  C   UNL     1      -0.544  10.911  20.611  0.00  0.00    +0.000 A 
ATOM     12  S   UNL     1      -0.550  11.366  18.868  0.00  0.00    +0.000 S 
ATOM     13  C   UNL     1       1.128  10.837  18.400  0.00  0.00    +0.000 C 
ENDROOT
BRANCH   1  14
ATOM     14  O   UNL     1       2.776   8.299  17.224  0.00  0.00    +0.000 OA
ATOM     15  H   UNL     1       2.634   7.376  16.948  0.00  0.00    +0.000 HD
ENDBRANCH   1  14
BRANCH   5  16
ATOM     16  C   UNL     1       3.101   6.321  19.364  0.00  0.00    +0.000 C 
BRANCH  16  17
ATOM     17  C   UNL     1       2.234   5.083  19.394  0.00  0.00    +0.000 A 
ATOM     18  C   UNL     1       1.826   4.536  20.620  0.00  0.00    +0.000 A 
ATOM     19  C   UNL     1       1.122   3.332  20.662  0.00  0.00    +0.000 A 
ATOM     20  C   UNL     1       0.798   2.672  19.479  0.00  0.00    +0.000 A 
ATOM     21  C   UNL     1       1.160   3.226  18.252  0.00  0.00    +0.000 A 
ATOM     22  C   UNL     1       1.873   4.426  18.207  0.00  0.00    +0.000 A 
ENDBRANCH  16  17
ENDBRANCH   5  16
TORSDOF 3
ENDMDL
MODEL 2
REMARK VINA RESULT:      -7.8      0.161      1.066
REMARK  Name = 
REMARK  3 active torsions:
REMARK  status: ('A' for Active; 'I' for Inactive)
REMARK    1  A    between atoms: O_1  and  C_2
REMARK    2  A    between atoms: N_6  and  C_7
REMARK    3  A    between atoms: C_7  and  C_8
REMARK                            x       y       z     vdW  Elec       q    Type
REMARK                         _______ _______ _______ _____ _____    ______ ____
ROOT
ATOM      1  C   UNL     1       2.219   8.368  18.368  0.00  0.00    +0.000 A 
ATOM      2  C   UNL     1       1.466   9.379  18.920  0.00  0.00    +0.000 A 
ATOM      3  C   UNL     1       1.130   8.930  20.227  0.00  0.00    +0.000 A 
ATOM      4  N   UNL     1       1.692   7.743  20.501  0.00  0.00    +0.000 NA
ATOM      5  N   UNL     1       2.379   7.441  19.370  0.00  0.00    +0.000 N 
ATOM      6  C   UNL     1       0.278   9.684  21.146  0.00  0.00    +0.000 A 
ATOM      7  C   UNL     1       0.245   9.393  22.517  0.00  0.00    +0.000 A 
ATOM      8  C   UNL     1      -0.565  10.140  23.380  0.00  0.00    +0.000 A 
ATOM      9  C   UNL     1      -1.354  11.174  22.880  0.00  0.00    +0.000 A 
ATOM     10  C   UNL     1      -1.341  11.466  21.514  0.00  0.00    +0.000 A 
ATOM     11  C   UNL     1      -0.524  10.733  20.643  0.00  0.00    +0.000 A 
ATOM     12  S   UNL     1      -0.604  11.170  18.898  0.00  0.00    +0.000 S 
ATOM     13  C   UNL     1       1.075  10.697  18.378  0.00  0.00    +0.000 C 
ENDROOT
BRANCH   1  14
ATOM     14  O   UNL     1       2.775   8.207  17.171  0.00  0.00    +0.000 OA
ATOM     15  H   UNL     1       2.968   7.260  17.055  0.00  0.00    +0.000 HD
ENDBRANCH   1  14
BRANCH   5  16
ATOM     16  C   UNL     1       3.241   6.264  19.317  0.00  0.00    +0.000 C 
BRANCH  16  17
ATOM     17  C   UNL     1       2.420   4.996  19.384  0.00  0.00    +0.000 A 
ATOM     18  C   UNL     1       1.976   4.379  18.204  0.00  0.00    +0.000 A 
ATOM     19  C   UNL     1       1.125   3.274  18.257  0.00  0.00    +0.000 A 
ATOM     20  C   UNL     1       0.724   2.762  19.488  0.00  0.00    +0.000 A 
ATOM     21  C   UNL     1       1.190   3.339  20.668  0.00  0.00    +0.000 A 
ATOM     22  C   UNL     1       2.036   4.450  20.619  0.00  0.00    +0.000 A 
ENDBRANCH  16  17
ENDBRANCH   5  16
TORSDOF 3
ENDMDL
MODEL 3
REMARK VINA RESULT:      -7.3      4.690      6.925
REMARK  Name = 
REMARK  3 active torsions:
REMARK  status: ('A' for Active; 'I' for Inactive)
REMARK    1  A    between atoms: O_1  and  C_2
REMARK    2  A    between atoms: N_6  and  C_7
REMARK    3  A    between atoms: C_7  and  C_8
REMARK                            x       y       z     vdW  Elec       q    Type
REMARK                         _______ _______ _______ _____ _____    ______ ____
ROOT
ATOM      1  C   UNL     1       5.232   6.178  16.703  0.00  0.00    +0.000 A 
ATOM      2  C   UNL     1       4.229   6.098  17.642  0.00  0.00    +0.000 A 
ATOM      3  C   UNL     1       4.337   4.794  18.199  0.00  0.00    +0.000 A 
ATOM      4  N   UNL     1       5.382   4.124  17.691  0.00  0.00    +0.000 NA
ATOM      5  N   UNL     1       5.931   5.001  16.812  0.00  0.00    +0.000 N 
ATOM      6  C   UNL     1       3.415   4.266  19.205  0.00  0.00    +0.000 A 
ATOM      7  C   UNL     1       3.738   3.138  19.973  0.00  0.00    +0.000 A 
ATOM      8  C   UNL     1       2.848   2.663  20.942  0.00  0.00    +0.000 A 
ATOM      9  C   UNL     1       1.626   3.303  21.144  0.00  0.00    +0.000 A 
ATOM     10  C   UNL     1       1.286   4.419  20.378  0.00  0.00    +0.000 A 
ATOM     11  C   UNL     1       2.175   4.912  19.414  0.00  0.00    +0.000 A 
ATOM     12  S   UNL     1       1.628   6.339  18.460  0.00  0.00    +0.000 S 
ATOM     13  C   UNL     1       3.238   7.101  18.083  0.00  0.00    +0.000 C 
ENDROOT
BRANCH   1  14
ATOM     14  O   UNL     1       5.594   7.131  15.849  0.00  0.00    +0.000 OA
ATOM     15  H   UNL     1       4.793   7.619  15.588  0.00  0.00    +0.000 HD
ENDBRANCH   1  14
BRANCH   5  16
ATOM     16  C   UNL     1       7.184   4.684  16.133  0.00  0.00    +0.000 C 
BRANCH  16  17
ATOM     17  C   UNL     1       6.965   4.535  14.645  0.00  0.00    +0.000 A 
ATOM     18  C   UNL     1       5.985   3.655  14.160  0.00  0.00    +0.000 A 
ATOM     19  C   UNL     1       5.851   3.427  12.790  0.00  0.00    +0.000 A 
ATOM     20  C   UNL     1       6.680   4.090  11.888  0.00  0.00    +0.000 A 
ATOM     21  C   UNL     1       7.628   4.998  12.353  0.00  0.00    +0.000 A 
ATOM     22  C   UNL     1       7.772   5.223  13.725  0.00  0.00    +0.000 A 
ENDBRANCH  16  17
ENDBRANCH   5  16
TORSDOF 3
ENDMDL
MODEL 4
REMARK VINA RESULT:      -7.0      2.578      6.236
REMARK  Name = 
REMARK  3 active torsions:
REMARK  status: ('A' for Active; 'I' for Inactive)
REMARK    1  A    between atoms: O_1  and  C_2
REMARK    2  A    between atoms: N_6  and  C_7
REMARK    3  A    between atoms: C_7  and  C_8
REMARK                            x       y       z     vdW  Elec       q    Type
REMARK                         _______ _______ _______ _____ _____    ______ ____
ROOT
ATOM      1  C   UNL     1       2.139   9.462  18.117  0.00  0.00    +0.000 A 
ATOM      2  C   UNL     1       2.588   8.161  18.093  0.00  0.00    +0.000 A 
ATOM      3  C   UNL     1       2.099   7.571  19.290  0.00  0.00    +0.000 A 
ATOM      4  N   UNL     1       1.337   8.426  19.988  0.00  0.00    +0.000 NA
ATOM      5  N   UNL     1       1.347   9.556  19.235  0.00  0.00    +0.000 N 
ATOM      6  C   UNL     1       2.398   6.197  19.694  0.00  0.00    +0.000 A 
ATOM      7  C   UNL     1       1.643   5.543  20.677  0.00  0.00    +0.000 A 
ATOM      8  C   UNL     1       1.936   4.222  21.035  0.00  0.00    +0.000 A 
ATOM      9  C   UNL     1       2.990   3.549  20.420  0.00  0.00    +0.000 A 
ATOM     10  C   UNL     1       3.760   4.192  19.449  0.00  0.00    +0.000 A 
ATOM     11  C   UNL     1       3.467   5.510  19.074  0.00  0.00    +0.000 A 
ATOM     12  S   UNL     1       4.538   6.257  17.834  0.00  0.00    +0.000 S 
ATOM     13  C   UNL     1       3.369   7.429  17.074  0.00  0.00    +0.000 C 
ENDROOT
BRANCH   1  14
ATOM     14  O   UNL     1       2.311  10.491  17.292  0.00  0.00    +0.000 OA
ATOM     15  H   UNL     1       3.054  10.279  16.699  0.00  0.00    +0.000 HD
ENDBRANCH   1  14
BRANCH   5  16
ATOM     16  C   UNL     1       0.516  10.699  19.602  0.00  0.00    +0.000 C 
BRANCH  16  17
ATOM     17  C   UNL     1      -0.799  10.667  18.856  0.00  0.00    +0.000 A 
ATOM     18  C   UNL     1      -0.965   9.814  17.754  0.00  0.00    +0.000 A 
ATOM     19  C   UNL     1      -2.132   9.857  16.992  0.00  0.00    +0.000 A 
ATOM     20  C   UNL     1      -3.155  10.739  17.333  0.00  0.00    +0.000 A 
ATOM     21  C   UNL     1      -3.021  11.562  18.450  0.00  0.00    +0.000 A 
ATOM     22  C   UNL     1      -1.850  11.527  19.211  0.00  0.00    +0.000 A 
ENDBRANCH  16  17
ENDBRANCH   5  16
TORSDOF 3
ENDMDL
MODEL 5
REMARK VINA RESULT:      -7.0      4.646      6.891
REMARK  Name = 
REMARK  3 active torsions:
REMARK  status: ('A' for Active; 'I' for Inactive)
REMARK    1  A    between atoms: O_1  and  C_2
REMARK    2  A    between atoms: N_6  and  C_7
REMARK    3  A    between atoms: C_7  and  C_8
REMARK                            x       y       z     vdW  Elec       q    Type
REMARK                         _______ _______ _______ _____ _____    ______ ____
ROOT
ATOM      1  C   UNL     1       5.232   6.199  16.721  0.00  0.00    +0.000 A 
ATOM      2  C   UNL     1       4.207   6.115  17.636  0.00  0.00    +0.000 A 
ATOM      3  C   UNL     1       4.325   4.824  18.219  0.00  0.00    +0.000 A 
ATOM      4  N   UNL     1       5.394   4.165  17.748  0.00  0.00    +0.000 NA
ATOM      5  N   UNL     1       5.949   5.036  16.867  0.00  0.00    +0.000 N 
ATOM      6  C   UNL     1       3.388   4.296  19.211  0.00  0.00    +0.000 A 
ATOM      7  C   UNL     1       3.712   3.188  20.006  0.00  0.00    +0.000 A 
ATOM      8  C   UNL     1       2.807   2.712  20.961  0.00  0.00    +0.000 A 
ATOM      9  C   UNL     1       1.569   3.333  21.122  0.00  0.00    +0.000 A 
ATOM     10  C   UNL     1       1.228   4.429  20.328  0.00  0.00    +0.000 A 
ATOM     11  C   UNL     1       2.132   4.922  19.378  0.00  0.00    +0.000 A 
ATOM     12  S   UNL     1       1.582   6.321  18.386  0.00  0.00    +0.000 S 
ATOM     13  C   UNL     1       3.187   7.107  18.035  0.00  0.00    +0.000 C 
ENDROOT
BRANCH   1  14
ATOM     14  O   UNL     1       5.597   7.143  15.860  0.00  0.00    +0.000 OA
ATOM     15  H   UNL     1       5.955   6.704  15.067  0.00  0.00    +0.000 HD
ENDBRANCH   1  14
BRANCH   5  16
ATOM     16  C   UNL     1       7.224   4.731  16.225  0.00  0.00    +0.000 C 
BRANCH  16  17
ATOM     17  C   UNL     1       7.034   4.490  14.745  0.00  0.00    +0.000 A 
ATOM     18  C   UNL     1       7.829   5.172  13.811  0.00  0.00    +0.000 A 
ATOM     19  C   UNL     1       7.587   5.043  12.443  0.00  0.00    +0.000 A 
ATOM     20  C   UNL     1       6.561   4.215  11.992  0.00  0.00    +0.000 A 
ATOM     21  C   UNL     1       5.792   3.499  12.907  0.00  0.00    +0.000 A 
ATOM     22  C   UNL     1       6.026   3.633  14.277  0.00  0.00    +0.000 A 
ENDBRANCH  16  17
ENDBRANCH   5  16
TORSDOF 3
ENDMDL
MODEL 6
REMARK VINA RESULT:      -7.0      2.980      7.049
REMARK  Name = 
REMARK  3 active torsions:
REMARK  status: ('A' for Active; 'I' for Inactive)
REMARK    1  A    between atoms: O_1  and  C_2
REMARK    2  A    between atoms: N_6  and  C_7
REMARK    3  A    between atoms: C_7  and  C_8
REMARK                            x       y       z     vdW  Elec       q    Type
REMARK                         _______ _______ _______ _____ _____    ______ ____
ROOT
ATOM      1  C   UNL     1       1.506   8.112  19.948  0.00  0.00    +0.000 A 
ATOM      2  C   UNL     1       2.241   7.002  19.599  0.00  0.00    +0.000 A 
ATOM      3  C   UNL     1       2.832   7.320  18.346  0.00  0.00    +0.000 A 
ATOM      4  N   UNL     1       2.541   8.573  17.965  0.00  0.00    +0.000 NA
ATOM      5  N   UNL     1       1.765   9.045  18.974  0.00  0.00    +0.000 N 
ATOM      6  C   UNL     1       3.656   6.384  17.580  0.00  0.00    +0.000 A 
ATOM      7  C   UNL     1       4.491   6.823  16.543  0.00  0.00    +0.000 A 
ATOM      8  C   UNL     1       5.284   5.912  15.837  0.00  0.00    +0.000 A 
ATOM      9  C   UNL     1       5.242   4.555  16.155  0.00  0.00    +0.000 A 
ATOM     10  C   UNL     1       4.404   4.101  17.176  0.00  0.00    +0.000 A 
ATOM     11  C   UNL     1       3.617   5.007  17.898  0.00  0.00    +0.000 A 
ATOM     12  S   UNL     1       2.551   4.316  19.176  0.00  0.00    +0.000 S 
ATOM     13  C   UNL     1       2.470   5.732  20.317  0.00  0.00    +0.000 C 
ENDROOT
BRANCH   1  14
ATOM     14  O   UNL     1       0.719   8.383  20.984  0.00  0.00    +0.000 OA
ATOM     15  H   UNL     1      -0.205   8.332  20.680  0.00  0.00    +0.000 HD
ENDBRANCH   1  14
BRANCH   5  16
ATOM     16  C   UNL     1       1.340  10.442  18.991  0.00  0.00    +0.000 C 
BRANCH  16  17
ATOM     17  C   UNL     1      -0.135  10.556  18.680  0.00  0.00    +0.000 A 
ATOM     18  C   UNL     1      -0.696   9.807  17.634  0.00  0.00    +0.000 A 
ATOM     19  C   UNL     1      -2.030   9.989  17.267  0.00  0.00    +0.000 A 
ATOM     20  C   UNL     1      -2.823  10.906  17.952  0.00  0.00    +0.000 A 
ATOM     21  C   UNL     1      -2.290  11.626  19.020  0.00  0.00    +0.000 A 
ATOM     22  C   UNL     1      -0.953  11.453  19.385  0.00  0.00    +0.000 A 
ENDBRANCH  16  17
ENDBRANCH   5  16
TORSDOF 3
ENDMDL
MODEL 7
REMARK VINA RESULT:      -7.0      2.580      6.171
REMARK  Name = 
REMARK  3 active torsions:
REMARK  status: ('A' for Active; 'I' for Inactive)
REMARK    1  A    between atoms: O_1  and  C_2
REMARK    2  A    between atoms: N_6  and  C_7
REMARK    3  A    between atoms: C_7  and  C_8
REMARK                            x       y       z     vdW  Elec       q    Type
REMARK                         _______ _______ _______ _____ _____    ______ ____
ROOT
ATOM      1  C   UNL     1       2.107   9.538  18.113  0.00  0.00    +0.000 A 
ATOM      2  C   UNL     1       2.558   8.238  18.080  0.00  0.00    +0.000 A 
ATOM      3  C   UNL     1       2.077   7.641  19.276  0.00  0.00    +0.000 A 
ATOM      4  N   UNL     1       1.317   8.491  19.982  0.00  0.00    +0.000 NA
ATOM      5  N   UNL     1       1.320   9.625  19.235  0.00  0.00    +0.000 N 
ATOM      6  C   UNL     1       2.380   6.265  19.672  0.00  0.00    +0.000 A 
ATOM      7  C   UNL     1       1.631   5.604  20.656  0.00  0.00    +0.000 A 
ATOM      8  C   UNL     1       1.929   4.283  21.004  0.00  0.00    +0.000 A 
ATOM      9  C   UNL     1       2.981   3.615  20.381  0.00  0.00    +0.000 A 
ATOM     10  C   UNL     1       3.745   4.265  19.409  0.00  0.00    +0.000 A 
ATOM     11  C   UNL     1       3.447   5.583  19.043  0.00  0.00    +0.000 A 
ATOM     12  S   UNL     1       4.510   6.340  17.801  0.00  0.00    +0.000 S 
ATOM     13  C   UNL     1       3.336   7.513  17.054  0.00  0.00    +0.000 C 
ENDROOT
BRANCH   1  14
ATOM     14  O   UNL     1       2.273  10.572  17.293  0.00  0.00    +0.000 OA
ATOM     15  H   UNL     1       2.729  10.251  16.495  0.00  0.00    +0.000 HD
ENDBRANCH   1  14
BRANCH   5  16
ATOM     16  C   UNL     1       0.489  10.764  19.612  0.00  0.00    +0.000 C 
BRANCH  16  17
ATOM     17  C   UNL     1      -0.800  10.772  18.822  0.00  0.00    +0.000 A 
ATOM     18  C   UNL     1      -1.847  11.631  19.188  0.00  0.00    +0.000 A 
ATOM     19  C   UNL     1      -3.079  11.566  18.537  0.00  0.00    +0.000 A 
ATOM     20  C   UNL     1      -3.273  10.657  17.500  0.00  0.00    +0.000 A 
ATOM     21  C   UNL     1      -2.228   9.827  17.098  0.00  0.00    +0.000 A 
ATOM     22  C   UNL     1      -0.995   9.883  17.753  0.00  0.00    +0.000 A 
ENDBRANCH  16  17
ENDBRANCH   5  16
TORSDOF 3
ENDMDL
MODEL 8
REMARK VINA RESULT:      -7.0      2.911      6.874
REMARK  Name = 
REMARK  3 active torsions:
REMARK  status: ('A' for Active; 'I' for Inactive)
REMARK    1  A    between atoms: O_1  and  C_2
REMARK    2  A    between atoms: N_6  and  C_7
REMARK    3  A    between atoms: C_7  and  C_8
REMARK                            x       y       z     vdW  Elec       q    Type
REMARK                         _______ _______ _______ _____ _____    ______ ____
ROOT
ATOM      1  C   UNL     1       1.159   8.002  20.409  0.00  0.00    +0.000 A 
ATOM      2  C   UNL     1       1.894   6.913  19.998  0.00  0.00    +0.000 A 
ATOM      3  C   UNL     1       2.521   7.316  18.788  0.00  0.00    +0.000 A 
ATOM      4  N   UNL     1       2.250   8.596  18.492  0.00  0.00    +0.000 NA
ATOM      5  N   UNL     1       1.451   9.001  19.513  0.00  0.00    +0.000 N 
ATOM      6  C   UNL     1       3.358   6.430  17.977  0.00  0.00    +0.000 A 
ATOM      7  C   UNL     1       4.223   6.935  16.997  0.00  0.00    +0.000 A 
ATOM      8  C   UNL     1       5.027   6.070  16.248  0.00  0.00    +0.000 A 
ATOM      9  C   UNL     1       4.965   4.694  16.464  0.00  0.00    +0.000 A 
ATOM     10  C   UNL     1       4.097   4.175  17.427  0.00  0.00    +0.000 A 
ATOM     11  C   UNL     1       3.298   5.034  18.193  0.00  0.00    +0.000 A 
ATOM     12  S   UNL     1       2.193   4.262  19.387  0.00  0.00    +0.000 S 
ATOM     13  C   UNL     1       2.093   5.591  20.627  0.00  0.00    +0.000 C 
ENDROOT
BRANCH   1  14
ATOM     14  O   UNL     1       0.346   8.204  21.441  0.00  0.00    +0.000 OA
ATOM     15  H   UNL     1       0.841   8.695  22.121  0.00  0.00    +0.000 HD
ENDBRANCH   1  14
BRANCH   5  16
ATOM     16  C   UNL     1       1.037  10.396  19.621  0.00  0.00    +0.000 C 
BRANCH  16  17
ATOM     17  C   UNL     1      -0.292  10.616  18.935  0.00  0.00    +0.000 A 
ATOM     18  C   UNL     1      -1.222  11.520  19.469  0.00  0.00    +0.000 A 
ATOM     19  C   UNL     1      -2.493  11.646  18.909  0.00  0.00    +0.000 A 
ATOM     20  C   UNL     1      -2.842  10.885  17.795  0.00  0.00    +0.000 A 
ATOM     21  C   UNL     1      -1.914  10.014  17.228  0.00  0.00    +0.000 A 
ATOM     22  C   UNL     1      -0.643   9.879  17.792  0.00  0.00    +0.000 A 
ENDBRANCH  16  17
ENDBRANCH   5  16
TORSDOF 3
ENDMDL
MODEL 9
REMARK VINA RESULT:      -6.9      4.909      7.249
REMARK  Name = 
REMARK  3 active torsions:
REMARK  status: ('A' for Active; 'I' for Inactive)
REMARK    1  A    between atoms: O_1  and  C_2
REMARK    2  A    between atoms: N_6  and  C_7
REMARK    3  A    between atoms: C_7  and  C_8
REMARK                            x       y       z     vdW  Elec       q    Type
REMARK                         _______ _______ _______ _____ _____    ______ ____
ROOT
ATOM      1  C   UNL     1       5.134   6.119  16.067  0.00  0.00    +0.000 A 
ATOM      2  C   UNL     1       4.362   5.966  17.197  0.00  0.00    +0.000 A 
ATOM      3  C   UNL     1       4.628   4.649  17.660  0.00  0.00    +0.000 A 
ATOM      4  N   UNL     1       5.556   4.038  16.908  0.00  0.00    +0.000 NA
ATOM      5  N   UNL     1       5.874   4.966  15.970  0.00  0.00    +0.000 N 
ATOM      6  C   UNL     1       3.964   4.049  18.818  0.00  0.00    +0.000 A 
ATOM      7  C   UNL     1       4.479   2.907  19.447  0.00  0.00    +0.000 A 
ATOM      8  C   UNL     1       3.836   2.363  20.563  0.00  0.00    +0.000 A 
ATOM      9  C   UNL     1       2.670   2.948  21.054  0.00  0.00    +0.000 A 
ATOM     10  C   UNL     1       2.138   4.078  20.429  0.00  0.00    +0.000 A 
ATOM     11  C   UNL     1       2.780   4.639  19.319  0.00  0.00    +0.000 A 
ATOM     12  S   UNL     1       1.997   6.077  18.569  0.00  0.00    +0.000 S 
ATOM     13  C   UNL     1       3.462   6.913  17.886  0.00  0.00    +0.000 C 
ENDROOT
BRANCH   1  14
ATOM     14  O   UNL     1       5.272   7.115  15.198  0.00  0.00    +0.000 OA
ATOM     15  H   UNL     1       4.388   7.345  14.861  0.00  0.00    +0.000 HD
ENDBRANCH   1  14
BRANCH   5  16
ATOM     16  C   UNL     1       6.957   4.722  15.022  0.00  0.00    +0.000 C 
BRANCH  16  17
ATOM     17  C   UNL     1       6.422   4.140  13.734  0.00  0.00    +0.000 A 
ATOM     18  C   UNL     1       5.043   3.929  13.574  0.00  0.00    +0.000 A 
ATOM     19  C   UNL     1       4.550   3.289  12.437  0.00  0.00    +0.000 A 
ATOM     20  C   UNL     1       5.426   2.870  11.438  0.00  0.00    +0.000 A 
ATOM     21  C   UNL     1       6.793   3.111  11.564  0.00  0.00    +0.000 A 
ATOM     22  C   UNL     1       7.291   3.743  12.706  0.00  0.00    +0.000 A 
ENDBRANCH  16  17
ENDBRANCH   5  16
TORSDOF 3
ENDMDL
