MODEL 1
REMARK VINA RESULT:      -7.9      0.000      0.000
REMARK  Name = 
REMARK  7 active torsions:
REMARK  status: ('A' for Active; 'I' for Inactive)
REMARK    1  A    between atoms: C_1  and  N_2
REMARK    2  A    between atoms: N_2  and  C_3
REMARK    3  A    between atoms: C_3  and  C_4
REMARK    4  A    between atoms: N_9  and  C_10
REMARK    5  A    between atoms: C_10  and  C_11
REMARK    6  A    between atoms: C_19  and  C_21
REMARK    7  A    between atoms: C_21  and  C_22
REMARK                            x       y       z     vdW  Elec       q    Type
REMARK                         _______ _______ _______ _____ _____    ______ ____
ROOT
ATOM      1  C   UNL     1       2.641   6.141  20.137  0.00  0.00    +0.000 C 
ENDROOT
BRANCH   1   2
ATOM      2  C   UNL     1       2.159   7.444  19.426  0.00  0.00    +0.000 C 
ATOM      3  O   UNL     1       2.550   7.707  18.286  0.00  0.00    +0.000 OA
ATOM      4  N   UNL     1       1.237   8.248  20.079  0.00  0.00    +0.000 N 
ATOM      5  C   UNL     1       0.855   8.081  21.460  0.00  0.00    +0.000 C 
ATOM      6  C   UNL     1       1.406   9.275  22.277  0.00  0.00    +0.000 C 
ATOM      7  N   UNL     1       0.781  10.548  21.855  0.00  0.00    +0.000 NA
ATOM      8  C   UNL     1       1.029  10.724  20.395  0.00  0.00    +0.000 C 
ATOM      9  C   UNL     1       0.718   9.496  19.496  0.00  0.00    +0.000 C 
BRANCH   7  10
ATOM     10  C   UNL     1      -0.631  10.510  22.253  0.00  0.00    +0.000 C 
BRANCH  10  11
ATOM     11  C   UNL     1      -1.247  11.804  22.689  0.00  0.00    +0.000 A 
ATOM     12  C   UNL     1      -2.504  11.784  23.318  0.00  0.00    +0.000 A 
ATOM     13  C   UNL     1      -3.054  12.957  23.815  0.00  0.00    +0.000 A 
ATOM     14  C   UNL     1      -2.353  14.155  23.683  0.00  0.00    +0.000 A 
ATOM     15  C   UNL     1      -1.114  14.190  23.055  0.00  0.00    +0.000 A 
ATOM     16  C   UNL     1      -0.554  13.010  22.551  0.00  0.00    +0.000 A 
ENDBRANCH  10  11
ENDBRANCH   7  10
ENDBRANCH   1   2
BRANCH   1  18
ATOM     17  C   UNL     1       1.106   4.289  19.196  0.00  0.00    +0.000 C 
ATOM     18  N   UNL     1       2.426   4.809  19.534  0.00  0.00    +0.000 N 
ATOM     19  C   UNL     1       3.405   3.853  19.339  0.00  0.00    +0.000 C 
ATOM     20  O   UNL     1       3.051   2.710  19.017  0.00  0.00    +0.000 OA
BRANCH  19  21
ATOM     21  C   UNL     1       4.873   4.210  19.467  0.00  0.00    +0.000 C 
BRANCH  21  22
ATOM     22  C   UNL     1       5.462   4.731  18.127  0.00  0.00    +0.000 C 
ATOM     23  C   UNL     1       4.631   4.198  16.921  0.00  0.00    +0.000 C 
ATOM     24  C   UNL     1       5.196   4.726  15.598  0.00  0.00    +0.000 C 
ATOM     25  C   UNL     1       5.114   6.260  15.603  0.00  0.00    +0.000 C 
ATOM     26  C   UNL     1       5.942   6.826  16.767  0.00  0.00    +0.000 C 
ATOM     27  C   UNL     1       7.408   6.391  16.600  0.00  0.00    +0.000 C 
ATOM     28  C   UNL     1       7.502   4.864  16.613  0.00  0.00    +0.000 C 
ATOM     29  C   UNL     1       6.663   4.281  15.466  0.00  0.00    +0.000 C 
ATOM     30  C   UNL     1       6.961   4.354  17.954  0.00  0.00    +0.000 C 
ATOM     31  C   UNL     1       5.388   6.282  18.099  0.00  0.00    +0.000 C 
ENDBRANCH  21  22
ENDBRANCH  19  21
ENDBRANCH   1  18
TORSDOF 6
ENDMDL
MODEL 2
REMARK VINA RESULT:      -7.8      0.306      1.352
REMARK  Name = 
REMARK  7 active torsions:
REMARK  status: ('A' for Active; 'I' for Inactive)
REMARK    1  A    between atoms: C_1  and  N_2
REMARK    2  A    between atoms: N_2  and  C_3
REMARK    3  A    between atoms: C_3  and  C_4
REMARK    4  A    between atoms: N_9  and  C_10
REMARK    5  A    between atoms: C_10  and  C_11
REMARK    6  A    between atoms: C_19  and  C_21
REMARK    7  A    between atoms: C_21  and  C_22
REMARK                            x       y       z     vdW  Elec       q    Type
REMARK                         _______ _______ _______ _____ _____    ______ ____
ROOT
ATOM      1  C   UNL     1       2.391   6.219  20.428  0.00  0.00    +0.000 C 
ENDROOT
BRANCH   1   2
ATOM      2  C   UNL     1       2.029   7.543  19.687  0.00  0.00    +0.000 C 
ATOM      3  O   UNL     1       2.533   7.795  18.590  0.00  0.00    +0.000 OA
ATOM      4  N   UNL     1       1.084   8.382  20.260  0.00  0.00    +0.000 N 
ATOM      5  C   UNL     1       0.570   8.224  21.599  0.00  0.00    +0.000 C 
ATOM      6  C   UNL     1       1.093   9.391  22.472  0.00  0.00    +0.000 C 
ATOM      7  N   UNL     1       0.561  10.690  22.005  0.00  0.00    +0.000 NA
ATOM      8  C   UNL     1       0.948  10.862  20.576  0.00  0.00    +0.000 C 
ATOM      9  C   UNL     1       0.671   9.652  19.642  0.00  0.00    +0.000 C 
BRANCH   7  10
ATOM     10  C   UNL     1      -0.882  10.709  22.272  0.00  0.00    +0.000 C 
BRANCH  10  11
ATOM     11  C   UNL     1      -1.457  11.985  22.805  0.00  0.00    +0.000 A 
ATOM     12  C   UNL     1      -2.784  11.995  23.270  0.00  0.00    +0.000 A 
ATOM     13  C   UNL     1      -3.309  13.139  23.855  0.00  0.00    +0.000 A 
ATOM     14  C   UNL     1      -2.514  14.278  23.974  0.00  0.00    +0.000 A 
ATOM     15  C   UNL     1      -1.204  14.284  23.510  0.00  0.00    +0.000 A 
ATOM     16  C   UNL     1      -0.668  13.134  22.919  0.00  0.00    +0.000 A 
ENDBRANCH  10  11
ENDBRANCH   7  10
ENDBRANCH   1   2
BRANCH   1  18
ATOM     17  C   UNL     1       1.006   4.263  19.463  0.00  0.00    +0.000 C 
ATOM     18  N   UNL     1       2.281   4.906  19.759  0.00  0.00    +0.000 N 
ATOM     19  C   UNL     1       3.342   4.075  19.453  0.00  0.00    +0.000 C 
ATOM     20  O   UNL     1       3.092   2.919  19.083  0.00  0.00    +0.000 OA
BRANCH  19  21
ATOM     21  C   UNL     1       4.769   4.583  19.522  0.00  0.00    +0.000 C 
BRANCH  21  22
ATOM     22  C   UNL     1       5.342   4.896  18.112  0.00  0.00    +0.000 C 
ATOM     23  C   UNL     1       5.280   6.426  17.825  0.00  0.00    +0.000 C 
ATOM     24  C   UNL     1       5.864   6.743  16.444  0.00  0.00    +0.000 C 
ATOM     25  C   UNL     1       7.335   6.303  16.415  0.00  0.00    +0.000 C 
ATOM     26  C   UNL     1       7.436   4.791  16.672  0.00  0.00    +0.000 C 
ATOM     27  C   UNL     1       6.656   4.043  15.578  0.00  0.00    +0.000 C 
ATOM     28  C   UNL     1       5.183   4.460  15.610  0.00  0.00    +0.000 C 
ATOM     29  C   UNL     1       5.067   5.974  15.375  0.00  0.00    +0.000 C 
ATOM     30  C   UNL     1       4.608   4.110  16.988  0.00  0.00    +0.000 C 
ATOM     31  C   UNL     1       6.833   4.467  18.054  0.00  0.00    +0.000 C 
ENDBRANCH  21  22
ENDBRANCH  19  21
ENDBRANCH   1  18
TORSDOF 6
ENDMDL
MODEL 3
REMARK VINA RESULT:      -7.6      6.176      8.277
REMARK  Name = 
REMARK  7 active torsions:
REMARK  status: ('A' for Active; 'I' for Inactive)
REMARK    1  A    between atoms: C_1  and  N_2
REMARK    2  A    between atoms: N_2  and  C_3
REMARK    3  A    between atoms: C_3  and  C_4
REMARK    4  A    between atoms: N_9  and  C_10
REMARK    5  A    between atoms: C_10  and  C_11
REMARK    6  A    between atoms: C_19  and  C_21
REMARK    7  A    between atoms: C_21  and  C_22
REMARK                            x       y       z     vdW  Elec       q    Type
REMARK                         _______ _______ _______ _____ _____    ______ ____
ROOT
ATOM      1  C   UNL     1       5.475  15.073  18.882  0.00  0.00    +0.000 C 
ENDROOT
BRANCH   1   2
ATOM      2  C   UNL     1       4.072  15.755  18.863  0.00  0.00    +0.000 C 
ATOM      3  O   UNL     1       3.968  16.945  18.562  0.00  0.00    +0.000 OA
ATOM      4  N   UNL     1       2.956  14.972  19.124  0.00  0.00    +0.000 N 
ATOM      5  C   UNL     1       3.016  13.621  19.624  0.00  0.00    +0.000 C 
ATOM      6  C   UNL     1       2.483  13.605  21.078  0.00  0.00    +0.000 C 
ATOM      7  N   UNL     1       1.051  13.972  21.128  0.00  0.00    +0.000 NA
ATOM      8  C   UNL     1       0.896  15.317  20.505  0.00  0.00    +0.000 C 
ATOM      9  C   UNL     1       1.589  15.517  19.129  0.00  0.00    +0.000 C 
BRANCH   7  10
ATOM     10  C   UNL     1       0.287  12.892  20.493  0.00  0.00    +0.000 C 
BRANCH  10  11
ATOM     11  C   UNL     1       0.101  11.635  21.286  0.00  0.00    +0.000 A 
ATOM     12  C   UNL     1      -0.713  11.664  22.431  0.00  0.00    +0.000 A 
ATOM     13  C   UNL     1      -0.977  10.493  23.130  0.00  0.00    +0.000 A 
ATOM     14  C   UNL     1      -0.426   9.291  22.689  0.00  0.00    +0.000 A 
ATOM     15  C   UNL     1       0.388   9.251  21.564  0.00  0.00    +0.000 A 
ATOM     16  C   UNL     1       0.658  10.427  20.855  0.00  0.00    +0.000 A 
ENDBRANCH  10  11
ENDBRANCH   7  10
ENDBRANCH   1   2
BRANCH   1  18
ATOM     17  C   UNL     1       6.272  16.098  21.116  0.00  0.00    +0.000 C 
ATOM     18  N   UNL     1       6.540  15.526  19.801  0.00  0.00    +0.000 N 
ATOM     19  C   UNL     1       7.886  15.591  19.493  0.00  0.00    +0.000 C 
ATOM     20  O   UNL     1       8.638  16.183  20.280  0.00  0.00    +0.000 OA
BRANCH  19  21
ATOM     21  C   UNL     1       8.430  14.914  18.250  0.00  0.00    +0.000 C 
BRANCH  21  22
ATOM     22  C   UNL     1       9.323  13.691  18.601  0.00  0.00    +0.000 C 
ATOM     23  C   UNL     1       8.986  13.160  20.026  0.00  0.00    +0.000 C 
ATOM     24  C   UNL     1       9.850  11.940  20.368  0.00  0.00    +0.000 C 
ATOM     25  C   UNL     1       9.555  10.826  19.354  0.00  0.00    +0.000 C 
ATOM     26  C   UNL     1       9.898  11.305  17.934  0.00  0.00    +0.000 C 
ATOM     27  C   UNL     1      11.390  11.673  17.874  0.00  0.00    +0.000 C 
ATOM     28  C   UNL     1      11.690  12.796  18.869  0.00  0.00    +0.000 C 
ATOM     29  C   UNL     1      11.333  12.340  20.292  0.00  0.00    +0.000 C 
ATOM     30  C   UNL     1      10.840  14.017  18.494  0.00  0.00    +0.000 C 
ATOM     31  C   UNL     1       9.043  12.543  17.594  0.00  0.00    +0.000 C 
ENDBRANCH  21  22
ENDBRANCH  19  21
ENDBRANCH   1  18
TORSDOF 6
ENDMDL
MODEL 4
REMARK VINA RESULT:      -7.6      0.954      2.005
REMARK  Name = 
REMARK  7 active torsions:
REMARK  status: ('A' for Active; 'I' for Inactive)
REMARK    1  A    between atoms: C_1  and  N_2
REMARK    2  A    between atoms: N_2  and  C_3
REMARK    3  A    between atoms: C_3  and  C_4
REMARK    4  A    between atoms: N_9  and  C_10
REMARK    5  A    between atoms: C_10  and  C_11
REMARK    6  A    between atoms: C_19  and  C_21
REMARK    7  A    between atoms: C_21  and  C_22
REMARK                            x       y       z     vdW  Elec       q    Type
REMARK                         _______ _______ _______ _____ _____    ______ ____
ROOT
ATOM      1  C   UNL     1       2.795   7.174  19.678  0.00  0.00    +0.000 C 
ENDROOT
BRANCH   1   2
ATOM      2  C   UNL     1       1.812   8.222  19.069  0.00  0.00    +0.000 C 
ATOM      3  O   UNL     1       1.793   8.417  17.852  0.00  0.00    +0.000 OA
ATOM      4  N   UNL     1       0.925   8.865  19.920  0.00  0.00    +0.000 N 
ATOM      5  C   UNL     1       0.993   8.796  21.360  0.00  0.00    +0.000 C 
ATOM      6  C   UNL     1       1.411  10.183  21.905  0.00  0.00    +0.000 C 
ATOM      7  N   UNL     1       0.383  11.206  21.616  0.00  0.00    +0.000 NA
ATOM      8  C   UNL     1       0.167  11.241  20.141  0.00  0.00    +0.000 C 
ATOM      9  C   UNL     1      -0.043   9.867  19.447  0.00  0.00    +0.000 C 
BRANCH   7  10
ATOM     10  C   UNL     1      -0.805  10.890  22.417  0.00  0.00    +0.000 C 
BRANCH  10  11
ATOM     11  C   UNL     1      -1.547  12.045  23.016  0.00  0.00    +0.000 A 
ATOM     12  C   UNL     1      -0.931  13.308  23.051  0.00  0.00    +0.000 A 
ATOM     13  C   UNL     1      -1.632  14.413  23.514  0.00  0.00    +0.000 A 
ATOM     14  C   UNL     1      -2.948  14.262  23.946  0.00  0.00    +0.000 A 
ATOM     15  C   UNL     1      -3.565  13.016  23.925  0.00  0.00    +0.000 A 
ATOM     16  C   UNL     1      -2.865  11.898  23.460  0.00  0.00    +0.000 A 
ENDBRANCH  10  11
ENDBRANCH   7  10
ENDBRANCH   1   2
BRANCH   1  18
ATOM     17  C   UNL     1       1.847   5.111  20.910  0.00  0.00    +0.000 C 
ATOM     18  N   UNL     1       2.451   5.738  19.740  0.00  0.00    +0.000 N 
ATOM     19  C   UNL     1       2.769   4.799  18.777  0.00  0.00    +0.000 C 
ATOM     20  O   UNL     1       2.604   3.602  19.051  0.00  0.00    +0.000 OA
BRANCH  19  21
ATOM     21  C   UNL     1       3.258   5.228  17.408  0.00  0.00    +0.000 C 
BRANCH  21  22
ATOM     22  C   UNL     1       4.799   5.420  17.377  0.00  0.00    +0.000 C 
ATOM     23  C   UNL     1       5.434   4.958  18.723  0.00  0.00    +0.000 C 
ATOM     24  C   UNL     1       6.957   5.125  18.689  0.00  0.00    +0.000 C 
ATOM     25  C   UNL     1       7.526   4.253  17.561  0.00  0.00    +0.000 C 
ATOM     26  C   UNL     1       6.940   4.695  16.210  0.00  0.00    +0.000 C 
ATOM     27  C   UNL     1       7.311   6.166  15.958  0.00  0.00    +0.000 C 
ATOM     28  C   UNL     1       6.732   7.046  17.069  0.00  0.00    +0.000 C 
ATOM     29  C   UNL     1       7.294   6.604  18.429  0.00  0.00    +0.000 C 
ATOM     30  C   UNL     1       5.207   6.889  17.068  0.00  0.00    +0.000 C 
ATOM     31  C   UNL     1       5.405   4.545  16.247  0.00  0.00    +0.000 C 
ENDBRANCH  21  22
ENDBRANCH  19  21
ENDBRANCH   1  18
TORSDOF 6
ENDMDL
MODEL 5
REMARK VINA RESULT:      -7.6      3.079      5.167
REMARK  Name = 
REMARK  7 active torsions:
REMARK  status: ('A' for Active; 'I' for Inactive)
REMARK    1  A    between atoms: C_1  and  N_2
REMARK    2  A    between atoms: N_2  and  C_3
REMARK    3  A    between atoms: C_3  and  C_4
REMARK    4  A    between atoms: N_9  and  C_10
REMARK    5  A    between atoms: C_10  and  C_11
REMARK    6  A    between atoms: C_19  and  C_21
REMARK    7  A    between atoms: C_21  and  C_22
REMARK                            x       y       z     vdW  Elec       q    Type
REMARK                         _______ _______ _______ _____ _____    ______ ____
ROOT
ATOM      1  C   UNL     1       1.623   8.637  20.349  0.00  0.00    +0.000 C 
ENDROOT
BRANCH   1   2
ATOM      2  C   UNL     1       0.314   9.356  20.802  0.00  0.00    +0.000 C 
ATOM      3  O   UNL     1      -0.640   8.696  21.220  0.00  0.00    +0.000 OA
ATOM      4  N   UNL     1       0.284  10.743  20.784  0.00  0.00    +0.000 N 
ATOM      5  C   UNL     1       1.300  11.564  20.173  0.00  0.00    +0.000 C 
ATOM      6  C   UNL     1       0.700  12.246  18.919  0.00  0.00    +0.000 C 
ATOM      7  N   UNL     1      -0.385  13.183  19.286  0.00  0.00    +0.000 NA
ATOM      8  C   UNL     1      -1.420  12.419  20.040  0.00  0.00    +0.000 C 
ATOM      9  C   UNL     1      -0.899  11.516  21.192  0.00  0.00    +0.000 C 
BRANCH   7  10
ATOM     10  C   UNL     1       0.216  14.309  20.009  0.00  0.00    +0.000 C 
BRANCH  10  11
ATOM     11  C   UNL     1       0.449  15.568  19.231  0.00  0.00    +0.000 A 
ATOM     12  C   UNL     1       1.765  15.931  18.897  0.00  0.00    +0.000 A 
ATOM     13  C   UNL     1       2.000  17.041  18.096  0.00  0.00    +0.000 A 
ATOM     14  C   UNL     1       0.923  17.794  17.631  0.00  0.00    +0.000 A 
ATOM     15  C   UNL     1      -0.382  17.451  17.962  0.00  0.00    +0.000 A 
ATOM     16  C   UNL     1      -0.626  16.333  18.768  0.00  0.00    +0.000 A 
ENDBRANCH  10  11
ENDBRANCH   7  10
ENDBRANCH   1   2
BRANCH   1  18
ATOM     17  C   UNL     1       1.295   9.107  17.830  0.00  0.00    +0.000 C 
ATOM     18  N   UNL     1       1.893   8.350  18.925  0.00  0.00    +0.000 N 
ATOM     19  C   UNL     1       2.620   7.275  18.450  0.00  0.00    +0.000 C 
ATOM     20  O   UNL     1       2.592   7.041  17.234  0.00  0.00    +0.000 OA
BRANCH  19  21
ATOM     21  C   UNL     1       3.465   6.437  19.389  0.00  0.00    +0.000 C 
BRANCH  21  22
ATOM     22  C   UNL     1       2.888   5.005  19.567  0.00  0.00    +0.000 C 
ATOM     23  C   UNL     1       4.039   3.972  19.762  0.00  0.00    +0.000 C 
ATOM     24  C   UNL     1       3.473   2.562  19.959  0.00  0.00    +0.000 C 
ATOM     25  C   UNL     1       2.595   2.552  21.218  0.00  0.00    +0.000 C 
ATOM     26  C   UNL     1       1.432   3.544  21.054  0.00  0.00    +0.000 C 
ATOM     27  C   UNL     1       0.588   3.132  19.837  0.00  0.00    +0.000 C 
ATOM     28  C   UNL     1       1.450   3.156  18.573  0.00  0.00    +0.000 C 
ATOM     29  C   UNL     1       2.629   2.184  18.729  0.00  0.00    +0.000 C 
ATOM     30  C   UNL     1       1.983   4.580  18.375  0.00  0.00    +0.000 C 
ATOM     31  C   UNL     1       1.998   4.962  20.838  0.00  0.00    +0.000 C 
ENDBRANCH  21  22
ENDBRANCH  19  21
ENDBRANCH   1  18
TORSDOF 6
ENDMDL
MODEL 6
REMARK VINA RESULT:      -7.6      2.174      3.004
REMARK  Name = 
REMARK  7 active torsions:
REMARK  status: ('A' for Active; 'I' for Inactive)
REMARK    1  A    between atoms: C_1  and  N_2
REMARK    2  A    between atoms: N_2  and  C_3
REMARK    3  A    between atoms: C_3  and  C_4
REMARK    4  A    between atoms: N_9  and  C_10
REMARK    5  A    between atoms: C_10  and  C_11
REMARK    6  A    between atoms: C_19  and  C_21
REMARK    7  A    between atoms: C_21  and  C_22
REMARK                            x       y       z     vdW  Elec       q    Type
REMARK                         _______ _______ _______ _____ _____    ______ ____
ROOT
ATOM      1  C   UNL     1       2.191   5.551  18.595  0.00  0.00    +0.000 C 
ENDROOT
BRANCH   1   2
ATOM      2  C   UNL     1       1.768   6.382  19.846  0.00  0.00    +0.000 C 
ATOM      3  O   UNL     1       1.404   5.808  20.874  0.00  0.00    +0.000 OA
ATOM      4  N   UNL     1       1.879   7.764  19.787  0.00  0.00    +0.000 N 
ATOM      5  C   UNL     1       2.153   8.501  18.577  0.00  0.00    +0.000 C 
ATOM      6  C   UNL     1       0.886   9.299  18.185  0.00  0.00    +0.000 C 
ATOM      7  N   UNL     1       0.564  10.327  19.199  0.00  0.00    +0.000 NA
ATOM      8  C   UNL     1       0.393   9.643  20.513  0.00  0.00    +0.000 C 
ATOM      9  C   UNL     1       1.509   8.638  20.911  0.00  0.00    +0.000 C 
BRANCH   7  10
ATOM     10  C   UNL     1       1.616  11.350  19.154  0.00  0.00    +0.000 C 
BRANCH  10  11
ATOM     11  C   UNL     1       1.173  12.773  19.008  0.00  0.00    +0.000 A 
ATOM     12  C   UNL     1      -0.146  13.116  19.350  0.00  0.00    +0.000 A 
ATOM     13  C   UNL     1      -0.553  14.443  19.313  0.00  0.00    +0.000 A 
ATOM     14  C   UNL     1       0.353  15.431  18.931  0.00  0.00    +0.000 A 
ATOM     15  C   UNL     1       1.658  15.103  18.581  0.00  0.00    +0.000 A 
ATOM     16  C   UNL     1       2.075  13.767  18.616  0.00  0.00    +0.000 A 
ENDBRANCH  10  11
ENDBRANCH   7  10
ENDBRANCH   1   2
BRANCH   1  18
ATOM     17  C   UNL     1       1.281   3.147  18.335  0.00  0.00    +0.000 C 
ATOM     18  N   UNL     1       2.351   4.083  18.662  0.00  0.00    +0.000 N 
ATOM     19  C   UNL     1       3.459   3.422  19.158  0.00  0.00    +0.000 C 
ATOM     20  O   UNL     1       3.376   2.201  19.348  0.00  0.00    +0.000 OA
BRANCH  19  21
ATOM     21  C   UNL     1       4.754   4.167  19.416  0.00  0.00    +0.000 C 
BRANCH  21  22
ATOM     22  C   UNL     1       5.391   4.694  18.099  0.00  0.00    +0.000 C 
ATOM     23  C   UNL     1       5.096   6.213  17.918  0.00  0.00    +0.000 C 
ATOM     24  C   UNL     1       5.740   6.741  16.632  0.00  0.00    +0.000 C 
ATOM     25  C   UNL     1       7.261   6.551  16.727  0.00  0.00    +0.000 C 
ATOM     26  C   UNL     1       7.595   5.058  16.882  0.00  0.00    +0.000 C 
ATOM     27  C   UNL     1       7.057   4.293  15.662  0.00  0.00    +0.000 C 
ATOM     28  C   UNL     1       5.539   4.461  15.570  0.00  0.00    +0.000 C 
ATOM     29  C   UNL     1       5.187   5.950  15.434  0.00  0.00    +0.000 C 
ATOM     30  C   UNL     1       4.909   3.901  16.851  0.00  0.00    +0.000 C 
ATOM     31  C   UNL     1       6.932   4.520  18.167  0.00  0.00    +0.000 C 
ENDBRANCH  21  22
ENDBRANCH  19  21
ENDBRANCH   1  18
TORSDOF 6
ENDMDL
MODEL 7
REMARK VINA RESULT:      -7.5      2.392      3.074
REMARK  Name = 
REMARK  7 active torsions:
REMARK  status: ('A' for Active; 'I' for Inactive)
REMARK    1  A    between atoms: C_1  and  N_2
REMARK    2  A    between atoms: N_2  and  C_3
REMARK    3  A    between atoms: C_3  and  C_4
REMARK    4  A    between atoms: N_9  and  C_10
REMARK    5  A    between atoms: C_10  and  C_11
REMARK    6  A    between atoms: C_19  and  C_21
REMARK    7  A    between atoms: C_21  and  C_22
REMARK                            x       y       z     vdW  Elec       q    Type
REMARK                         _______ _______ _______ _____ _____    ______ ____
ROOT
ATOM      1  C   UNL     1       2.014   5.292  18.500  0.00  0.00    +0.000 C 
ENDROOT
BRANCH   1   2
ATOM      2  C   UNL     1       1.752   6.238  19.713  0.00  0.00    +0.000 C 
ATOM      3  O   UNL     1       1.438   5.766  20.808  0.00  0.00    +0.000 OA
ATOM      4  N   UNL     1       1.947   7.600  19.540  0.00  0.00    +0.000 N 
ATOM      5  C   UNL     1       2.166   8.228  18.259  0.00  0.00    +0.000 C 
ATOM      6  C   UNL     1       0.926   9.085  17.908  0.00  0.00    +0.000 C 
ATOM      7  N   UNL     1       0.757  10.203  18.862  0.00  0.00    +0.000 NA
ATOM      8  C   UNL     1       0.652   9.628  20.234  0.00  0.00    +0.000 C 
ATOM      9  C   UNL     1       1.729   8.577  20.619  0.00  0.00    +0.000 C 
BRANCH   7  10
ATOM     10  C   UNL     1       1.866  11.142  18.657  0.00  0.00    +0.000 C 
BRANCH  10  11
ATOM     11  C   UNL     1       1.548  12.601  18.765  0.00  0.00    +0.000 A 
ATOM     12  C   UNL     1       2.582  13.540  18.608  0.00  0.00    +0.000 A 
ATOM     13  C   UNL     1       2.298  14.898  18.610  0.00  0.00    +0.000 A 
ATOM     14  C   UNL     1       0.981  15.325  18.771  0.00  0.00    +0.000 A 
ATOM     15  C   UNL     1      -0.050  14.407  18.937  0.00  0.00    +0.000 A 
ATOM     16  C   UNL     1       0.230  13.036  18.936  0.00  0.00    +0.000 A 
ENDBRANCH  10  11
ENDBRANCH   7  10
ENDBRANCH   1   2
BRANCH   1  18
ATOM     17  C   UNL     1       1.471   2.768  18.401  0.00  0.00    +0.000 C 
ATOM     18  N   UNL     1       2.378   3.872  18.694  0.00  0.00    +0.000 N 
ATOM     19  C   UNL     1       3.541   3.420  19.288  0.00  0.00    +0.000 C 
ATOM     20  O   UNL     1       3.623   2.217  19.573  0.00  0.00    +0.000 OA
BRANCH  19  21
ATOM     21  C   UNL     1       4.701   4.364  19.537  0.00  0.00    +0.000 C 
BRANCH  21  22
ATOM     22  C   UNL     1       5.404   4.779  18.215  0.00  0.00    +0.000 C 
ATOM     23  C   UNL     1       4.880   3.921  17.025  0.00  0.00    +0.000 C 
ATOM     24  C   UNL     1       5.556   4.341  15.715  0.00  0.00    +0.000 C 
ATOM     25  C   UNL     1       5.220   5.813  15.435  0.00  0.00    +0.000 C 
ATOM     26  C   UNL     1       5.743   6.697  16.579  0.00  0.00    +0.000 C 
ATOM     27  C   UNL     1       7.268   6.530  16.686  0.00  0.00    +0.000 C 
ATOM     28  C   UNL     1       7.612   5.068  16.983  0.00  0.00    +0.000 C 
ATOM     29  C   UNL     1       7.078   4.169  15.858  0.00  0.00    +0.000 C 
ATOM     30  C   UNL     1       6.954   4.674  18.311  0.00  0.00    +0.000 C 
ATOM     31  C   UNL     1       5.079   6.264  17.902  0.00  0.00    +0.000 C 
ENDBRANCH  21  22
ENDBRANCH  19  21
ENDBRANCH   1  18
TORSDOF 6
ENDMDL
MODEL 8
REMARK VINA RESULT:      -7.5      1.189      1.988
REMARK  Name = 
REMARK  7 active torsions:
REMARK  status: ('A' for Active; 'I' for Inactive)
REMARK    1  A    between atoms: C_1  and  N_2
REMARK    2  A    between atoms: N_2  and  C_3
REMARK    3  A    between atoms: C_3  and  C_4
REMARK    4  A    between atoms: N_9  and  C_10
REMARK    5  A    between atoms: C_10  and  C_11
REMARK    6  A    between atoms: C_19  and  C_21
REMARK    7  A    between atoms: C_21  and  C_22
REMARK                            x       y       z     vdW  Elec       q    Type
REMARK                         _______ _______ _______ _____ _____    ______ ____
ROOT
ATOM      1  C   UNL     1       2.438   7.501  19.880  0.00  0.00    +0.000 C 
ENDROOT
BRANCH   1   2
ATOM      2  C   UNL     1       1.514   8.526  19.151  0.00  0.00    +0.000 C 
ATOM      3  O   UNL     1       1.605   8.682  17.932  0.00  0.00    +0.000 OA
ATOM      4  N   UNL     1       0.554   9.194  19.898  0.00  0.00    +0.000 N 
ATOM      5  C   UNL     1       0.492   9.171  21.339  0.00  0.00    +0.000 C 
ATOM      6  C   UNL     1       0.860  10.576  21.875  0.00  0.00    +0.000 C 
ATOM      7  N   UNL     1      -0.138  11.586  21.462  0.00  0.00    +0.000 NA
ATOM      8  C   UNL     1      -0.220  11.574  19.973  0.00  0.00    +0.000 C 
ATOM      9  C   UNL     1      -0.367  10.179  19.307  0.00  0.00    +0.000 C 
BRANCH   7  10
ATOM     10  C   UNL     1      -1.394  11.293  22.162  0.00  0.00    +0.000 C 
BRANCH  10  11
ATOM     11  C   UNL     1      -1.939  12.365  23.055  0.00  0.00    +0.000 A 
ATOM     12  C   UNL     1      -1.165  13.512  23.296  0.00  0.00    +0.000 A 
ATOM     13  C   UNL     1      -1.685  14.561  24.043  0.00  0.00    +0.000 A 
ATOM     14  C   UNL     1      -2.978  14.467  24.553  0.00  0.00    +0.000 A 
ATOM     15  C   UNL     1      -3.751  13.333  24.330  0.00  0.00    +0.000 A 
ATOM     16  C   UNL     1      -3.233  12.273  23.578  0.00  0.00    +0.000 A 
ENDBRANCH  10  11
ENDBRANCH   7  10
ENDBRANCH   1   2
BRANCH   1  18
ATOM     17  C   UNL     1       1.579   5.228  20.758  0.00  0.00    +0.000 C 
ATOM     18  N   UNL     1       2.233   6.044  19.741  0.00  0.00    +0.000 N 
ATOM     19  C   UNL     1       2.737   5.261  18.720  0.00  0.00    +0.000 C 
ATOM     20  O   UNL     1       2.665   4.029  18.837  0.00  0.00    +0.000 OA
BRANCH  19  21
ATOM     21  C   UNL     1       3.317   5.895  17.471  0.00  0.00    +0.000 C 
BRANCH  21  22
ATOM     22  C   UNL     1       4.864   5.767  17.420  0.00  0.00    +0.000 C 
ATOM     23  C   UNL     1       5.500   7.053  16.813  0.00  0.00    +0.000 C 
ATOM     24  C   UNL     1       7.028   6.939  16.781  0.00  0.00    +0.000 C 
ATOM     25  C   UNL     1       7.542   6.778  18.219  0.00  0.00    +0.000 C 
ATOM     26  C   UNL     1       6.954   5.504  18.847  0.00  0.00    +0.000 C 
ATOM     27  C   UNL     1       7.382   4.287  18.009  0.00  0.00    +0.000 C 
ATOM     28  C   UNL     1       6.859   4.430  16.578  0.00  0.00    +0.000 C 
ATOM     29  C   UNL     1       7.422   5.710  15.943  0.00  0.00    +0.000 C 
ATOM     30  C   UNL     1       5.329   4.512  16.626  0.00  0.00    +0.000 C 
ATOM     31  C   UNL     1       5.415   5.607  18.863  0.00  0.00    +0.000 C 
ENDBRANCH  21  22
ENDBRANCH  19  21
ENDBRANCH   1  18
TORSDOF 6
ENDMDL
MODEL 9
REMARK VINA RESULT:      -7.5      2.818      4.959
REMARK  Name = 
REMARK  7 active torsions:
REMARK  status: ('A' for Active; 'I' for Inactive)
REMARK    1  A    between atoms: C_1  and  N_2
REMARK    2  A    between atoms: N_2  and  C_3
REMARK    3  A    between atoms: C_3  and  C_4
REMARK    4  A    between atoms: N_9  and  C_10
REMARK    5  A    between atoms: C_10  and  C_11
REMARK    6  A    between atoms: C_19  and  C_21
REMARK    7  A    between atoms: C_21  and  C_22
REMARK                            x       y       z     vdW  Elec       q    Type
REMARK                         _______ _______ _______ _____ _____    ______ ____
ROOT
ATOM      1  C   UNL     1       1.638   8.626  20.507  0.00  0.00    +0.000 C 
ENDROOT
BRANCH   1   2
ATOM      2  C   UNL     1       0.316   9.221  21.082  0.00  0.00    +0.000 C 
ATOM      3  O   UNL     1      -0.557   8.472  21.526  0.00  0.00    +0.000 OA
ATOM      4  N   UNL     1       0.185  10.601  21.140  0.00  0.00    +0.000 N 
ATOM      5  C   UNL     1       1.094  11.526  20.508  0.00  0.00    +0.000 C 
ATOM      6  C   UNL     1       0.361  12.220  19.335  0.00  0.00    +0.000 C 
ATOM      7  N   UNL     1      -0.761  13.054  19.821  0.00  0.00    +0.000 NA
ATOM      8  C   UNL     1      -1.683  12.179  20.601  0.00  0.00    +0.000 C 
ATOM      9  C   UNL     1      -1.020  11.263  21.666  0.00  0.00    +0.000 C 
BRANCH   7  10
ATOM     10  C   UNL     1      -0.193  14.186  20.562  0.00  0.00    +0.000 C 
BRANCH  10  11
ATOM     11  C   UNL     1       0.379  15.309  19.752  0.00  0.00    +0.000 A 
ATOM     12  C   UNL     1      -0.476  16.059  18.926  0.00  0.00    +0.000 A 
ATOM     13  C   UNL     1       0.010  17.162  18.238  0.00  0.00    +0.000 A 
ATOM     14  C   UNL     1       1.351  17.518  18.368  0.00  0.00    +0.000 A 
ATOM     15  C   UNL     1       2.209  16.778  19.174  0.00  0.00    +0.000 A 
ATOM     16  C   UNL     1       1.726  15.665  19.871  0.00  0.00    +0.000 A 
ENDBRANCH  10  11
ENDBRANCH   7  10
ENDBRANCH   1   2
BRANCH   1  18
ATOM     17  C   UNL     1       1.138   9.183  18.034  0.00  0.00    +0.000 C 
ATOM     18  N   UNL     1       1.813   8.393  19.058  0.00  0.00    +0.000 N 
ATOM     19  C   UNL     1       2.514   7.342  18.497  0.00  0.00    +0.000 C 
ATOM     20  O   UNL     1       2.407   7.152  17.277  0.00  0.00    +0.000 OA
BRANCH  19  21
ATOM     21  C   UNL     1       3.427   6.479  19.346  0.00  0.00    +0.000 C 
BRANCH  21  22
ATOM     22  C   UNL     1       2.848   5.052  19.551  0.00  0.00    +0.000 C 
ATOM     23  C   UNL     1       2.030   4.609  18.301  0.00  0.00    +0.000 C 
ATOM     24  C   UNL     1       1.475   3.193  18.491  0.00  0.00    +0.000 C 
ATOM     25  C   UNL     1       2.650   2.221  18.669  0.00  0.00    +0.000 C 
ATOM     26  C   UNL     1       3.470   2.612  19.909  0.00  0.00    +0.000 C 
ATOM     27  C   UNL     1       2.564   2.554  21.150  0.00  0.00    +0.000 C 
ATOM     28  C   UNL     1       1.399   3.534  20.990  0.00  0.00    +0.000 C 
ATOM     29  C   UNL     1       0.580   3.169  19.742  0.00  0.00    +0.000 C 
ATOM     30  C   UNL     1       1.971   4.948  20.831  0.00  0.00    +0.000 C 
ATOM     31  C   UNL     1       4.015   4.043  19.729  0.00  0.00    +0.000 C 
ENDBRANCH  21  22
ENDBRANCH  19  21
ENDBRANCH   1  18
TORSDOF 6
ENDMDL
