MODEL 1
REMARK VINA RESULT:      -8.6      0.000      0.000
REMARK  Name = 
REMARK  5 active torsions:
REMARK  status: ('A' for Active; 'I' for Inactive)
REMARK    1  A    between atoms: C_1  and  C_2
REMARK    2  A    between atoms: C_7  and  C_8
REMARK    3  A    between atoms: C_10  and  C_11
REMARK    4  A    between atoms: N_13  and  C_14
REMARK    5  A    between atoms: C_14  and  C_15
REMARK                            x       y       z     vdW  Elec       q    Type
REMARK                         _______ _______ _______ _____ _____    ______ ____
ROOT
ATOM      1  C   UNL     1       8.489   9.155  18.314  0.00  0.00    +0.000 A 
ATOM      2  C   UNL     1       8.534   7.817  18.790  0.00  0.00    +0.000 A 
ATOM      3  C   UNL     1       7.618   7.107  18.039  0.00  0.00    +0.000 A 
ATOM      4  N   UNL     1       7.092   8.030  17.177  0.00  0.00    +0.000 N 
ATOM      5  N   UNL     1       7.579   9.274  17.336  0.00  0.00    +0.000 NA
ATOM      6  H   UNL     1       6.391   7.866  16.459  0.00  0.00    +0.000 HD
ENDROOT
BRANCH   1  13
ATOM      7  C   UNL     1      11.731  12.846  17.337  0.00  0.00    +0.000 C 
ATOM      8  C   UNL     1      10.877  12.095  18.316  0.00  0.00    +0.000 A 
ATOM      9  C   UNL     1      10.858  12.444  19.669  0.00  0.00    +0.000 A 
ATOM     10  C   UNL     1      10.066  11.723  20.556  0.00  0.00    +0.000 A 
ATOM     11  F   UNL     1      10.059  12.058  21.853  0.00  0.00    +0.000 F 
ATOM     12  C   UNL     1       9.287  10.656  20.126  0.00  0.00    +0.000 A 
ATOM     13  C   UNL     1       9.293  10.287  18.775  0.00  0.00    +0.000 A 
ATOM     14  C   UNL     1      10.090  11.016  17.878  0.00  0.00    +0.000 A 
ENDBRANCH   1  13
BRANCH   3  15
ATOM     15  C   UNL     1       7.202   5.730  18.040  0.00  0.00    +0.000 C 
ATOM     16  O   UNL     1       7.855   4.852  18.593  0.00  0.00    +0.000 OA
ATOM     17  N   UNL     1       6.026   5.483  17.372  0.00  0.00    +0.000 N 
ATOM     18  H   UNL     1       5.539   6.243  16.923  0.00  0.00    +0.000 HD
BRANCH  17  19
ATOM     19  C   UNL     1       5.450   4.165  17.250  0.00  0.00    +0.000 C 
BRANCH  19  20
ATOM     20  C   UNL     1       4.049   4.127  17.808  0.00  0.00    +0.000 A 
ATOM     21  C   UNL     1       3.142   3.148  17.374  0.00  0.00    +0.000 A 
ATOM     22  C   UNL     1       1.851   3.083  17.904  0.00  0.00    +0.000 A 
ATOM     23  C   UNL     1       1.452   3.994  18.879  0.00  0.00    +0.000 A 
ATOM     24  C   UNL     1       2.345   4.970  19.318  0.00  0.00    +0.000 A 
ATOM     25 CL   UNL     1       1.855   6.089  20.530  0.00  0.00    +0.000 Cl
ATOM     26  C   UNL     1       3.636   5.042  18.789  0.00  0.00    +0.000 A 
ENDBRANCH  19  20
ENDBRANCH  17  19
ENDBRANCH   3  15
TORSDOF 4
ENDMDL
MODEL 2
REMARK VINA RESULT:      -8.4      5.816      7.301
REMARK  Name = 
REMARK  5 active torsions:
REMARK  status: ('A' for Active; 'I' for Inactive)
REMARK    1  A    between atoms: C_1  and  C_2
REMARK    2  A    between atoms: C_7  and  C_8
REMARK    3  A    between atoms: C_10  and  C_11
REMARK    4  A    between atoms: N_13  and  C_14
REMARK    5  A    between atoms: C_14  and  C_15
REMARK                            x       y       z     vdW  Elec       q    Type
REMARK                         _______ _______ _______ _____ _____    ______ ____
ROOT
ATOM      1  C   UNL     1       6.063   4.364  16.170  0.00  0.00    +0.000 A 
ATOM      2  C   UNL     1       4.757   4.497  16.716  0.00  0.00    +0.000 A 
ATOM      3  C   UNL     1       4.904   4.460  18.088  0.00  0.00    +0.000 A 
ATOM      4  N   UNL     1       6.250   4.315  18.286  0.00  0.00    +0.000 N 
ATOM      5  N   UNL     1       6.968   4.229  17.152  0.00  0.00    +0.000 NA
ATOM      6  H   UNL     1       6.735   4.264  19.177  0.00  0.00    +0.000 HD
ENDROOT
BRANCH   1  13
ATOM      7  C   UNL     1       5.505   2.540  11.540  0.00  0.00    +0.000 C 
ATOM      8  C   UNL     1       6.179   3.488  12.488  0.00  0.00    +0.000 A 
ATOM      9  C   UNL     1       7.178   4.358  12.046  0.00  0.00    +0.000 A 
ATOM     10  C   UNL     1       7.794   5.217  12.948  0.00  0.00    +0.000 A 
ATOM     11  F   UNL     1       8.758   6.043  12.519  0.00  0.00    +0.000 F 
ATOM     12  C   UNL     1       7.435   5.233  14.290  0.00  0.00    +0.000 A 
ATOM     13  C   UNL     1       6.437   4.368  14.757  0.00  0.00    +0.000 A 
ATOM     14  C   UNL     1       5.813   3.501  13.845  0.00  0.00    +0.000 A 
ENDBRANCH   1  13
BRANCH   3  15
ATOM     15  C   UNL     1       3.970   4.542  19.179  0.00  0.00    +0.000 C 
ATOM     16  O   UNL     1       3.839   3.637  19.995  0.00  0.00    +0.000 OA
ATOM     17  N   UNL     1       3.241   5.707  19.227  0.00  0.00    +0.000 N 
ATOM     18  H   UNL     1       3.381   6.412  18.520  0.00  0.00    +0.000 HD
BRANCH  17  19
ATOM     19  C   UNL     1       2.245   5.974  20.238  0.00  0.00    +0.000 C 
BRANCH  19  20
ATOM     20  C   UNL     1       1.767   7.403  20.169  0.00  0.00    +0.000 A 
ATOM     21  C   UNL     1       1.899   8.136  18.980  0.00  0.00    +0.000 A 
ATOM     22  C   UNL     1       1.435   9.451  18.894  0.00  0.00    +0.000 A 
ATOM     23  C   UNL     1       0.826  10.048  19.996  0.00  0.00    +0.000 A 
ATOM     24  C   UNL     1       0.688   9.329  21.181  0.00  0.00    +0.000 A 
ATOM     25 CL   UNL     1      -0.074  10.063  22.539  0.00  0.00    +0.000 Cl
ATOM     26  C   UNL     1       1.154   8.015  21.274  0.00  0.00    +0.000 A 
ENDBRANCH  19  20
ENDBRANCH  17  19
ENDBRANCH   3  15
TORSDOF 4
ENDMDL
MODEL 3
REMARK VINA RESULT:      -8.3      1.082      1.749
REMARK  Name = 
REMARK  5 active torsions:
REMARK  status: ('A' for Active; 'I' for Inactive)
REMARK    1  A    between atoms: C_1  and  C_2
REMARK    2  A    between atoms: C_7  and  C_8
REMARK    3  A    between atoms: C_10  and  C_11
REMARK    4  A    between atoms: N_13  and  C_14
REMARK    5  A    between atoms: C_14  and  C_15
REMARK                            x       y       z     vdW  Elec       q    Type
REMARK                         _______ _______ _______ _____ _____    ______ ____
ROOT
ATOM      1  C   UNL     1       8.316   8.912  18.197  0.00  0.00    +0.000 A 
ATOM      2  C   UNL     1       8.370   7.570  18.661  0.00  0.00    +0.000 A 
ATOM      3  C   UNL     1       7.439   6.866  17.924  0.00  0.00    +0.000 A 
ATOM      4  N   UNL     1       6.895   7.797  17.081  0.00  0.00    +0.000 N 
ATOM      5  N   UNL     1       7.385   9.038  17.239  0.00  0.00    +0.000 NA
ATOM      6  H   UNL     1       6.179   7.638  16.377  0.00  0.00    +0.000 HD
ENDROOT
BRANCH   1  13
ATOM      7  C   UNL     1       9.744  12.028  21.849  0.00  0.00    +0.000 C 
ATOM      8  C   UNL     1       9.838  11.572  20.422  0.00  0.00    +0.000 A 
ATOM      9  C   UNL     1      10.673  12.225  19.512  0.00  0.00    +0.000 A 
ATOM     10  C   UNL     1      10.732  11.788  18.194  0.00  0.00    +0.000 A 
ATOM     11  F   UNL     1      11.529  12.424  17.325  0.00  0.00    +0.000 F 
ATOM     12  C   UNL     1       9.975  10.708  17.757  0.00  0.00    +0.000 A 
ATOM     13  C   UNL     1       9.130  10.040  18.650  0.00  0.00    +0.000 A 
ATOM     14  C   UNL     1       9.071  10.479  19.983  0.00  0.00    +0.000 A 
ENDBRANCH   1  13
BRANCH   3  15
ATOM     15  C   UNL     1       7.023   5.489  17.923  0.00  0.00    +0.000 C 
ATOM     16  O   UNL     1       7.722   4.596  18.388  0.00  0.00    +0.000 OA
ATOM     17  N   UNL     1       5.791   5.260  17.357  0.00  0.00    +0.000 N 
ATOM     18  H   UNL     1       5.265   6.032  16.977  0.00  0.00    +0.000 HD
BRANCH  17  19
ATOM     19  C   UNL     1       5.204   3.946  17.249  0.00  0.00    +0.000 C 
BRANCH  19  20
ATOM     20  C   UNL     1       3.846   3.898  17.906  0.00  0.00    +0.000 A 
ATOM     21  C   UNL     1       2.960   2.848  17.619  0.00  0.00    +0.000 A 
ATOM     22  C   UNL     1       1.711   2.776  18.242  0.00  0.00    +0.000 A 
ATOM     23  C   UNL     1       1.335   3.750  19.164  0.00  0.00    +0.000 A 
ATOM     24  C   UNL     1       2.208   4.796  19.457  0.00  0.00    +0.000 A 
ATOM     25 CL   UNL     1       1.746   5.994  20.603  0.00  0.00    +0.000 Cl
ATOM     26  C   UNL     1       3.456   4.876  18.834  0.00  0.00    +0.000 A 
ENDBRANCH  19  20
ENDBRANCH  17  19
ENDBRANCH   3  15
TORSDOF 4
ENDMDL
MODEL 4
REMARK VINA RESULT:      -8.3      1.183      1.208
REMARK  Name = 
REMARK  5 active torsions:
REMARK  status: ('A' for Active; 'I' for Inactive)
REMARK    1  A    between atoms: C_1  and  C_2
REMARK    2  A    between atoms: C_7  and  C_8
REMARK    3  A    between atoms: C_10  and  C_11
REMARK    4  A    between atoms: N_13  and  C_14
REMARK    5  A    between atoms: C_14  and  C_15
REMARK                            x       y       z     vdW  Elec       q    Type
REMARK                         _______ _______ _______ _____ _____    ______ ____
ROOT
ATOM      1  C   UNL     1       8.672   8.984  18.610  0.00  0.00    +0.000 A 
ATOM      2  C   UNL     1       7.894   8.642  17.471  0.00  0.00    +0.000 A 
ATOM      3  C   UNL     1       7.585   7.303  17.599  0.00  0.00    +0.000 A 
ATOM      4  N   UNL     1       8.174   6.926  18.776  0.00  0.00    +0.000 N 
ATOM      5  N   UNL     1       8.854   7.909  19.391  0.00  0.00    +0.000 NA
ATOM      6  H   UNL     1       8.147   6.005  19.205  0.00  0.00    +0.000 HD
ENDROOT
BRANCH   1  13
ATOM      7  C   UNL     1      10.658  13.345  17.155  0.00  0.00    +0.000 C 
ATOM      8  C   UNL     1      10.195  12.433  18.252  0.00  0.00    +0.000 A 
ATOM      9  C   UNL     1      10.305  12.808  19.594  0.00  0.00    +0.000 A 
ATOM     10  C   UNL     1       9.878  11.939  20.590  0.00  0.00    +0.000 A 
ATOM     11  F   UNL     1       9.994  12.302  21.875  0.00  0.00    +0.000 F 
ATOM     12  C   UNL     1       9.340  10.696  20.283  0.00  0.00    +0.000 A 
ATOM     13  C   UNL     1       9.222  10.297  18.945  0.00  0.00    +0.000 A 
ATOM     14  C   UNL     1       9.650  11.176  17.938  0.00  0.00    +0.000 A 
ENDBRANCH   1  13
BRANCH   3  15
ATOM     15  C   UNL     1       6.837   6.383  16.783  0.00  0.00    +0.000 C 
ATOM     16  O   UNL     1       7.282   5.932  15.734  0.00  0.00    +0.000 OA
ATOM     17  N   UNL     1       5.593   6.061  17.272  0.00  0.00    +0.000 N 
ATOM     18  H   UNL     1       5.273   6.475  18.134  0.00  0.00    +0.000 HD
BRANCH  17  19
ATOM     19  C   UNL     1       4.686   5.166  16.593  0.00  0.00    +0.000 C 
BRANCH  19  20
ATOM     20  C   UNL     1       3.543   4.761  17.491  0.00  0.00    +0.000 A 
ATOM     21  C   UNL     1       2.877   3.544  17.281  0.00  0.00    +0.000 A 
ATOM     22  C   UNL     1       1.837   3.144  18.123  0.00  0.00    +0.000 A 
ATOM     23  C   UNL     1       1.452   3.953  19.189  0.00  0.00    +0.000 A 
ATOM     24  C   UNL     1       2.108   5.163  19.408  0.00  0.00    +0.000 A 
ATOM     25 CL   UNL     1       1.639   6.158  20.731  0.00  0.00    +0.000 Cl
ATOM     26  C   UNL     1       3.147   5.571  18.567  0.00  0.00    +0.000 A 
ENDBRANCH  19  20
ENDBRANCH  17  19
ENDBRANCH   3  15
TORSDOF 4
ENDMDL
MODEL 5
REMARK VINA RESULT:      -8.3      1.340      1.968
REMARK  Name = 
REMARK  5 active torsions:
REMARK  status: ('A' for Active; 'I' for Inactive)
REMARK    1  A    between atoms: C_1  and  C_2
REMARK    2  A    between atoms: C_7  and  C_8
REMARK    3  A    between atoms: C_10  and  C_11
REMARK    4  A    between atoms: N_13  and  C_14
REMARK    5  A    between atoms: C_14  and  C_15
REMARK                            x       y       z     vdW  Elec       q    Type
REMARK                         _______ _______ _______ _____ _____    ______ ____
ROOT
ATOM      1  C   UNL     1       8.506   9.127  18.282  0.00  0.00    +0.000 A 
ATOM      2  C   UNL     1       8.497   7.817  18.834  0.00  0.00    +0.000 A 
ATOM      3  C   UNL     1       7.666   7.062  18.031  0.00  0.00    +0.000 A 
ATOM      4  N   UNL     1       7.237   7.934  17.067  0.00  0.00    +0.000 N 
ATOM      5  N   UNL     1       7.705   9.186  17.207  0.00  0.00    +0.000 NA
ATOM      6  H   UNL     1       6.616   7.726  16.289  0.00  0.00    +0.000 HD
ENDROOT
BRANCH   1  13
ATOM      7  C   UNL     1       9.589  12.370  21.941  0.00  0.00    +0.000 C 
ATOM      8  C   UNL     1       9.799  11.880  20.538  0.00  0.00    +0.000 A 
ATOM      9  C   UNL     1      10.682  12.531  19.674  0.00  0.00    +0.000 A 
ATOM     10  C   UNL     1      10.847  12.062  18.376  0.00  0.00    +0.000 A 
ATOM     11  F   UNL     1      11.690  12.696  17.549  0.00  0.00    +0.000 F 
ATOM     12  C   UNL     1      10.150  10.953  17.914  0.00  0.00    +0.000 A 
ATOM     13  C   UNL     1       9.258  10.286  18.762  0.00  0.00    +0.000 A 
ATOM     14  C   UNL     1       9.092  10.757  20.074  0.00  0.00    +0.000 A 
ENDBRANCH   1  13
BRANCH   3  15
ATOM     15  C   UNL     1       7.251   5.685  18.065  0.00  0.00    +0.000 C 
ATOM     16  O   UNL     1       7.686   4.854  17.278  0.00  0.00    +0.000 OA
ATOM     17  N   UNL     1       6.331   5.386  19.042  0.00  0.00    +0.000 N 
ATOM     18  H   UNL     1       5.997   6.115  19.654  0.00  0.00    +0.000 HD
BRANCH  17  19
ATOM     19  C   UNL     1       5.782   4.064  19.230  0.00  0.00    +0.000 C 
BRANCH  19  20
ATOM     20  C   UNL     1       4.343   4.001  18.780  0.00  0.00    +0.000 A 
ATOM     21  C   UNL     1       4.035   3.800  17.425  0.00  0.00    +0.000 A 
ATOM     22  C   UNL     1       2.708   3.711  16.998  0.00  0.00    +0.000 A 
ATOM     23  C   UNL     1       1.671   3.815  17.922  0.00  0.00    +0.000 A 
ATOM     24  C   UNL     1       1.965   4.012  19.269  0.00  0.00    +0.000 A 
ATOM     25 CL   UNL     1       0.683   4.131  20.412  0.00  0.00    +0.000 Cl
ATOM     26  C   UNL     1       3.290   4.107  19.702  0.00  0.00    +0.000 A 
ENDBRANCH  19  20
ENDBRANCH  17  19
ENDBRANCH   3  15
TORSDOF 4
ENDMDL
MODEL 6
REMARK VINA RESULT:      -8.3      1.780      2.106
REMARK  Name = 
REMARK  5 active torsions:
REMARK  status: ('A' for Active; 'I' for Inactive)
REMARK    1  A    between atoms: C_1  and  C_2
REMARK    2  A    between atoms: C_7  and  C_8
REMARK    3  A    between atoms: C_10  and  C_11
REMARK    4  A    between atoms: N_13  and  C_14
REMARK    5  A    between atoms: C_14  and  C_15
REMARK                            x       y       z     vdW  Elec       q    Type
REMARK                         _______ _______ _______ _____ _____    ______ ____
ROOT
ATOM      1  C   UNL     1       8.193   8.304  18.265  0.00  0.00    +0.000 A 
ATOM      2  C   UNL     1       7.363   7.704  17.280  0.00  0.00    +0.000 A 
ATOM      3  C   UNL     1       7.257   6.371  17.620  0.00  0.00    +0.000 A 
ATOM      4  N   UNL     1       8.004   6.247  18.760  0.00  0.00    +0.000 N 
ATOM      5  N   UNL     1       8.598   7.386  19.156  0.00  0.00    +0.000 NA
ATOM      6  H   UNL     1       8.148   5.403  19.307  0.00  0.00    +0.000 HD
ENDROOT
BRANCH   1  13
ATOM      7  C   UNL     1      10.933  11.901  20.418  0.00  0.00    +0.000 C 
ATOM      8  C   UNL     1       9.916  11.480  19.398  0.00  0.00    +0.000 A 
ATOM      9  C   UNL     1       9.318  12.416  18.550  0.00  0.00    +0.000 A 
ATOM     10  C   UNL     1       8.371  12.000  17.623  0.00  0.00    +0.000 A 
ATOM     11  F   UNL     1       7.795  12.905  16.818  0.00  0.00    +0.000 F 
ATOM     12  C   UNL     1       8.001  10.665  17.516  0.00  0.00    +0.000 A 
ATOM     13  C   UNL     1       8.586   9.710  18.357  0.00  0.00    +0.000 A 
ATOM     14  C   UNL     1       9.545  10.129  19.293  0.00  0.00    +0.000 A 
ENDBRANCH   1  13
BRANCH   3  15
ATOM     15  C   UNL     1       6.568   5.256  17.026  0.00  0.00    +0.000 C 
ATOM     16  O   UNL     1       7.163   4.362  16.435  0.00  0.00    +0.000 OA
ATOM     17  N   UNL     1       5.201   5.281  17.170  0.00  0.00    +0.000 N 
ATOM     18  H   UNL     1       4.764   6.050  17.654  0.00  0.00    +0.000 HD
BRANCH  17  19
ATOM     19  C   UNL     1       4.332   4.260  16.634  0.00  0.00    +0.000 C 
BRANCH  19  20
ATOM     20  C   UNL     1       3.220   3.928  17.598  0.00  0.00    +0.000 A 
ATOM     21  C   UNL     1       2.543   2.702  17.500  0.00  0.00    +0.000 A 
ATOM     22  C   UNL     1       1.531   2.370  18.403  0.00  0.00    +0.000 A 
ATOM     23  C   UNL     1       1.186   3.257  19.421  0.00  0.00    +0.000 A 
ATOM     24  C   UNL     1       1.852   4.476  19.528  0.00  0.00    +0.000 A 
ATOM     25 CL   UNL     1       1.432   5.567  20.791  0.00  0.00    +0.000 Cl
ATOM     26  C   UNL     1       2.863   4.816  18.625  0.00  0.00    +0.000 A 
ENDBRANCH  19  20
ENDBRANCH  17  19
ENDBRANCH   3  15
TORSDOF 4
ENDMDL
MODEL 7
REMARK VINA RESULT:      -8.2      6.399      9.022
REMARK  Name = 
REMARK  5 active torsions:
REMARK  status: ('A' for Active; 'I' for Inactive)
REMARK    1  A    between atoms: C_1  and  C_2
REMARK    2  A    between atoms: C_7  and  C_8
REMARK    3  A    between atoms: C_10  and  C_11
REMARK    4  A    between atoms: N_13  and  C_14
REMARK    5  A    between atoms: C_14  and  C_15
REMARK                            x       y       z     vdW  Elec       q    Type
REMARK                         _______ _______ _______ _____ _____    ______ ____
ROOT
ATOM      1  C   UNL     1       2.677   7.091  18.484  0.00  0.00    +0.000 A 
ATOM      2  C   UNL     1       2.178   8.282  17.889  0.00  0.00    +0.000 A 
ATOM      3  C   UNL     1       1.569   8.996  18.901  0.00  0.00    +0.000 A 
ATOM      4  N   UNL     1       1.734   8.220  20.016  0.00  0.00    +0.000 N 
ATOM      5  N   UNL     1       2.374   7.059  19.791  0.00  0.00    +0.000 NA
ATOM      6  H   UNL     1       1.424   8.432  20.960  0.00  0.00    +0.000 HD
ENDROOT
BRANCH   1  13
ATOM      7  C   UNL     1       3.498   2.204  17.762  0.00  0.00    +0.000 C 
ATOM      8  C   UNL     1       3.839   3.634  17.463  0.00  0.00    +0.000 A 
ATOM      9  C   UNL     1       4.878   3.958  16.587  0.00  0.00    +0.000 A 
ATOM     10  C   UNL     1       5.179   5.292  16.337  0.00  0.00    +0.000 A 
ATOM     11  F   UNL     1       6.182   5.595  15.501  0.00  0.00    +0.000 F 
ATOM     12  C   UNL     1       4.467   6.319  16.943  0.00  0.00    +0.000 A 
ATOM     13  C   UNL     1       3.424   6.018  17.828  0.00  0.00    +0.000 A 
ATOM     14  C   UNL     1       3.117   4.671  18.078  0.00  0.00    +0.000 A 
ENDBRANCH   1  13
BRANCH   3  15
ATOM     15  C   UNL     1       0.884  10.261  18.938  0.00  0.00    +0.000 C 
ATOM     16  O   UNL     1       1.453  11.317  18.689  0.00  0.00    +0.000 OA
ATOM     17  N   UNL     1      -0.446  10.186  19.278  0.00  0.00    +0.000 N 
ATOM     18  H   UNL     1      -0.857   9.289  19.487  0.00  0.00    +0.000 HD
BRANCH  17  19
ATOM     19  C   UNL     1      -1.300  11.345  19.382  0.00  0.00    +0.000 C 
BRANCH  19  20
ATOM     20  C   UNL     1      -2.424  11.287  18.376  0.00  0.00    +0.000 A 
ATOM     21  C   UNL     1      -3.704  11.749  18.720  0.00  0.00    +0.000 A 
ATOM     22  C   UNL     1      -4.746  11.728  17.790  0.00  0.00    +0.000 A 
ATOM     23  C   UNL     1      -4.520  11.249  16.502  0.00  0.00    +0.000 A 
ATOM     24  C   UNL     1      -3.253  10.789  16.149  0.00  0.00    +0.000 A 
ATOM     25 CL   UNL     1      -2.972  10.207  14.554  0.00  0.00    +0.000 Cl
ATOM     26  C   UNL     1      -2.208  10.804  17.076  0.00  0.00    +0.000 A 
ENDBRANCH  19  20
ENDBRANCH  17  19
ENDBRANCH   3  15
TORSDOF 4
ENDMDL
MODEL 8
REMARK VINA RESULT:      -8.2      1.985      2.255
REMARK  Name = 
REMARK  5 active torsions:
REMARK  status: ('A' for Active; 'I' for Inactive)
REMARK    1  A    between atoms: C_1  and  C_2
REMARK    2  A    between atoms: C_7  and  C_8
REMARK    3  A    between atoms: C_10  and  C_11
REMARK    4  A    between atoms: N_13  and  C_14
REMARK    5  A    between atoms: C_14  and  C_15
REMARK                            x       y       z     vdW  Elec       q    Type
REMARK                         _______ _______ _______ _____ _____    ______ ____
ROOT
ATOM      1  C   UNL     1       8.205   8.643  18.165  0.00  0.00    +0.000 A 
ATOM      2  C   UNL     1       7.295   8.170  17.180  0.00  0.00    +0.000 A 
ATOM      3  C   UNL     1       7.125   6.822  17.423  0.00  0.00    +0.000 A 
ATOM      4  N   UNL     1       7.916   6.568  18.510  0.00  0.00    +0.000 N 
ATOM      5  N   UNL     1       8.595   7.637  18.961  0.00  0.00    +0.000 NA
ATOM      6  H   UNL     1       8.034   5.676  18.984  0.00  0.00    +0.000 HD
ENDROOT
BRANCH   1  13
ATOM      7  C   UNL     1      11.224  11.905  20.471  0.00  0.00    +0.000 C 
ATOM      8  C   UNL     1      10.152  11.621  19.460  0.00  0.00    +0.000 A 
ATOM      9  C   UNL     1       9.586  12.650  18.703  0.00  0.00    +0.000 A 
ATOM     10  C   UNL     1       8.587  12.360  17.783  0.00  0.00    +0.000 A 
ATOM     11  F   UNL     1       8.042  13.353  17.066  0.00  0.00    +0.000 F 
ATOM     12  C   UNL     1       8.134  11.060  17.594  0.00  0.00    +0.000 A 
ATOM     13  C   UNL     1       8.685  10.013  18.343  0.00  0.00    +0.000 A 
ATOM     14  C   UNL     1       9.696  10.305  19.271  0.00  0.00    +0.000 A 
ENDBRANCH   1  13
BRANCH   3  15
ATOM     15  C   UNL     1       6.344   5.798  16.782  0.00  0.00    +0.000 C 
ATOM     16  O   UNL     1       6.171   5.773  15.569  0.00  0.00    +0.000 OA
ATOM     17  N   UNL     1       5.808   4.863  17.636  0.00  0.00    +0.000 N 
ATOM     18  H   UNL     1       5.972   4.943  18.628  0.00  0.00    +0.000 HD
BRANCH  17  19
ATOM     19  C   UNL     1       4.985   3.766  17.189  0.00  0.00    +0.000 C 
BRANCH  19  20
ATOM     20  C   UNL     1       3.711   3.675  17.993  0.00  0.00    +0.000 A 
ATOM     21  C   UNL     1       2.475   3.962  17.393  0.00  0.00    +0.000 A 
ATOM     22  C   UNL     1       1.286   3.854  18.118  0.00  0.00    +0.000 A 
ATOM     23  C   UNL     1       1.317   3.451  19.451  0.00  0.00    +0.000 A 
ATOM     24  C   UNL     1       2.538   3.161  20.056  0.00  0.00    +0.000 A 
ATOM     25 CL   UNL     1       2.575   2.654  21.700  0.00  0.00    +0.000 Cl
ATOM     26  C   UNL     1       3.732   3.272  19.338  0.00  0.00    +0.000 A 
ENDBRANCH  19  20
ENDBRANCH  17  19
ENDBRANCH   3  15
TORSDOF 4
ENDMDL
MODEL 9
REMARK VINA RESULT:      -8.1      1.639      2.167
REMARK  Name = 
REMARK  5 active torsions:
REMARK  status: ('A' for Active; 'I' for Inactive)
REMARK    1  A    between atoms: C_1  and  C_2
REMARK    2  A    between atoms: C_7  and  C_8
REMARK    3  A    between atoms: C_10  and  C_11
REMARK    4  A    between atoms: N_13  and  C_14
REMARK    5  A    between atoms: C_14  and  C_15
REMARK                            x       y       z     vdW  Elec       q    Type
REMARK                         _______ _______ _______ _____ _____    ______ ____
ROOT
ATOM      1  C   UNL     1       8.345   8.706  18.346  0.00  0.00    +0.000 A 
ATOM      2  C   UNL     1       7.346   8.525  17.351  0.00  0.00    +0.000 A 
ATOM      3  C   UNL     1       6.977   7.196  17.407  0.00  0.00    +0.000 A 
ATOM      4  N   UNL     1       7.749   6.668  18.406  0.00  0.00    +0.000 N 
ATOM      5  N   UNL     1       8.597   7.546  18.971  0.00  0.00    +0.000 NA
ATOM      6  H   UNL     1       7.742   5.709  18.742  0.00  0.00    +0.000 HD
ENDROOT
BRANCH   1  13
ATOM      7  C   UNL     1       9.647  12.122  21.768  0.00  0.00    +0.000 C 
ATOM      8  C   UNL     1       9.680  11.628  20.352  0.00  0.00    +0.000 A 
ATOM      9  C   UNL     1      10.338  12.349  19.354  0.00  0.00    +0.000 A 
ATOM     10  C   UNL     1      10.343  11.872  18.048  0.00  0.00    +0.000 A 
ATOM     11  F   UNL     1      10.970  12.574  17.093  0.00  0.00    +0.000 F 
ATOM     12  C   UNL     1       9.703  10.687  17.709  0.00  0.00    +0.000 A 
ATOM     13  C   UNL     1       9.035   9.948  18.694  0.00  0.00    +0.000 A 
ATOM     14  C   UNL     1       9.032  10.427  20.013  0.00  0.00    +0.000 A 
ENDBRANCH   1  13
BRANCH   3  15
ATOM     15  C   UNL     1       6.030   6.406  16.667  0.00  0.00    +0.000 C 
ATOM     16  O   UNL     1       5.601   6.758  15.574  0.00  0.00    +0.000 OA
ATOM     17  N   UNL     1       5.647   5.239  17.284  0.00  0.00    +0.000 N 
ATOM     18  H   UNL     1       6.023   5.007  18.191  0.00  0.00    +0.000 HD
BRANCH  17  19
ATOM     19  C   UNL     1       4.697   4.317  16.708  0.00  0.00    +0.000 C 
BRANCH  19  20
ATOM     20  C   UNL     1       3.496   4.141  17.604  0.00  0.00    +0.000 A 
ATOM     21  C   UNL     1       2.681   3.005  17.478  0.00  0.00    +0.000 A 
ATOM     22  C   UNL     1       1.583   2.815  18.320  0.00  0.00    +0.000 A 
ATOM     23  C   UNL     1       1.288   3.756  19.304  0.00  0.00    +0.000 A 
ATOM     24  C   UNL     1       2.091   4.886  19.439  0.00  0.00    +0.000 A 
ATOM     25 CL   UNL     1       1.732   6.045  20.661  0.00  0.00    +0.000 Cl
ATOM     26  C   UNL     1       3.188   5.085  18.597  0.00  0.00    +0.000 A 
ENDBRANCH  19  20
ENDBRANCH  17  19
ENDBRANCH   3  15
TORSDOF 4
ENDMDL
