MODEL 1
REMARK VINA RESULT:      -8.9      0.000      0.000
REMARK  Name = 
REMARK  5 active torsions:
REMARK  status: ('A' for Active; 'I' for Inactive)
REMARK    1  A    between atoms: C_1  and  C_2
REMARK    2  A    between atoms: C_12  and  C_13
REMARK    3  A    between atoms: C_13  and  C_14
REMARK    4  A    between atoms: C_14  and  C_15
REMARK    5  A    between atoms: N_20  and  C_21
REMARK                            x       y       z     vdW  Elec       q    Type
REMARK                         _______ _______ _______ _____ _____    ______ ____
ROOT
ATOM      1  C   UNL     1       1.001   5.776  20.523  0.00  0.00    +0.000 C 
ENDROOT
BRANCH   1  13
ATOM      2  C   UNL     1       7.020   5.005  13.893  0.00  0.00    +0.000 C 
ATOM      3  C   UNL     1       6.783   5.378  15.355  0.00  0.00    +0.000 C 
ATOM      4  C   UNL     1       7.247   4.248  16.282  0.00  0.00    +0.000 C 
ATOM      5  C   UNL     1       6.923   4.576  17.737  0.00  0.00    +0.000 C 
ATOM      6  N   UNL     1       5.485   4.812  17.866  0.00  0.00    +0.000 N 
ATOM      7  C   UNL     1       4.679   4.186  18.812  0.00  0.00    +0.000 A 
ATOM      8  C   UNL     1       5.055   2.811  19.303  0.00  0.00    +0.000 A 
ATOM      9  C   UNL     1       4.311   2.212  20.237  0.00  0.00    +0.000 A 
ATOM     10  C   UNL     1       3.172   2.874  20.718  0.00  0.00    +0.000 A 
ATOM     11  N   UNL     1       2.266   2.540  21.604  0.00  0.00    +0.000 NA
ATOM     12  N   UNL     1       1.346   3.558  21.660  0.00  0.00    +0.000 NA
ATOM     13  C   UNL     1       1.712   4.495  20.803  0.00  0.00    +0.000 A 
ATOM     14  N   UNL     1       2.878   4.107  20.175  0.00  0.00    +0.000 N 
ATOM     15  N   UNL     1       3.593   4.794  19.234  0.00  0.00    +0.000 NA
ATOM     16  C   UNL     1       5.012   5.959  17.085  0.00  0.00    +0.000 C 
ATOM     17  C   UNL     1       5.302   5.707  15.602  0.00  0.00    +0.000 C 
ENDBRANCH   1  13
BRANCH   1  18
ATOM     18  C   UNL     1       1.757   6.962  21.126  0.00  0.00    +0.000 C 
BRANCH  18  19
ATOM     19  C   UNL     1       1.560   8.249  20.349  0.00  0.00    +0.000 C 
ATOM     20  O   UNL     1       1.807   8.316  19.145  0.00  0.00    +0.000 OA
ATOM     21  N   UNL     1       1.053   9.323  21.064  0.00  0.00    +0.000 N 
ATOM     22  C   UNL     1       0.654  10.549  20.360  0.00  0.00    +0.000 C 
ATOM     23  C   UNL     1      -0.798  10.943  20.710  0.00  0.00    +0.000 C 
ATOM     24  N   UNL     1      -0.956  11.009  22.176  0.00  0.00    +0.000 N 
ATOM     25  C   UNL     1      -0.571   9.781  22.894  0.00  0.00    +0.000 C 
ATOM     26  C   UNL     1       0.869   9.382  22.524  0.00  0.00    +0.000 C 
BRANCH  24  27
ATOM     27  C   UNL     1      -1.540  12.083  22.813  0.00  0.00    +0.000 A 
ATOM     28  C   UNL     1      -0.850  13.290  23.020  0.00  0.00    +0.000 A 
ATOM     29  C   UNL     1      -1.436  14.367  23.694  0.00  0.00    +0.000 A 
ATOM     30  C   UNL     1      -2.729  14.249  24.175  0.00  0.00    +0.000 A 
ATOM     31  F   UNL     1      -3.291  15.277  24.827  0.00  0.00    +0.000 F 
ATOM     32  C   UNL     1      -3.446  13.079  23.993  0.00  0.00    +0.000 A 
ATOM     33  C   UNL     1      -2.851  12.009  23.315  0.00  0.00    +0.000 A 
ENDBRANCH  24  27
ENDBRANCH  18  19
ENDBRANCH   1  18
TORSDOF 4
ENDMDL
MODEL 2
REMARK VINA RESULT:      -8.2      1.449      1.897
REMARK  Name = 
REMARK  5 active torsions:
REMARK  status: ('A' for Active; 'I' for Inactive)
REMARK    1  A    between atoms: C_1  and  C_2
REMARK    2  A    between atoms: C_12  and  C_13
REMARK    3  A    between atoms: C_13  and  C_14
REMARK    4  A    between atoms: C_14  and  C_15
REMARK    5  A    between atoms: N_20  and  C_21
REMARK                            x       y       z     vdW  Elec       q    Type
REMARK                         _______ _______ _______ _____ _____    ______ ____
ROOT
ATOM      1  C   UNL     1       1.854   8.158  19.385  0.00  0.00    +0.000 C 
ENDROOT
BRANCH   1  13
ATOM      2  C   UNL     1       6.558   3.997  12.955  0.00  0.00    +0.000 C 
ATOM      3  C   UNL     1       6.607   4.707  14.306  0.00  0.00    +0.000 C 
ATOM      4  C   UNL     1       6.737   3.688  15.446  0.00  0.00    +0.000 C 
ATOM      5  C   UNL     1       6.689   4.386  16.802  0.00  0.00    +0.000 C 
ATOM      6  N   UNL     1       5.442   5.145  16.907  0.00  0.00    +0.000 N 
ATOM      7  C   UNL     1       4.564   5.048  17.982  0.00  0.00    +0.000 A 
ATOM      8  C   UNL     1       4.484   3.753  18.750  0.00  0.00    +0.000 A 
ATOM      9  C   UNL     1       3.672   3.656  19.807  0.00  0.00    +0.000 A 
ATOM     10  C   UNL     1       2.886   4.764  20.156  0.00  0.00    +0.000 A 
ATOM     11  N   UNL     1       2.012   4.958  21.112  0.00  0.00    +0.000 NA
ATOM     12  N   UNL     1       1.513   6.230  20.966  0.00  0.00    +0.000 NA
ATOM     13  C   UNL     1       2.097   6.786  19.920  0.00  0.00    +0.000 A 
ATOM     14  N   UNL     1       2.990   5.890  19.367  0.00  0.00    +0.000 N 
ATOM     15  N   UNL     1       3.805   6.076  18.285  0.00  0.00    +0.000 NA
ATOM     16  C   UNL     1       5.326   6.211  15.907  0.00  0.00    +0.000 C 
ATOM     17  C   UNL     1       5.365   5.589  14.507  0.00  0.00    +0.000 C 
ENDBRANCH   1  13
BRANCH   1  18
ATOM     18  C   UNL     1       0.931   8.949  20.314  0.00  0.00    +0.000 C 
BRANCH  18  19
ATOM     19  C   UNL     1       0.312  10.161  19.645  0.00  0.00    +0.000 C 
ATOM     20  O   UNL     1       0.199  10.231  18.421  0.00  0.00    +0.000 OA
ATOM     21  N   UNL     1      -0.150  11.157  20.491  0.00  0.00    +0.000 N 
ATOM     22  C   UNL     1      -0.930  12.277  19.948  0.00  0.00    +0.000 C 
ATOM     23  C   UNL     1      -2.272  12.434  20.696  0.00  0.00    +0.000 C 
ATOM     24  N   UNL     1      -2.024  12.519  22.149  0.00  0.00    +0.000 N 
ATOM     25  C   UNL     1      -1.254  11.394  22.709  0.00  0.00    +0.000 C 
ATOM     26  C   UNL     1       0.072  11.229  21.945  0.00  0.00    +0.000 C 
BRANCH  24  27
ATOM     27  C   UNL     1      -2.580  13.500  22.942  0.00  0.00    +0.000 A 
ATOM     28  C   UNL     1      -1.795  14.324  23.766  0.00  0.00    +0.000 A 
ATOM     29  C   UNL     1      -2.366  15.297  24.592  0.00  0.00    +0.000 A 
ATOM     30  C   UNL     1      -3.741  15.460  24.607  0.00  0.00    +0.000 A 
ATOM     31  F   UNL     1      -4.291  16.388  25.402  0.00  0.00    +0.000 F 
ATOM     32  C   UNL     1      -4.552  14.671  23.810  0.00  0.00    +0.000 A 
ATOM     33  C   UNL     1      -3.971  13.702  22.985  0.00  0.00    +0.000 A 
ENDBRANCH  24  27
ENDBRANCH  18  19
ENDBRANCH   1  18
TORSDOF 4
ENDMDL
MODEL 3
REMARK VINA RESULT:      -8.1      1.266      1.348
REMARK  Name = 
REMARK  5 active torsions:
REMARK  status: ('A' for Active; 'I' for Inactive)
REMARK    1  A    between atoms: C_1  and  C_2
REMARK    2  A    between atoms: C_12  and  C_13
REMARK    3  A    between atoms: C_13  and  C_14
REMARK    4  A    between atoms: C_14  and  C_15
REMARK    5  A    between atoms: N_20  and  C_21
REMARK                            x       y       z     vdW  Elec       q    Type
REMARK                         _______ _______ _______ _____ _____    ______ ____
ROOT
ATOM      1  C   UNL     1       2.343   6.532  20.633  0.00  0.00    +0.000 C 
ENDROOT
BRANCH   1  13
ATOM      2  C   UNL     1       6.883   5.235  12.984  0.00  0.00    +0.000 C 
ATOM      3  C   UNL     1       6.781   4.904  14.472  0.00  0.00    +0.000 C 
ATOM      4  C   UNL     1       6.176   3.509  14.674  0.00  0.00    +0.000 C 
ATOM      5  C   UNL     1       5.983   3.214  16.159  0.00  0.00    +0.000 C 
ATOM      6  N   UNL     1       5.135   4.251  16.747  0.00  0.00    +0.000 N 
ATOM      7  C   UNL     1       4.004   3.985  17.511  0.00  0.00    +0.000 A 
ATOM      8  C   UNL     1       3.225   2.719  17.254  0.00  0.00    +0.000 A 
ATOM      9  C   UNL     1       2.156   2.433  18.004  0.00  0.00    +0.000 A 
ATOM     10  C   UNL     1       1.768   3.341  19.000  0.00  0.00    +0.000 A 
ATOM     11  N   UNL     1       0.783   3.335  19.863  0.00  0.00    +0.000 NA
ATOM     12  N   UNL     1       0.857   4.501  20.585  0.00  0.00    +0.000 NA
ATOM     13  C   UNL     1       1.891   5.196  20.144  0.00  0.00    +0.000 A 
ATOM     14  N   UNL     1       2.512   4.495  19.131  0.00  0.00    +0.000 N 
ATOM     15  N   UNL     1       3.623   4.854  18.420  0.00  0.00    +0.000 NA
ATOM     16  C   UNL     1       5.727   5.591  16.682  0.00  0.00    +0.000 C 
ATOM     17  C   UNL     1       5.953   5.965  15.213  0.00  0.00    +0.000 C 
ENDBRANCH   1  13
BRANCH   1  18
ATOM     18  C   UNL     1       1.153   7.378  21.087  0.00  0.00    +0.000 C 
BRANCH  18  19
ATOM     19  C   UNL     1       1.138   8.763  20.470  0.00  0.00    +0.000 C 
ATOM     20  O   UNL     1       1.502   8.952  19.310  0.00  0.00    +0.000 OA
ATOM     21  N   UNL     1       0.656   9.784  21.273  0.00  0.00    +0.000 N 
ATOM     22  C   UNL     1       0.428  11.120  20.703  0.00  0.00    +0.000 C 
ATOM     23  C   UNL     1      -1.013  11.603  20.979  0.00  0.00    +0.000 C 
ATOM     24  N   UNL     1      -1.302  11.505  22.423  0.00  0.00    +0.000 N 
ATOM     25  C   UNL     1      -1.090  10.168  23.005  0.00  0.00    +0.000 C 
ATOM     26  C   UNL     1       0.340   9.683  22.708  0.00  0.00    +0.000 C 
BRANCH  24  27
ATOM     27  C   UNL     1      -1.853  12.544  23.143  0.00  0.00    +0.000 A 
ATOM     28  C   UNL     1      -1.153  13.740  23.377  0.00  0.00    +0.000 A 
ATOM     29  C   UNL     1      -1.703  14.779  24.133  0.00  0.00    +0.000 A 
ATOM     30  C   UNL     1      -2.970  14.635  24.673  0.00  0.00    +0.000 A 
ATOM     31  F   UNL     1      -3.498  15.627  25.403  0.00  0.00    +0.000 F 
ATOM     32  C   UNL     1      -3.696  13.475  24.467  0.00  0.00    +0.000 A 
ATOM     33  C   UNL     1      -3.137  12.442  23.706  0.00  0.00    +0.000 A 
ENDBRANCH  24  27
ENDBRANCH  18  19
ENDBRANCH   1  18
TORSDOF 4
ENDMDL
MODEL 4
REMARK VINA RESULT:      -8.0      2.099      3.273
REMARK  Name = 
REMARK  5 active torsions:
REMARK  status: ('A' for Active; 'I' for Inactive)
REMARK    1  A    between atoms: C_1  and  C_2
REMARK    2  A    between atoms: C_12  and  C_13
REMARK    3  A    between atoms: C_13  and  C_14
REMARK    4  A    between atoms: C_14  and  C_15
REMARK    5  A    between atoms: N_20  and  C_21
REMARK                            x       y       z     vdW  Elec       q    Type
REMARK                         _______ _______ _______ _____ _____    ______ ____
ROOT
ATOM      1  C   UNL     1       2.857   5.627  18.151  0.00  0.00    +0.000 C 
ENDROOT
BRANCH   1  13
ATOM      2  C   UNL     1       6.560   1.912  10.852  0.00  0.00    +0.000 C 
ATOM      3  C   UNL     1       6.363   3.190  11.665  0.00  0.00    +0.000 C 
ATOM      4  C   UNL     1       7.622   3.508  12.482  0.00  0.00    +0.000 C 
ATOM      5  C   UNL     1       7.396   4.729  13.369  0.00  0.00    +0.000 C 
ATOM      6  N   UNL     1       6.246   4.482  14.240  0.00  0.00    +0.000 N 
ATOM      7  C   UNL     1       6.268   4.656  15.620  0.00  0.00    +0.000 A 
ATOM      8  C   UNL     1       7.568   4.473  16.363  0.00  0.00    +0.000 A 
ATOM      9  C   UNL     1       7.613   4.672  17.683  0.00  0.00    +0.000 A 
ATOM     10  C   UNL     1       6.430   5.019  18.353  0.00  0.00    +0.000 A 
ATOM     11  N   UNL     1       6.169   5.261  19.614  0.00  0.00    +0.000 NA
ATOM     12  N   UNL     1       4.825   5.521  19.716  0.00  0.00    +0.000 NA
ATOM     13  C   UNL     1       4.292   5.432  18.511  0.00  0.00    +0.000 A 
ATOM     14  N   UNL     1       5.279   5.116  17.599  0.00  0.00    +0.000 N 
ATOM     15  N   UNL     1       5.152   4.947  16.249  0.00  0.00    +0.000 NA
ATOM     16  C   UNL     1       4.992   4.287  13.505  0.00  0.00    +0.000 C 
ATOM     17  C   UNL     1       5.137   3.070  12.585  0.00  0.00    +0.000 C 
ENDBRANCH   1  13
BRANCH   1  18
ATOM     18  C   UNL     1       2.199   6.656  19.072  0.00  0.00    +0.000 C 
BRANCH  18  19
ATOM     19  C   UNL     1       2.126   8.041  18.460  0.00  0.00    +0.000 C 
ATOM     20  O   UNL     1       2.512   8.256  17.311  0.00  0.00    +0.000 OA
ATOM     21  N   UNL     1       1.566   9.031  19.252  0.00  0.00    +0.000 N 
ATOM     22  C   UNL     1       1.281  10.354  18.680  0.00  0.00    +0.000 C 
ATOM     23  C   UNL     1      -0.192  10.756  18.915  0.00  0.00    +0.000 C 
ATOM     24  N   UNL     1      -0.517  10.635  20.350  0.00  0.00    +0.000 N 
ATOM     25  C   UNL     1      -0.248   9.309  20.934  0.00  0.00    +0.000 C 
ATOM     26  C   UNL     1       1.214   8.905  20.676  0.00  0.00    +0.000 C 
BRANCH  24  27
ATOM     27  C   UNL     1      -1.144  11.639  21.057  0.00  0.00    +0.000 A 
ATOM     28  C   UNL     1      -0.974  11.790  22.443  0.00  0.00    +0.000 A 
ATOM     29  C   UNL     1      -1.636  12.790  23.162  0.00  0.00    +0.000 A 
ATOM     30  C   UNL     1      -2.486  13.659  22.499  0.00  0.00    +0.000 A 
ATOM     31  F   UNL     1      -3.127  14.615  23.185  0.00  0.00    +0.000 F 
ATOM     32  C   UNL     1      -2.683  13.547  21.133  0.00  0.00    +0.000 A 
ATOM     33  C   UNL     1      -2.014  12.544  20.423  0.00  0.00    +0.000 A 
ENDBRANCH  24  27
ENDBRANCH  18  19
ENDBRANCH   1  18
TORSDOF 4
ENDMDL
MODEL 5
REMARK VINA RESULT:      -7.9      1.425      1.555
REMARK  Name = 
REMARK  5 active torsions:
REMARK  status: ('A' for Active; 'I' for Inactive)
REMARK    1  A    between atoms: C_1  and  C_2
REMARK    2  A    between atoms: C_12  and  C_13
REMARK    3  A    between atoms: C_13  and  C_14
REMARK    4  A    between atoms: C_14  and  C_15
REMARK    5  A    between atoms: N_20  and  C_21
REMARK                            x       y       z     vdW  Elec       q    Type
REMARK                         _______ _______ _______ _____ _____    ______ ____
ROOT
ATOM      1  C   UNL     1       0.883   5.502  20.437  0.00  0.00    +0.000 C 
ENDROOT
BRANCH   1  13
ATOM      2  C   UNL     1       7.001   4.861  13.884  0.00  0.00    +0.000 C 
ATOM      3  C   UNL     1       6.724   5.285  15.325  0.00  0.00    +0.000 C 
ATOM      4  C   UNL     1       7.261   4.237  16.308  0.00  0.00    +0.000 C 
ATOM      5  C   UNL     1       6.901   4.608  17.744  0.00  0.00    +0.000 C 
ATOM      6  N   UNL     1       5.448   4.744  17.854  0.00  0.00    +0.000 N 
ATOM      7  C   UNL     1       4.682   4.106  18.824  0.00  0.00    +0.000 A 
ATOM      8  C   UNL     1       5.153   2.787  19.382  0.00  0.00    +0.000 A 
ATOM      9  C   UNL     1       4.446   2.180  20.340  0.00  0.00    +0.000 A 
ATOM     10  C   UNL     1       3.258   2.779  20.782  0.00  0.00    +0.000 A 
ATOM     11  N   UNL     1       2.371   2.422  21.678  0.00  0.00    +0.000 NA
ATOM     12  N   UNL     1       1.379   3.371  21.681  0.00  0.00    +0.000 NA
ATOM     13  C   UNL     1       1.682   4.291  20.781  0.00  0.00    +0.000 A 
ATOM     14  N   UNL     1       2.880   3.960  20.180  0.00  0.00    +0.000 N 
ATOM     15  N   UNL     1       3.551   4.653  19.211  0.00  0.00    +0.000 NA
ATOM     16  C   UNL     1       4.900   5.816  17.016  0.00  0.00    +0.000 C 
ATOM     17  C   UNL     1       5.220   5.516  15.548  0.00  0.00    +0.000 C 
ENDBRANCH   1  13
BRANCH   1  18
ATOM     18  C   UNL     1       1.559   6.770  20.963  0.00  0.00    +0.000 C 
BRANCH  18  19
ATOM     19  C   UNL     1       1.754   7.826  19.893  0.00  0.00    +0.000 C 
ATOM     20  O   UNL     1       2.292   7.560  18.818  0.00  0.00    +0.000 OA
ATOM     21  N   UNL     1       1.257   9.087  20.182  0.00  0.00    +0.000 N 
ATOM     22  C   UNL     1       1.231  10.122  19.139  0.00  0.00    +0.000 C 
ATOM     23  C   UNL     1      -0.186  10.718  18.983  0.00  0.00    +0.000 C 
ATOM     24  N   UNL     1      -0.682  11.171  20.297  0.00  0.00    +0.000 N 
ATOM     25  C   UNL     1      -0.673  10.140  21.349  0.00  0.00    +0.000 C 
ATOM     26  C   UNL     1       0.736   9.535  21.484  0.00  0.00    +0.000 C 
BRANCH  24  27
ATOM     27  C   UNL     1      -1.233  12.420  20.492  0.00  0.00    +0.000 A 
ATOM     28  C   UNL     1      -0.584  13.594  20.072  0.00  0.00    +0.000 A 
ATOM     29  C   UNL     1      -1.132  14.860  20.300  0.00  0.00    +0.000 A 
ATOM     30  C   UNL     1      -2.346  14.971  20.957  0.00  0.00    +0.000 A 
ATOM     31  F   UNL     1      -2.871  16.183  21.182  0.00  0.00    +0.000 F 
ATOM     32  C   UNL     1      -3.021  13.841  21.387  0.00  0.00    +0.000 A 
ATOM     33  C   UNL     1      -2.465  12.579  21.153  0.00  0.00    +0.000 A 
ENDBRANCH  24  27
ENDBRANCH  18  19
ENDBRANCH   1  18
TORSDOF 4
ENDMDL
MODEL 6
REMARK VINA RESULT:      -7.9      4.531     11.580
REMARK  Name = 
REMARK  5 active torsions:
REMARK  status: ('A' for Active; 'I' for Inactive)
REMARK    1  A    between atoms: C_1  and  C_2
REMARK    2  A    between atoms: C_12  and  C_13
REMARK    3  A    between atoms: C_13  and  C_14
REMARK    4  A    between atoms: C_14  and  C_15
REMARK    5  A    between atoms: N_20  and  C_21
REMARK                            x       y       z     vdW  Elec       q    Type
REMARK                         _______ _______ _______ _____ _____    ______ ____
ROOT
ATOM      1  C   UNL     1      -0.424  11.192  18.724  0.00  0.00    +0.000 C 
ENDROOT
BRANCH   1  13
ATOM      2  C   UNL     1      -7.217  13.527  24.127  0.00  0.00    +0.000 C 
ATOM      3  C   UNL     1      -6.365  13.914  22.920  0.00  0.00    +0.000 C 
ATOM      4  C   UNL     1      -7.127  13.652  21.615  0.00  0.00    +0.000 C 
ATOM      5  C   UNL     1      -6.244  13.944  20.405  0.00  0.00    +0.000 C 
ATOM      6  N   UNL     1      -5.033  13.127  20.486  0.00  0.00    +0.000 N 
ATOM      7  C   UNL     1      -4.568  12.326  19.448  0.00  0.00    +0.000 A 
ATOM      8  C   UNL     1      -5.557  11.746  18.468  0.00  0.00    +0.000 A 
ATOM      9  C   UNL     1      -5.122  11.004  17.445  0.00  0.00    +0.000 A 
ATOM     10  C   UNL     1      -3.747  10.759  17.328  0.00  0.00    +0.000 A 
ATOM     11  N   UNL     1      -3.044  10.077  16.458  0.00  0.00    +0.000 NA
ATOM     12  N   UNL     1      -1.728  10.143  16.845  0.00  0.00    +0.000 NA
ATOM     13  C   UNL     1      -1.656  10.867  17.948  0.00  0.00    +0.000 A 
ATOM     14  N   UNL     1      -2.922  11.290  18.298  0.00  0.00    +0.000 N 
ATOM     15  N   UNL     1      -3.282  12.070  19.361  0.00  0.00    +0.000 NA
ATOM     16  C   UNL     1      -4.209  13.425  21.662  0.00  0.00    +0.000 C 
ATOM     17  C   UNL     1      -5.029  13.154  22.928  0.00  0.00    +0.000 C 
ENDBRANCH   1  13
BRANCH   1  18
ATOM     18  C   UNL     1       0.670  10.153  18.471  0.00  0.00    +0.000 C 
BRANCH  18  19
ATOM     19  C   UNL     1       1.087   9.411  19.726  0.00  0.00    +0.000 C 
ATOM     20  O   UNL     1       0.822   9.846  20.847  0.00  0.00    +0.000 OA
ATOM     21  N   UNL     1       1.742   8.205  19.533  0.00  0.00    +0.000 N 
ATOM     22  C   UNL     1       2.016   7.327  20.680  0.00  0.00    +0.000 C 
ATOM     23  C   UNL     1       1.471   5.903  20.433  0.00  0.00    +0.000 C 
ATOM     24  N   UNL     1       1.982   5.393  19.146  0.00  0.00    +0.000 N 
ATOM     25  C   UNL     1       1.703   6.256  17.985  0.00  0.00    +0.000 C 
ATOM     26  C   UNL     1       2.228   7.679  18.247  0.00  0.00    +0.000 C 
BRANCH  24  27
ATOM     27  C   UNL     1       2.557   4.146  19.017  0.00  0.00    +0.000 A 
ATOM     28  C   UNL     1       3.330   3.574  20.042  0.00  0.00    +0.000 A 
ATOM     29  C   UNL     1       3.937   2.322  19.895  0.00  0.00    +0.000 A 
ATOM     30  C   UNL     1       3.781   1.622  18.711  0.00  0.00    +0.000 A 
ATOM     31  F   UNL     1       4.366   0.425  18.565  0.00  0.00    +0.000 F 
ATOM     32  C   UNL     1       3.027   2.147  17.675  0.00  0.00    +0.000 A 
ATOM     33  C   UNL     1       2.422   3.399  17.833  0.00  0.00    +0.000 A 
ENDBRANCH  24  27
ENDBRANCH  18  19
ENDBRANCH   1  18
TORSDOF 4
ENDMDL
MODEL 7
REMARK VINA RESULT:      -7.7      2.308      3.204
REMARK  Name = 
REMARK  5 active torsions:
REMARK  status: ('A' for Active; 'I' for Inactive)
REMARK    1  A    between atoms: C_1  and  C_2
REMARK    2  A    between atoms: C_12  and  C_13
REMARK    3  A    between atoms: C_13  and  C_14
REMARK    4  A    between atoms: C_14  and  C_15
REMARK    5  A    between atoms: N_20  and  C_21
REMARK                            x       y       z     vdW  Elec       q    Type
REMARK                         _______ _______ _______ _____ _____    ______ ____
ROOT
ATOM      1  C   UNL     1       1.769   9.859  18.227  0.00  0.00    +0.000 C 
ENDROOT
BRANCH   1  13
ATOM      2  C   UNL     1       6.284   3.595  13.627  0.00  0.00    +0.000 C 
ATOM      3  C   UNL     1       6.340   4.638  14.742  0.00  0.00    +0.000 C 
ATOM      4  C   UNL     1       6.252   3.961  16.117  0.00  0.00    +0.000 C 
ATOM      5  C   UNL     1       6.209   5.005  17.229  0.00  0.00    +0.000 C 
ATOM      6  N   UNL     1       5.073   5.899  17.004  0.00  0.00    +0.000 N 
ATOM      7  C   UNL     1       4.119   6.200  17.972  0.00  0.00    +0.000 A 
ATOM      8  C   UNL     1       3.813   5.182  19.042  0.00  0.00    +0.000 A 
ATOM      9  C   UNL     1       2.925   5.470  19.999  0.00  0.00    +0.000 A 
ATOM     10  C   UNL     1       2.276   6.712  19.963  0.00  0.00    +0.000 A 
ATOM     11  N   UNL     1       1.374   7.258  20.741  0.00  0.00    +0.000 NA
ATOM     12  N   UNL     1       1.064   8.489  20.216  0.00  0.00    +0.000 NA
ATOM     13  C   UNL     1       1.787   8.668  19.125  0.00  0.00    +0.000 A 
ATOM     14  N   UNL     1       2.585   7.561  18.921  0.00  0.00    +0.000 N 
ATOM     15  N   UNL     1       3.488   7.351  17.916  0.00  0.00    +0.000 NA
ATOM     16  C   UNL     1       5.170   6.657  15.753  0.00  0.00    +0.000 C 
ATOM     17  C   UNL     1       5.218   5.675  14.577  0.00  0.00    +0.000 C 
ENDBRANCH   1  13
BRANCH   1  18
ATOM     18  C   UNL     1       1.282  11.101  18.977  0.00  0.00    +0.000 C 
BRANCH  18  19
ATOM     19  C   UNL     1      -0.207  11.342  18.824  0.00  0.00    +0.000 C 
ATOM     20  O   UNL     1      -0.884  10.692  18.028  0.00  0.00    +0.000 OA
ATOM     21  N   UNL     1      -0.759  12.302  19.657  0.00  0.00    +0.000 N 
ATOM     22  C   UNL     1      -2.218  12.472  19.714  0.00  0.00    +0.000 C 
ATOM     23  C   UNL     1      -2.732  12.382  21.168  0.00  0.00    +0.000 C 
ATOM     24  N   UNL     1      -1.980  13.325  22.019  0.00  0.00    +0.000 N 
ATOM     25  C   UNL     1      -0.516  13.158  21.982  0.00  0.00    +0.000 C 
ATOM     26  C   UNL     1      -0.014  13.225  20.528  0.00  0.00    +0.000 C 
BRANCH  24  27
ATOM     27  C   UNL     1      -2.600  14.204  22.882  0.00  0.00    +0.000 A 
ATOM     28  C   UNL     1      -3.681  15.005  22.477  0.00  0.00    +0.000 A 
ATOM     29  C   UNL     1      -4.288  15.918  23.346  0.00  0.00    +0.000 A 
ATOM     30  C   UNL     1      -3.815  16.045  24.641  0.00  0.00    +0.000 A 
ATOM     31  F   UNL     1      -4.390  16.922  25.475  0.00  0.00    +0.000 F 
ATOM     32  C   UNL     1      -2.753  15.275  25.083  0.00  0.00    +0.000 A 
ATOM     33  C   UNL     1      -2.155  14.363  24.206  0.00  0.00    +0.000 A 
ENDBRANCH  24  27
ENDBRANCH  18  19
ENDBRANCH   1  18
TORSDOF 4
ENDMDL
MODEL 8
REMARK VINA RESULT:      -7.7      5.918     10.023
REMARK  Name = 
REMARK  5 active torsions:
REMARK  status: ('A' for Active; 'I' for Inactive)
REMARK    1  A    between atoms: C_1  and  C_2
REMARK    2  A    between atoms: C_12  and  C_13
REMARK    3  A    between atoms: C_13  and  C_14
REMARK    4  A    between atoms: C_14  and  C_15
REMARK    5  A    between atoms: N_20  and  C_21
REMARK                            x       y       z     vdW  Elec       q    Type
REMARK                         _______ _______ _______ _____ _____    ______ ____
ROOT
ATOM      1  C   UNL     1       1.099  13.601  19.959  0.00  0.00    +0.000 C 
ENDROOT
BRANCH   1  13
ATOM      2  C   UNL     1       9.702  15.030  17.787  0.00  0.00    +0.000 C 
ATOM      3  C   UNL     1       8.285  15.599  17.799  0.00  0.00    +0.000 C 
ATOM      4  C   UNL     1       8.119  16.606  18.945  0.00  0.00    +0.000 C 
ATOM      5  C   UNL     1       6.678  17.104  19.021  0.00  0.00    +0.000 C 
ATOM      6  N   UNL     1       5.783  15.958  19.187  0.00  0.00    +0.000 N 
ATOM      7  C   UNL     1       4.812  15.870  20.179  0.00  0.00    +0.000 A 
ATOM      8  C   UNL     1       5.030  16.590  21.486  0.00  0.00    +0.000 A 
ATOM      9  C   UNL     1       4.091  16.545  22.435  0.00  0.00    +0.000 A 
ATOM     10  C   UNL     1       2.928  15.797  22.197  0.00  0.00    +0.000 A 
ATOM     11  N   UNL     1       1.864  15.566  22.925  0.00  0.00    +0.000 NA
ATOM     12  N   UNL     1       1.043  14.733  22.206  0.00  0.00    +0.000 NA
ATOM     13  C   UNL     1       1.626  14.472  21.050  0.00  0.00    +0.000 A 
ATOM     14  N   UNL     1       2.836  15.134  20.991  0.00  0.00    +0.000 N 
ATOM     15  N   UNL     1       3.739  15.142  19.966  0.00  0.00    +0.000 NA
ATOM     16  C   UNL     1       5.821  15.023  18.058  0.00  0.00    +0.000 C 
ATOM     17  C   UNL     1       7.244  14.474  17.913  0.00  0.00    +0.000 C 
ENDBRANCH   1  13
BRANCH   1  18
ATOM     18  C   UNL     1       1.474  12.138  20.199  0.00  0.00    +0.000 C 
BRANCH  18  19
ATOM     19  C   UNL     1       1.688  11.361  18.915  0.00  0.00    +0.000 C 
ATOM     20  O   UNL     1       2.091  11.912  17.891  0.00  0.00    +0.000 OA
ATOM     21  N   UNL     1       1.443   9.998  18.977  0.00  0.00    +0.000 N 
ATOM     22  C   UNL     1       1.801   9.136  17.843  0.00  0.00    +0.000 C 
ATOM     23  C   UNL     1       2.696   7.962  18.297  0.00  0.00    +0.000 C 
ATOM     24  N   UNL     1       2.050   7.249  19.417  0.00  0.00    +0.000 N 
ATOM     25  C   UNL     1       1.697   8.100  20.568  0.00  0.00    +0.000 C 
ATOM     26  C   UNL     1       0.824   9.280  20.104  0.00  0.00    +0.000 C 
BRANCH  24  27
ATOM     27  C   UNL     1       1.908   5.878  19.442  0.00  0.00    +0.000 A 
ATOM     28  C   UNL     1       1.544   5.190  20.612  0.00  0.00    +0.000 A 
ATOM     29  C   UNL     1       1.431   3.796  20.641  0.00  0.00    +0.000 A 
ATOM     30  C   UNL     1       1.683   3.066  19.492  0.00  0.00    +0.000 A 
ATOM     31  F   UNL     1       1.581   1.730  19.518  0.00  0.00    +0.000 F 
ATOM     32  C   UNL     1       2.043   3.703  18.317  0.00  0.00    +0.000 A 
ATOM     33  C   UNL     1       2.151   5.098  18.298  0.00  0.00    +0.000 A 
ENDBRANCH  24  27
ENDBRANCH  18  19
ENDBRANCH   1  18
TORSDOF 4
ENDMDL
MODEL 9
REMARK VINA RESULT:      -7.7      4.175     11.145
REMARK  Name = 
REMARK  5 active torsions:
REMARK  status: ('A' for Active; 'I' for Inactive)
REMARK    1  A    between atoms: C_1  and  C_2
REMARK    2  A    between atoms: C_12  and  C_13
REMARK    3  A    between atoms: C_13  and  C_14
REMARK    4  A    between atoms: C_14  and  C_15
REMARK    5  A    between atoms: N_20  and  C_21
REMARK                            x       y       z     vdW  Elec       q    Type
REMARK                         _______ _______ _______ _____ _____    ______ ____
ROOT
ATOM      1  C   UNL     1       1.225  13.648  20.080  0.00  0.00    +0.000 C 
ENDROOT
BRANCH   1  13
ATOM      2  C   UNL     1      -7.751  13.291  19.771  0.00  0.00    +0.000 C 
ATOM      3  C   UNL     1      -6.476  12.685  20.353  0.00  0.00    +0.000 C 
ATOM      4  C   UNL     1      -6.268  13.156  21.799  0.00  0.00    +0.000 C 
ATOM      5  C   UNL     1      -4.945  12.631  22.352  0.00  0.00    +0.000 C 
ATOM      6  N   UNL     1      -3.853  13.076  21.487  0.00  0.00    +0.000 N 
ATOM      7  C   UNL     1      -2.710  13.719  21.950  0.00  0.00    +0.000 A 
ATOM      8  C   UNL     1      -2.794  14.556  23.202  0.00  0.00    +0.000 A 
ATOM      9  C   UNL     1      -1.696  15.150  23.680  0.00  0.00    +0.000 A 
ATOM     10  C   UNL     1      -0.490  15.000  22.979  0.00  0.00    +0.000 A 
ATOM     11  N   UNL     1       0.717  15.461  23.194  0.00  0.00    +0.000 NA
ATOM     12  N   UNL     1       1.516  15.027  22.165  0.00  0.00    +0.000 NA
ATOM     13  C   UNL     1       0.775  14.308  21.340  0.00  0.00    +0.000 A 
ATOM     14  N   UNL     1      -0.518  14.256  21.819  0.00  0.00    +0.000 N 
ATOM     15  N   UNL     1      -1.589  13.604  21.273  0.00  0.00    +0.000 NA
ATOM     16  C   UNL     1      -3.946  12.555  20.119  0.00  0.00    +0.000 C 
ATOM     17  C   UNL     1      -5.256  13.040  19.489  0.00  0.00    +0.000 C 
ENDBRANCH   1  13
BRANCH   1  18
ATOM     18  C   UNL     1       1.269  12.128  20.246  0.00  0.00    +0.000 C 
BRANCH  18  19
ATOM     19  C   UNL     1       1.551  11.396  18.949  0.00  0.00    +0.000 C 
ATOM     20  O   UNL     1       1.950  11.992  17.949  0.00  0.00    +0.000 OA
ATOM     21  N   UNL     1       1.371  10.022  18.971  0.00  0.00    +0.000 N 
ATOM     22  C   UNL     1       1.797   9.208  17.824  0.00  0.00    +0.000 C 
ATOM     23  C   UNL     1       2.737   8.067  18.270  0.00  0.00    +0.000 C 
ATOM     24  N   UNL     1       2.100   7.295  19.356  0.00  0.00    +0.000 N 
ATOM     25  C   UNL     1       1.679   8.097  20.518  0.00  0.00    +0.000 C 
ATOM     26  C   UNL     1       0.762   9.246  20.063  0.00  0.00    +0.000 C 
BRANCH  24  27
ATOM     27  C   UNL     1       2.024   5.918  19.343  0.00  0.00    +0.000 A 
ATOM     28  C   UNL     1       1.788   5.176  20.512  0.00  0.00    +0.000 A 
ATOM     29  C   UNL     1       1.742   3.778  20.501  0.00  0.00    +0.000 A 
ATOM     30  C   UNL     1       1.935   3.098  19.309  0.00  0.00    +0.000 A 
ATOM     31  F   UNL     1       1.897   1.759  19.295  0.00  0.00    +0.000 F 
ATOM     32  C   UNL     1       2.169   3.790  18.133  0.00  0.00    +0.000 A 
ATOM     33  C   UNL     1       2.211   5.188  18.156  0.00  0.00    +0.000 A 
ENDBRANCH  24  27
ENDBRANCH  18  19
ENDBRANCH   1  18
TORSDOF 4
ENDMDL
