MODEL 1
REMARK VINA RESULT:      -7.0      0.000      0.000
REMARK  Name = 
REMARK  3 active torsions:
REMARK  status: ('A' for Active; 'I' for Inactive)
REMARK    1  A    between atoms: C_2  and  C_3
REMARK    2  A    between atoms: C_3  and  N_4
REMARK    3  A    between atoms: N_7  and  C_8
REMARK                            x       y       z     vdW  Elec       q    Type
REMARK                         _______ _______ _______ _____ _____    ______ ____
ROOT
ATOM      1  N   UNL     1      -0.153  12.432  19.913  0.00  0.00    +0.000 N 
ATOM      2  C   UNL     1      -0.810  13.269  20.844  0.00  0.00    +0.000 A 
ATOM      3  O   UNL     1      -0.936  14.477  20.616  0.00  0.00    +0.000 OA
ATOM      4  N   UNL     1      -1.277  12.676  22.028  0.00  0.00    +0.000 N 
ATOM      5  C   UNL     1      -1.031  11.352  22.410  0.00  0.00    +0.000 A 
ATOM      6  O   UNL     1      -1.468  10.854  23.447  0.00  0.00    +0.000 OA
ATOM      7  C   UNL     1      -0.250  10.617  21.459  0.00  0.00    +0.000 A 
ATOM      8  S   UNL     1       0.207   9.020  21.762  0.00  0.00    +0.000 S 
ATOM      9  C   UNL     1       1.038   8.906  20.267  0.00  0.00    +0.000 A 
ATOM     10  C   UNL     1       1.735   7.771  19.809  0.00  0.00    +0.000 A 
ATOM     11  C   UNL     1       2.368   7.814  18.571  0.00  0.00    +0.000 A 
ATOM     12  C   UNL     1       2.314   8.965  17.808  0.00  0.00    +0.000 A 
ATOM     13  C   UNL     1       1.628  10.096  18.274  0.00  0.00    +0.000 A 
ATOM     14  C   UNL     1       0.953  10.102  19.528  0.00  0.00    +0.000 A 
ATOM     15  C   UNL     1       0.181  11.106  20.251  0.00  0.00    +0.000 A 
ENDROOT
BRANCH   4  16
ATOM     16  C   UNL     1      -2.021  13.493  22.944  0.00  0.00    +0.000 A 
ATOM     17  C   UNL     1      -1.323  14.216  23.927  0.00  0.00    +0.000 A 
ATOM     18  C   UNL     1      -2.006  15.007  24.852  0.00  0.00    +0.000 A 
ATOM     19  C   UNL     1      -3.396  15.080  24.813  0.00  0.00    +0.000 A 
ATOM     20  C   UNL     1      -4.105  14.357  23.852  0.00  0.00    +0.000 A 
ATOM     21  C   UNL     1      -3.425  13.565  22.919  0.00  0.00    +0.000 A 
ATOM     22 CL   UNL     1      -4.386  12.586  21.861  0.00  0.00    +0.000 Cl
ENDBRANCH   4  16
BRANCH   1  23
ATOM     23  C   UNL     1       0.255  13.091  18.677  0.00  0.00    +0.000 C 
BRANCH  23  25
ATOM     24  O   UNL     1       2.644  13.157  19.115  0.00  0.00    +0.000 OA
ATOM     25  C   UNL     1       1.627  13.777  18.800  0.00  0.00    +0.000 C 
ATOM     26  N   UNL     1       1.671  15.116  18.442  0.00  0.00    +0.000 N 
ATOM     27  C   UNL     1       2.928  15.843  18.382  0.00  0.00    +0.000 C 
ATOM     28  C   UNL     1       2.599  17.182  19.016  0.00  0.00    +0.000 C 
ATOM     29  C   UNL     1       1.169  17.430  18.550  0.00  0.00    +0.000 C 
ATOM     30  C   UNL     1       0.547  16.037  18.530  0.00  0.00    +0.000 C 
ENDBRANCH  23  25
ENDBRANCH   1  23
TORSDOF 3
ENDMDL
MODEL 2
REMARK VINA RESULT:      -7.0      2.764      3.910
REMARK  Name = 
REMARK  3 active torsions:
REMARK  status: ('A' for Active; 'I' for Inactive)
REMARK    1  A    between atoms: C_2  and  C_3
REMARK    2  A    between atoms: C_3  and  N_4
REMARK    3  A    between atoms: N_7  and  C_8
REMARK                            x       y       z     vdW  Elec       q    Type
REMARK                         _______ _______ _______ _____ _____    ______ ____
ROOT
ATOM      1  N   UNL     1      -0.834  11.478  19.769  0.00  0.00    +0.000 N 
ATOM      2  C   UNL     1      -1.417  12.333  20.733  0.00  0.00    +0.000 A 
ATOM      3  O   UNL     1      -1.984  13.373  20.382  0.00  0.00    +0.000 OA
ATOM      4  N   UNL     1      -1.298  11.962  22.082  0.00  0.00    +0.000 N 
ATOM      5  C   UNL     1      -0.540  10.881  22.549  0.00  0.00    +0.000 A 
ATOM      6  O   UNL     1      -0.467  10.569  23.737  0.00  0.00    +0.000 OA
ATOM      7  C   UNL     1       0.116  10.148  21.506  0.00  0.00    +0.000 A 
ATOM      8  S   UNL     1       1.127   8.845  21.868  0.00  0.00    +0.000 S 
ATOM      9  C   UNL     1       1.469   8.568  20.211  0.00  0.00    +0.000 A 
ATOM     10  C   UNL     1       2.323   7.563  19.715  0.00  0.00    +0.000 A 
ATOM     11  C   UNL     1       2.513   7.448  18.341  0.00  0.00    +0.000 A 
ATOM     12  C   UNL     1       1.870   8.319  17.481  0.00  0.00    +0.000 A 
ATOM     13  C   UNL     1       1.030   9.323  17.982  0.00  0.00    +0.000 A 
ATOM     14  C   UNL     1       0.791   9.477  19.377  0.00  0.00    +0.000 A 
ATOM     15  C   UNL     1      -0.010  10.407  20.164  0.00  0.00    +0.000 A 
ENDROOT
BRANCH   4  16
ATOM     16  C   UNL     1      -1.957  12.772  23.065  0.00  0.00    +0.000 A 
ATOM     17  C   UNL     1      -3.200  12.349  23.569  0.00  0.00    +0.000 A 
ATOM     18  C   UNL     1      -3.888  13.115  24.512  0.00  0.00    +0.000 A 
ATOM     19  C   UNL     1      -3.347  14.318  24.958  0.00  0.00    +0.000 A 
ATOM     20  C   UNL     1      -2.120  14.759  24.458  0.00  0.00    +0.000 A 
ATOM     21  C   UNL     1      -1.425  13.993  23.514  0.00  0.00    +0.000 A 
ATOM     22 CL   UNL     1       0.011  14.685  22.836  0.00  0.00    +0.000 Cl
ENDBRANCH   4  16
BRANCH   1  23
ATOM     23  C   UNL     1      -1.043  11.884  18.383  0.00  0.00    +0.000 C 
BRANCH  23  25
ATOM     24  O   UNL     1      -1.795  10.198  16.804  0.00  0.00    +0.000 OA
ATOM     25  C   UNL     1      -2.098  11.022  17.669  0.00  0.00    +0.000 C 
ATOM     26  N   UNL     1      -3.401  11.155  18.125  0.00  0.00    +0.000 N 
ATOM     27  C   UNL     1      -4.467  10.300  17.631  0.00  0.00    +0.000 C 
ATOM     28  C   UNL     1      -5.630  11.255  17.431  0.00  0.00    +0.000 C 
ATOM     29  C   UNL     1      -5.460  12.235  18.586  0.00  0.00    +0.000 C 
ATOM     30  C   UNL     1      -3.947  12.357  18.740  0.00  0.00    +0.000 C 
ENDBRANCH  23  25
ENDBRANCH   1  23
TORSDOF 3
ENDMDL
MODEL 3
REMARK VINA RESULT:      -6.9      3.394      7.116
REMARK  Name = 
REMARK  3 active torsions:
REMARK  status: ('A' for Active; 'I' for Inactive)
REMARK    1  A    between atoms: C_2  and  C_3
REMARK    2  A    between atoms: C_3  and  N_4
REMARK    3  A    between atoms: N_7  and  C_8
REMARK                            x       y       z     vdW  Elec       q    Type
REMARK                         _______ _______ _______ _____ _____    ______ ____
ROOT
ATOM      1  N   UNL     1      -1.554  13.789  20.262  0.00  0.00    +0.000 N 
ATOM      2  C   UNL     1      -0.782  14.527  19.336  0.00  0.00    +0.000 A 
ATOM      3  O   UNL     1      -0.270  13.964  18.362  0.00  0.00    +0.000 OA
ATOM      4  N   UNL     1      -0.606  15.897  19.588  0.00  0.00    +0.000 N 
ATOM      5  C   UNL     1      -1.030  16.557  20.748  0.00  0.00    +0.000 A 
ATOM      6  O   UNL     1      -0.877  17.763  20.935  0.00  0.00    +0.000 OA
ATOM      7  C   UNL     1      -1.694  15.699  21.685  0.00  0.00    +0.000 A 
ATOM      8  S   UNL     1      -2.227  16.290  23.174  0.00  0.00    +0.000 S 
ATOM      9  C   UNL     1      -2.844  14.758  23.634  0.00  0.00    +0.000 A 
ATOM     10  C   UNL     1      -3.473  14.470  24.861  0.00  0.00    +0.000 A 
ATOM     11  C   UNL     1      -3.929  13.179  25.106  0.00  0.00    +0.000 A 
ATOM     12  C   UNL     1      -3.758  12.194  24.152  0.00  0.00    +0.000 A 
ATOM     13  C   UNL     1      -3.122  12.484  22.936  0.00  0.00    +0.000 A 
ATOM     14  C   UNL     1      -2.647  13.791  22.630  0.00  0.00    +0.000 A 
ATOM     15  C   UNL     1      -1.964  14.369  21.478  0.00  0.00    +0.000 A 
ENDROOT
BRANCH   4  16
ATOM     16  C   UNL     1       0.102  16.677  18.614  0.00  0.00    +0.000 A 
ATOM     17  C   UNL     1      -0.635  17.426  17.680  0.00  0.00    +0.000 A 
ATOM     18  C   UNL     1       0.010  18.184  16.702  0.00  0.00    +0.000 A 
ATOM     19  C   UNL     1       1.402  18.196  16.638  0.00  0.00    +0.000 A 
ATOM     20  C   UNL     1       2.148  17.448  17.549  0.00  0.00    +0.000 A 
ATOM     21  C   UNL     1       1.506  16.689  18.535  0.00  0.00    +0.000 A 
ATOM     22 CL   UNL     1       2.500  15.673  19.526  0.00  0.00    +0.000 Cl
ENDBRANCH   4  16
BRANCH   1  23
ATOM     23  C   UNL     1      -1.752  12.385  19.915  0.00  0.00    +0.000 C 
BRANCH  23  25
ATOM     24  O   UNL     1      -4.158  12.488  19.598  0.00  0.00    +0.000 OA
ATOM     25  C   UNL     1      -3.064  12.148  19.147  0.00  0.00    +0.000 C 
ATOM     26  N   UNL     1      -2.934  11.616  17.872  0.00  0.00    +0.000 N 
ATOM     27  C   UNL     1      -4.081  11.472  16.992  0.00  0.00    +0.000 C 
ATOM     28  C   UNL     1      -3.882  10.104  16.366  0.00  0.00    +0.000 C 
ATOM     29  C   UNL     1      -2.368  10.022  16.212  0.00  0.00    +0.000 C 
ATOM     30  C   UNL     1      -1.838  10.761  17.437  0.00  0.00    +0.000 C 
ENDBRANCH  23  25
ENDBRANCH   1  23
TORSDOF 3
ENDMDL
MODEL 4
REMARK VINA RESULT:      -6.9      2.881      4.764
REMARK  Name = 
REMARK  3 active torsions:
REMARK  status: ('A' for Active; 'I' for Inactive)
REMARK    1  A    between atoms: C_2  and  C_3
REMARK    2  A    between atoms: C_3  and  N_4
REMARK    3  A    between atoms: N_7  and  C_8
REMARK                            x       y       z     vdW  Elec       q    Type
REMARK                         _______ _______ _______ _____ _____    ______ ____
ROOT
ATOM      1  N   UNL     1      -0.723  12.791  20.550  0.00  0.00    +0.000 N 
ATOM      2  C   UNL     1      -0.647  13.592  21.713  0.00  0.00    +0.000 A 
ATOM      3  O   UNL     1       0.420  13.703  22.325  0.00  0.00    +0.000 OA
ATOM      4  N   UNL     1      -1.828  14.220  22.143  0.00  0.00    +0.000 N 
ATOM      5  C   UNL     1      -3.094  14.010  21.582  0.00  0.00    +0.000 A 
ATOM      6  O   UNL     1      -4.109  14.588  21.969  0.00  0.00    +0.000 OA
ATOM      7  C   UNL     1      -3.089  13.085  20.487  0.00  0.00    +0.000 A 
ATOM      8  S   UNL     1      -4.526  12.652  19.713  0.00  0.00    +0.000 S 
ATOM      9  C   UNL     1      -3.704  11.607  18.631  0.00  0.00    +0.000 A 
ATOM     10  C   UNL     1      -4.316  10.832  17.627  0.00  0.00    +0.000 A 
ATOM     11  C   UNL     1      -3.528  10.024  16.815  0.00  0.00    +0.000 A 
ATOM     12  C   UNL     1      -2.159   9.984  17.002  0.00  0.00    +0.000 A 
ATOM     13  C   UNL     1      -1.556  10.749  18.011  0.00  0.00    +0.000 A 
ATOM     14  C   UNL     1      -2.315  11.602  18.861  0.00  0.00    +0.000 A 
ATOM     15  C   UNL     1      -1.968  12.489  19.966  0.00  0.00    +0.000 A 
ENDROOT
BRANCH   4  16
ATOM     16  C   UNL     1      -1.750  15.104  23.270  0.00  0.00    +0.000 A 
ATOM     17  C   UNL     1      -2.006  14.590  24.553  0.00  0.00    +0.000 A 
ATOM     18  C   UNL     1      -1.963  15.416  25.677  0.00  0.00    +0.000 A 
ATOM     19  C   UNL     1      -1.671  16.770  25.532  0.00  0.00    +0.000 A 
ATOM     20  C   UNL     1      -1.428  17.300  24.264  0.00  0.00    +0.000 A 
ATOM     21  C   UNL     1      -1.467  16.474  23.134  0.00  0.00    +0.000 A 
ATOM     22 CL   UNL     1      -1.302  17.239  21.588  0.00  0.00    +0.000 Cl
ENDBRANCH   4  16
BRANCH   1  23
ATOM     23  C   UNL     1       0.547  12.215  20.118  0.00  0.00    +0.000 C 
BRANCH  23  25
ATOM     24  O   UNL     1       0.770  10.638  21.952  0.00  0.00    +0.000 OA
ATOM     25  C   UNL     1       0.806  10.831  20.736  0.00  0.00    +0.000 C 
ATOM     26  N   UNL     1       0.986   9.789  19.838  0.00  0.00    +0.000 N 
ATOM     27  C   UNL     1       1.102   8.412  20.289  0.00  0.00    +0.000 C 
ATOM     28  C   UNL     1       2.227   7.850  19.439  0.00  0.00    +0.000 C 
ATOM     29  C   UNL     1       2.017   8.549  18.101  0.00  0.00    +0.000 C 
ATOM     30  C   UNL     1       1.517   9.937  18.490  0.00  0.00    +0.000 C 
ENDBRANCH  23  25
ENDBRANCH   1  23
TORSDOF 3
ENDMDL
MODEL 5
REMARK VINA RESULT:      -6.8      3.364      7.912
REMARK  Name = 
REMARK  3 active torsions:
REMARK  status: ('A' for Active; 'I' for Inactive)
REMARK    1  A    between atoms: C_2  and  C_3
REMARK    2  A    between atoms: C_3  and  N_4
REMARK    3  A    between atoms: N_7  and  C_8
REMARK                            x       y       z     vdW  Elec       q    Type
REMARK                         _______ _______ _______ _____ _____    ______ ____
ROOT
ATOM      1  N   UNL     1      -3.378  13.670  21.134  0.00  0.00    +0.000 N 
ATOM      2  C   UNL     1      -2.534  12.729  20.501  0.00  0.00    +0.000 A 
ATOM      3  O   UNL     1      -2.987  11.963  19.644  0.00  0.00    +0.000 OA
ATOM      4  N   UNL     1      -1.191  12.690  20.908  0.00  0.00    +0.000 N 
ATOM      5  C   UNL     1      -0.658  13.423  21.976  0.00  0.00    +0.000 A 
ATOM      6  O   UNL     1       0.528  13.382  22.300  0.00  0.00    +0.000 OA
ATOM      7  C   UNL     1      -1.620  14.256  22.636  0.00  0.00    +0.000 A 
ATOM      8  S   UNL     1      -1.190  15.174  23.986  0.00  0.00    +0.000 S 
ATOM      9  C   UNL     1      -2.775  15.809  24.140  0.00  0.00    +0.000 A 
ATOM     10  C   UNL     1      -3.197  16.709  25.139  0.00  0.00    +0.000 A 
ATOM     11  C   UNL     1      -4.517  17.146  25.147  0.00  0.00    +0.000 A 
ATOM     12  C   UNL     1      -5.400  16.693  24.185  0.00  0.00    +0.000 A 
ATOM     13  C   UNL     1      -4.977  15.789  23.200  0.00  0.00    +0.000 A 
ATOM     14  C   UNL     1      -3.635  15.319  23.139  0.00  0.00    +0.000 A 
ATOM     15  C   UNL     1      -2.930  14.399  22.252  0.00  0.00    +0.000 A 
ENDROOT
BRANCH   4  16
ATOM     16  C   UNL     1      -0.302  11.802  20.217  0.00  0.00    +0.000 A 
ATOM     17  C   UNL     1      -0.183  10.475  20.669  0.00  0.00    +0.000 A 
ATOM     18  C   UNL     1       0.685   9.581  20.041  0.00  0.00    +0.000 A 
ATOM     19  C   UNL     1       1.453  10.002  18.958  0.00  0.00    +0.000 A 
ATOM     20  C   UNL     1       1.357  11.319  18.506  0.00  0.00    +0.000 A 
ATOM     21  C   UNL     1       0.485  12.219  19.130  0.00  0.00    +0.000 A 
ATOM     22 CL   UNL     1       0.540  13.869  18.603  0.00  0.00    +0.000 Cl
ENDBRANCH   4  16
BRANCH   1  23
ATOM     23  C   UNL     1      -4.747  13.705  20.627  0.00  0.00    +0.000 C 
BRANCH  23  25
ATOM     24  O   UNL     1      -5.708  12.459  22.478  0.00  0.00    +0.000 OA
ATOM     25  C   UNL     1      -5.636  12.620  21.258  0.00  0.00    +0.000 C 
ATOM     26  N   UNL     1      -6.429  11.897  20.379  0.00  0.00    +0.000 N 
ATOM     27  C   UNL     1      -7.413  10.940  20.858  0.00  0.00    +0.000 C 
ATOM     28  C   UNL     1      -7.251   9.759  19.919  0.00  0.00    +0.000 C 
ATOM     29  C   UNL     1      -6.936  10.431  18.587  0.00  0.00    +0.000 C 
ATOM     30  C   UNL     1      -6.105  11.648  18.982  0.00  0.00    +0.000 C 
ENDBRANCH  23  25
ENDBRANCH   1  23
TORSDOF 3
ENDMDL
MODEL 6
REMARK VINA RESULT:      -6.8      3.770      4.929
REMARK  Name = 
REMARK  3 active torsions:
REMARK  status: ('A' for Active; 'I' for Inactive)
REMARK    1  A    between atoms: C_2  and  C_3
REMARK    2  A    between atoms: C_3  and  N_4
REMARK    3  A    between atoms: N_7  and  C_8
REMARK                            x       y       z     vdW  Elec       q    Type
REMARK                         _______ _______ _______ _____ _____    ______ ____
ROOT
ATOM      1  N   UNL     1      -3.323  12.374  20.274  0.00  0.00    +0.000 N 
ATOM      2  C   UNL     1      -4.094  12.845  21.362  0.00  0.00    +0.000 A 
ATOM      3  O   UNL     1      -3.579  12.985  22.476  0.00  0.00    +0.000 OA
ATOM      4  N   UNL     1      -5.452  13.114  21.123  0.00  0.00    +0.000 N 
ATOM      5  C   UNL     1      -6.124  12.831  19.928  0.00  0.00    +0.000 A 
ATOM      6  O   UNL     1      -7.311  13.093  19.741  0.00  0.00    +0.000 OA
ATOM      7  C   UNL     1      -5.287  12.240  18.925  0.00  0.00    +0.000 A 
ATOM      8  S   UNL     1      -5.921  11.769  17.434  0.00  0.00    +0.000 S 
ATOM      9  C   UNL     1      -4.396  11.209  16.888  0.00  0.00    +0.000 A 
ATOM     10  C   UNL     1      -4.147  10.624  15.631  0.00  0.00    +0.000 A 
ATOM     11  C   UNL     1      -2.856  10.211  15.316  0.00  0.00    +0.000 A 
ATOM     12  C   UNL     1      -1.836  10.374  16.234  0.00  0.00    +0.000 A 
ATOM     13  C   UNL     1      -2.093  10.947  17.488  0.00  0.00    +0.000 A 
ATOM     14  C   UNL     1      -3.392  11.397  17.857  0.00  0.00    +0.000 A 
ATOM     15  C   UNL     1      -3.940  12.013  19.061  0.00  0.00    +0.000 A 
ENDROOT
BRANCH   4  16
ATOM     16  C   UNL     1      -6.227  13.673  22.192  0.00  0.00    +0.000 A 
ATOM     17  C   UNL     1      -6.901  12.803  23.068  0.00  0.00    +0.000 A 
ATOM     18  C   UNL     1      -7.684  13.302  24.110  0.00  0.00    +0.000 A 
ATOM     19  C   UNL     1      -7.811  14.677  24.286  0.00  0.00    +0.000 A 
ATOM     20  C   UNL     1      -7.160  15.555  23.418  0.00  0.00    +0.000 A 
ATOM     21  C   UNL     1      -6.370  15.060  22.373  0.00  0.00    +0.000 A 
ATOM     22 CL   UNL     1      -5.722  16.213  21.255  0.00  0.00    +0.000 Cl
ENDBRANCH   4  16
BRANCH   1  23
ATOM     23  C   UNL     1      -1.908  12.171  20.567  0.00  0.00    +0.000 C 
BRANCH  23  25
ATOM     24  O   UNL     1      -1.443  14.511  20.110  0.00  0.00    +0.000 OA
ATOM     25  C   UNL     1      -1.035  13.349  20.101  0.00  0.00    +0.000 C 
ATOM     26  N   UNL     1       0.274  13.038  19.762  0.00  0.00    +0.000 N 
ATOM     27  C   UNL     1       1.239  14.076  19.439  0.00  0.00    +0.000 C 
ATOM     28  C   UNL     1       1.980  13.514  18.240  0.00  0.00    +0.000 C 
ATOM     29  C   UNL     1       2.040  12.023  18.551  0.00  0.00    +0.000 C 
ATOM     30  C   UNL     1       0.717  11.746  19.257  0.00  0.00    +0.000 C 
ENDBRANCH  23  25
ENDBRANCH   1  23
TORSDOF 3
ENDMDL
MODEL 7
REMARK VINA RESULT:      -6.8      3.325      7.942
REMARK  Name = 
REMARK  3 active torsions:
REMARK  status: ('A' for Active; 'I' for Inactive)
REMARK    1  A    between atoms: C_2  and  C_3
REMARK    2  A    between atoms: C_3  and  N_4
REMARK    3  A    between atoms: N_7  and  C_8
REMARK                            x       y       z     vdW  Elec       q    Type
REMARK                         _______ _______ _______ _____ _____    ______ ____
ROOT
ATOM      1  N   UNL     1      -3.499  13.649  21.247  0.00  0.00    +0.000 N 
ATOM      2  C   UNL     1      -2.637  12.692  20.664  0.00  0.00    +0.000 A 
ATOM      3  O   UNL     1      -3.070  11.889  19.830  0.00  0.00    +0.000 OA
ATOM      4  N   UNL     1      -1.300  12.681  21.092  0.00  0.00    +0.000 N 
ATOM      5  C   UNL     1      -0.790  13.459  22.139  0.00  0.00    +0.000 A 
ATOM      6  O   UNL     1       0.392  13.441  22.481  0.00  0.00    +0.000 OA
ATOM      7  C   UNL     1      -1.769  14.309  22.751  0.00  0.00    +0.000 A 
ATOM      8  S   UNL     1      -1.368  15.282  24.071  0.00  0.00    +0.000 S 
ATOM      9  C   UNL     1      -2.960  15.908  24.176  0.00  0.00    +0.000 A 
ATOM     10  C   UNL     1      -3.405  16.842  25.132  0.00  0.00    +0.000 A 
ATOM     11  C   UNL     1      -4.728  17.268  25.104  0.00  0.00    +0.000 A 
ATOM     12  C   UNL     1      -5.593  16.770  24.147  0.00  0.00    +0.000 A 
ATOM     13  C   UNL     1      -5.147  15.832  23.205  0.00  0.00    +0.000 A 
ATOM     14  C   UNL     1      -3.800  15.372  23.181  0.00  0.00    +0.000 A 
ATOM     15  C   UNL     1      -3.074  14.425  22.342  0.00  0.00    +0.000 A 
ENDROOT
BRANCH   4  16
ATOM     16  C   UNL     1      -0.393  11.774  20.450  0.00  0.00    +0.000 A 
ATOM     17  C   UNL     1       0.133  12.119  19.193  0.00  0.00    +0.000 A 
ATOM     18  C   UNL     1       1.003  11.259  18.521  0.00  0.00    +0.000 A 
ATOM     19  C   UNL     1       1.352  10.038  19.092  0.00  0.00    +0.000 A 
ATOM     20  C   UNL     1       0.828   9.675  20.334  0.00  0.00    +0.000 A 
ATOM     21  C   UNL     1      -0.042  10.535  21.014  0.00  0.00    +0.000 A 
ATOM     22 CL   UNL     1      -0.762   9.942  22.473  0.00  0.00    +0.000 Cl
ENDBRANCH   4  16
BRANCH   1  23
ATOM     23  C   UNL     1      -4.860  13.652  20.719  0.00  0.00    +0.000 C 
BRANCH  23  25
ATOM     24  O   UNL     1      -5.835  12.431  22.579  0.00  0.00    +0.000 OA
ATOM     25  C   UNL     1      -5.742  12.566  21.357  0.00  0.00    +0.000 C 
ATOM     26  N   UNL     1      -6.504  11.808  20.481  0.00  0.00    +0.000 N 
ATOM     27  C   UNL     1      -7.479  10.845  20.963  0.00  0.00    +0.000 C 
ATOM     28  C   UNL     1      -7.278   9.645  20.055  0.00  0.00    +0.000 C 
ATOM     29  C   UNL     1      -6.949  10.291  18.714  0.00  0.00    +0.000 C 
ATOM     30  C   UNL     1      -6.147  11.532  19.096  0.00  0.00    +0.000 C 
ENDBRANCH  23  25
ENDBRANCH   1  23
TORSDOF 3
ENDMDL
MODEL 8
REMARK VINA RESULT:      -6.7      3.458      5.764
REMARK  Name = 
REMARK  3 active torsions:
REMARK  status: ('A' for Active; 'I' for Inactive)
REMARK    1  A    between atoms: C_2  and  C_3
REMARK    2  A    between atoms: C_3  and  N_4
REMARK    3  A    between atoms: N_7  and  C_8
REMARK                            x       y       z     vdW  Elec       q    Type
REMARK                         _______ _______ _______ _____ _____    ______ ____
ROOT
ATOM      1  N   UNL     1      -3.154  13.716  21.049  0.00  0.00    +0.000 N 
ATOM      2  C   UNL     1      -2.892  14.696  22.033  0.00  0.00    +0.000 A 
ATOM      3  O   UNL     1      -3.769  15.501  22.361  0.00  0.00    +0.000 OA
ATOM      4  N   UNL     1      -1.601  14.726  22.587  0.00  0.00    +0.000 N 
ATOM      5  C   UNL     1      -0.526  13.944  22.148  0.00  0.00    +0.000 A 
ATOM      6  O   UNL     1       0.591  13.979  22.665  0.00  0.00    +0.000 OA
ATOM      7  C   UNL     1      -0.858  13.069  21.063  0.00  0.00    +0.000 A 
ATOM      8  S   UNL     1       0.316  12.086  20.351  0.00  0.00    +0.000 S 
ATOM      9  C   UNL     1      -0.813  11.430  19.241  0.00  0.00    +0.000 A 
ATOM     10  C   UNL     1      -0.516  10.476  18.248  0.00  0.00    +0.000 A 
ATOM     11  C   UNL     1      -1.532  10.026  17.411  0.00  0.00    +0.000 A 
ATOM     12  C   UNL     1      -2.814  10.520  17.555  0.00  0.00    +0.000 A 
ATOM     13  C   UNL     1      -3.102  11.478  18.538  0.00  0.00    +0.000 A 
ATOM     14  C   UNL     1      -2.103  11.963  19.429  0.00  0.00    +0.000 A 
ATOM     15  C   UNL     1      -2.111  12.934  20.518  0.00  0.00    +0.000 A 
ENDROOT
BRANCH   4  16
ATOM     16  C   UNL     1      -1.343  15.657  23.647  0.00  0.00    +0.000 A 
ATOM     17  C   UNL     1      -1.555  15.248  24.975  0.00  0.00    +0.000 A 
ATOM     18  C   UNL     1      -1.337  16.126  26.038  0.00  0.00    +0.000 A 
ATOM     19  C   UNL     1      -0.912  17.428  25.787  0.00  0.00    +0.000 A 
ATOM     20  C   UNL     1      -0.710  17.855  24.473  0.00  0.00    +0.000 A 
ATOM     21  C   UNL     1      -0.924  16.977  23.404  0.00  0.00    +0.000 A 
ATOM     22 CL   UNL     1      -0.796  17.631  21.805  0.00  0.00    +0.000 Cl
ENDBRANCH   4  16
BRANCH   1  23
ATOM     23  C   UNL     1      -4.528  13.695  20.555  0.00  0.00    +0.000 C 
BRANCH  23  25
ATOM     24  O   UNL     1      -5.312  12.343  22.415  0.00  0.00    +0.000 OA
ATOM     25  C   UNL     1      -5.372  12.587  21.209  0.00  0.00    +0.000 C 
ATOM     26  N   UNL     1      -6.278  11.944  20.379  0.00  0.00    +0.000 N 
ATOM     27  C   UNL     1      -7.229  10.977  20.902  0.00  0.00    +0.000 C 
ATOM     28  C   UNL     1      -7.206   9.860  19.873  0.00  0.00    +0.000 C 
ATOM     29  C   UNL     1      -7.023  10.616  18.563  0.00  0.00    +0.000 C 
ATOM     30  C   UNL     1      -6.118  11.785  18.940  0.00  0.00    +0.000 C 
ENDBRANCH  23  25
ENDBRANCH   1  23
TORSDOF 3
ENDMDL
MODEL 9
REMARK VINA RESULT:      -6.7      2.828      4.712
REMARK  Name = 
REMARK  3 active torsions:
REMARK  status: ('A' for Active; 'I' for Inactive)
REMARK    1  A    between atoms: C_2  and  C_3
REMARK    2  A    between atoms: C_3  and  N_4
REMARK    3  A    between atoms: N_7  and  C_8
REMARK                            x       y       z     vdW  Elec       q    Type
REMARK                         _______ _______ _______ _____ _____    ______ ____
ROOT
ATOM      1  N   UNL     1      -0.919  12.606  20.609  0.00  0.00    +0.000 N 
ATOM      2  C   UNL     1      -0.989  13.391  21.783  0.00  0.00    +0.000 A 
ATOM      3  O   UNL     1      -0.006  13.494  22.523  0.00  0.00    +0.000 OA
ATOM      4  N   UNL     1      -2.216  14.010  22.073  0.00  0.00    +0.000 N 
ATOM      5  C   UNL     1      -3.402  13.807  21.358  0.00  0.00    +0.000 A 
ATOM      6  O   UNL     1      -4.459  14.378  21.625  0.00  0.00    +0.000 OA
ATOM      7  C   UNL     1      -3.260  12.898  20.258  0.00  0.00    +0.000 A 
ATOM      8  S   UNL     1      -4.589  12.474  19.308  0.00  0.00    +0.000 S 
ATOM      9  C   UNL     1      -3.638  11.445  18.321  0.00  0.00    +0.000 A 
ATOM     10  C   UNL     1      -4.119  10.683  17.238  0.00  0.00    +0.000 A 
ATOM     11  C   UNL     1      -3.234   9.888  16.518  0.00  0.00    +0.000 A 
ATOM     12  C   UNL     1      -1.899   9.847  16.872  0.00  0.00    +0.000 A 
ATOM     13  C   UNL     1      -1.427  10.599  17.958  0.00  0.00    +0.000 A 
ATOM     14  C   UNL     1      -2.287  11.439  18.720  0.00  0.00    +0.000 A 
ATOM     15  C   UNL     1      -2.082  12.310  19.872  0.00  0.00    +0.000 A 
ENDROOT
BRANCH   4  16
ATOM     16  C   UNL     1      -2.280  14.879  23.213  0.00  0.00    +0.000 A 
ATOM     17  C   UNL     1      -1.655  16.136  23.143  0.00  0.00    +0.000 A 
ATOM     18  C   UNL     1      -1.674  17.006  24.235  0.00  0.00    +0.000 A 
ATOM     19  C   UNL     1      -2.311  16.627  25.414  0.00  0.00    +0.000 A 
ATOM     20  C   UNL     1      -2.925  15.376  25.504  0.00  0.00    +0.000 A 
ATOM     21  C   UNL     1      -2.911  14.502  24.411  0.00  0.00    +0.000 A 
ATOM     22 CL   UNL     1      -3.563  12.916  24.659  0.00  0.00    +0.000 Cl
ENDBRANCH   4  16
BRANCH   1  23
ATOM     23  C   UNL     1       0.396  12.038  20.328  0.00  0.00    +0.000 C 
BRANCH  23  25
ATOM     24  O   UNL     1       0.504  10.557  22.251  0.00  0.00    +0.000 OA
ATOM     25  C   UNL     1       0.616  10.687  21.030  0.00  0.00    +0.000 C 
ATOM     26  N   UNL     1       0.852   9.602  20.200  0.00  0.00    +0.000 N 
ATOM     27  C   UNL     1       0.940   8.250  20.726  0.00  0.00    +0.000 C 
ATOM     28  C   UNL     1       2.115   7.649  19.978  0.00  0.00    +0.000 C 
ATOM     29  C   UNL     1       1.990   8.279  18.596  0.00  0.00    +0.000 C 
ATOM     30  C   UNL     1       1.467   9.683  18.882  0.00  0.00    +0.000 C 
ENDBRANCH  23  25
ENDBRANCH   1  23
TORSDOF 3
ENDMDL
