MODEL 1
REMARK VINA RESULT:      -7.5      0.000      0.000
REMARK  Name = 
REMARK  4 active torsions:
REMARK  status: ('A' for Active; 'I' for Inactive)
REMARK    1  A    between atoms: C_1  and  N_2
REMARK    2  A    between atoms: C_4  and  C_5
REMARK    3  A    between atoms: C_13  and  C_14
REMARK    4  A    between atoms: C_15  and  C_16
REMARK                            x       y       z     vdW  Elec       q    Type
REMARK                         _______ _______ _______ _____ _____    ______ ____
ROOT
ATOM      1  C   UNL     1       4.839   0.696  19.933  0.00  0.00    +0.000 C 
ATOM      2  N   UNL     1       4.475   2.076  19.715  0.00  0.00    +0.000 N 
ATOM      3  N   UNL     1       5.119   2.794  18.778  0.00  0.00    +0.000 NA
ATOM      4  C   UNL     1       4.567   4.019  18.856  0.00  0.00    +0.000 A 
ATOM      5  C   UNL     1       3.499   4.051  19.811  0.00  0.00    +0.000 A 
ATOM      6  C   UNL     1       2.528   4.919  20.321  0.00  0.00    +0.000 A 
ATOM      7  N   UNL     1       1.733   4.527  21.344  0.00  0.00    +0.000 NA
ATOM      8  C   UNL     1       1.891   3.277  21.820  0.00  0.00    +0.000 A 
ATOM      9  N   UNL     1       2.740   2.333  21.386  0.00  0.00    +0.000 NA
ATOM     10  C   UNL     1       3.515   2.784  20.380  0.00  0.00    +0.000 A 
ENDROOT
BRANCH   4  11
ATOM     11  C   UNL     1       5.113   5.096  18.034  0.00  0.00    +0.000 A 
ATOM     12  C   UNL     1       4.509   5.443  16.821  0.00  0.00    +0.000 A 
ATOM     13  C   UNL     1       5.047   6.450  16.019  0.00  0.00    +0.000 A 
ATOM     14  C   UNL     1       6.184   7.137  16.433  0.00  0.00    +0.000 A 
ATOM     15  C   UNL     1       6.743   6.851  17.677  0.00  0.00    +0.000 A 
ATOM     16 BR   UNL     1       8.221   7.862  18.285  0.00  0.00    +0.000 Br
ATOM     17  C   UNL     1       6.216   5.840  18.478  0.00  0.00    +0.000 A 
ENDBRANCH   4  11
BRANCH   6  18
ATOM     18  C   UNL     1       2.313   6.254  19.840  0.00  0.00    +0.000 C 
ATOM     19  C   UNL     1       2.074   7.376  19.467  0.00  0.00    +0.000 C 
BRANCH  19  20
ATOM     20  C   UNL     1       1.701   8.734  19.159  0.00  0.00    +0.000 A 
ATOM     21  C   UNL     1       2.245   9.384  18.061  0.00  0.00    +0.000 A 
ATOM     22  C   UNL     1       2.021  10.753  17.866  0.00  0.00    +0.000 A 
ATOM     23  C   UNL     1       1.181  11.460  18.721  0.00  0.00    +0.000 A 
ATOM     24  N   UNL     1       0.938  12.798  18.536  0.00  0.00    +0.000 N 
ATOM     25  C   UNL     1       1.925  13.757  18.032  0.00  0.00    +0.000 C 
ATOM     26  C   UNL     1       2.008  14.969  18.981  0.00  0.00    +0.000 C 
ATOM     27  O   UNL     1       0.718  15.560  19.209  0.00  0.00    +0.000 OA
ATOM     28  C   UNL     1      -0.169  14.594  19.805  0.00  0.00    +0.000 C 
ATOM     29  C   UNL     1      -0.361  13.373  18.896  0.00  0.00    +0.000 C 
ATOM     30  N   UNL     1       0.580  10.814  19.747  0.00  0.00    +0.000 NA
ATOM     31  C   UNL     1       0.863   9.493  19.958  0.00  0.00    +0.000 A 
ENDBRANCH  19  20
ENDBRANCH   6  18
TORSDOF 3
ENDMDL
MODEL 2
REMARK VINA RESULT:      -6.9      3.753      9.489
REMARK  Name = 
REMARK  4 active torsions:
REMARK  status: ('A' for Active; 'I' for Inactive)
REMARK    1  A    between atoms: C_1  and  N_2
REMARK    2  A    between atoms: C_4  and  C_5
REMARK    3  A    between atoms: C_13  and  C_14
REMARK    4  A    between atoms: C_15  and  C_16
REMARK                            x       y       z     vdW  Elec       q    Type
REMARK                         _______ _______ _______ _____ _____    ______ ____
ROOT
ATOM      1  C   UNL     1      -1.584  16.710  23.241  0.00  0.00    +0.000 C 
ATOM      2  N   UNL     1      -1.065  15.520  22.609  0.00  0.00    +0.000 N 
ATOM      3  N   UNL     1      -0.028  15.616  21.759  0.00  0.00    +0.000 NA
ATOM      4  C   UNL     1       0.179  14.355  21.338  0.00  0.00    +0.000 A 
ATOM      5  C   UNL     1      -0.700  13.433  21.996  0.00  0.00    +0.000 A 
ATOM      6  C   UNL     1      -0.972  12.063  22.073  0.00  0.00    +0.000 A 
ATOM      7  N   UNL     1      -2.018  11.617  22.807  0.00  0.00    +0.000 NA
ATOM      8  C   UNL     1      -2.752  12.528  23.474  0.00  0.00    +0.000 A 
ATOM      9  N   UNL     1      -2.565  13.855  23.529  0.00  0.00    +0.000 NA
ATOM     10  C   UNL     1      -1.522  14.243  22.769  0.00  0.00    +0.000 A 
ENDROOT
BRANCH   4  11
ATOM     11  C   UNL     1       1.184  14.107  20.306  0.00  0.00    +0.000 A 
ATOM     12  C   UNL     1       0.865  13.364  19.166  0.00  0.00    +0.000 A 
ATOM     13  C   UNL     1       1.832  13.099  18.195  0.00  0.00    +0.000 A 
ATOM     14  C   UNL     1       3.123  13.594  18.344  0.00  0.00    +0.000 A 
ATOM     15  C   UNL     1       3.425  14.403  19.438  0.00  0.00    +0.000 A 
ATOM     16 BR   UNL     1       5.149  15.165  19.582  0.00  0.00    +0.000 Br
ATOM     17  C   UNL     1       2.467  14.663  20.416  0.00  0.00    +0.000 A 
ENDBRANCH   4  11
BRANCH   6  18
ATOM     18  C   UNL     1      -0.211  11.055  21.392  0.00  0.00    +0.000 C 
ATOM     19  C   UNL     1       0.414  10.166  20.869  0.00  0.00    +0.000 C 
BRANCH  19  20
ATOM     20  C   UNL     1       1.058   8.999  20.319  0.00  0.00    +0.000 A 
ATOM     21  C   UNL     1       1.150   7.829  21.058  0.00  0.00    +0.000 A 
ATOM     22  C   UNL     1       1.928   6.760  20.597  0.00  0.00    +0.000 A 
ATOM     23  C   UNL     1       2.549   6.822  19.353  0.00  0.00    +0.000 A 
ATOM     24  N   UNL     1       3.302   5.778  18.878  0.00  0.00    +0.000 N 
ATOM     25  C   UNL     1       4.132   4.907  19.716  0.00  0.00    +0.000 C 
ATOM     26  C   UNL     1       5.560   4.834  19.140  0.00  0.00    +0.000 C 
ATOM     27  O   UNL     1       5.559   4.445  17.757  0.00  0.00    +0.000 OA
ATOM     28  C   UNL     1       4.818   5.402  16.975  0.00  0.00    +0.000 C 
ATOM     29  C   UNL     1       3.359   5.497  17.441  0.00  0.00    +0.000 C 
ATOM     30  N   UNL     1       2.396   7.928  18.589  0.00  0.00    +0.000 NA
ATOM     31  C   UNL     1       1.686   8.987  19.085  0.00  0.00    +0.000 A 
ENDBRANCH  19  20
ENDBRANCH   6  18
TORSDOF 3
ENDMDL
MODEL 3
REMARK VINA RESULT:      -6.9      1.382      1.466
REMARK  Name = 
REMARK  4 active torsions:
REMARK  status: ('A' for Active; 'I' for Inactive)
REMARK    1  A    between atoms: C_1  and  N_2
REMARK    2  A    between atoms: C_4  and  C_5
REMARK    3  A    between atoms: C_13  and  C_14
REMARK    4  A    between atoms: C_15  and  C_16
REMARK                            x       y       z     vdW  Elec       q    Type
REMARK                         _______ _______ _______ _____ _____    ______ ____
ROOT
ATOM      1  C   UNL     1       3.920   0.775  18.378  0.00  0.00    +0.000 C 
ATOM      2  N   UNL     1       3.620   2.142  18.731  0.00  0.00    +0.000 N 
ATOM      3  N   UNL     1       4.115   3.146  17.987  0.00  0.00    +0.000 NA
ATOM      4  C   UNL     1       3.678   4.263  18.596  0.00  0.00    +0.000 A 
ATOM      5  C   UNL     1       2.825   3.953  19.706  0.00  0.00    +0.000 A 
ATOM      6  C   UNL     1       2.039   4.583  20.676  0.00  0.00    +0.000 A 
ATOM      7  N   UNL     1       1.436   3.853  21.643  0.00  0.00    +0.000 NA
ATOM      8  C   UNL     1       1.595   2.516  21.613  0.00  0.00    +0.000 A 
ATOM      9  N   UNL     1       2.272   1.788  20.713  0.00  0.00    +0.000 NA
ATOM     10  C   UNL     1       2.863   2.567  19.785  0.00  0.00    +0.000 A 
ENDROOT
BRANCH   4  11
ATOM     11  C   UNL     1       4.127   5.563  18.102  0.00  0.00    +0.000 A 
ATOM     12  C   UNL     1       3.201   6.525  17.687  0.00  0.00    +0.000 A 
ATOM     13  C   UNL     1       3.627   7.754  17.184  0.00  0.00    +0.000 A 
ATOM     14  C   UNL     1       4.986   8.044  17.111  0.00  0.00    +0.000 A 
ATOM     15  C   UNL     1       5.911   7.121  17.598  0.00  0.00    +0.000 A 
ATOM     16 BR   UNL     1       7.749   7.562  17.600  0.00  0.00    +0.000 Br
ATOM     17  C   UNL     1       5.491   5.888  18.092  0.00  0.00    +0.000 A 
ENDBRANCH   4  11
BRANCH   6  18
ATOM     18  C   UNL     1       1.828   6.002  20.741  0.00  0.00    +0.000 C 
ATOM     19  C   UNL     1       1.632   7.192  20.734  0.00  0.00    +0.000 C 
BRANCH  19  20
ATOM     20  C   UNL     1       1.283   8.585  20.611  0.00  0.00    +0.000 A 
ATOM     21  C   UNL     1       1.163   9.175  19.361  0.00  0.00    +0.000 A 
ATOM     22  C   UNL     1       1.001  10.561  19.244  0.00  0.00    +0.000 A 
ATOM     23  C   UNL     1       0.873  11.355  20.380  0.00  0.00    +0.000 A 
ATOM     24  N   UNL     1       0.698  12.713  20.285  0.00  0.00    +0.000 N 
ATOM     25  C   UNL     1       1.307  13.556  19.252  0.00  0.00    +0.000 C 
ATOM     26  C   UNL     1       2.034  14.745  19.911  0.00  0.00    +0.000 C 
ATOM     27  O   UNL     1       1.169  15.478  20.794  0.00  0.00    +0.000 OA
ATOM     28  C   UNL     1       0.693  14.617  21.846  0.00  0.00    +0.000 C 
ATOM     29  C   UNL     1      -0.100  13.430  21.283  0.00  0.00    +0.000 C 
ATOM     30  N   UNL     1       0.906  10.776  21.603  0.00  0.00    +0.000 NA
ATOM     31  C   UNL     1       1.129   9.430  21.696  0.00  0.00    +0.000 A 
ENDBRANCH  19  20
ENDBRANCH   6  18
TORSDOF 3
ENDMDL
MODEL 4
REMARK VINA RESULT:      -6.8      3.936     10.350
REMARK  Name = 
REMARK  4 active torsions:
REMARK  status: ('A' for Active; 'I' for Inactive)
REMARK    1  A    between atoms: C_1  and  N_2
REMARK    2  A    between atoms: C_4  and  C_5
REMARK    3  A    between atoms: C_13  and  C_14
REMARK    4  A    between atoms: C_15  and  C_16
REMARK                            x       y       z     vdW  Elec       q    Type
REMARK                         _______ _______ _______ _____ _____    ______ ____
ROOT
ATOM      1  C   UNL     1       0.862  18.143  18.179  0.00  0.00    +0.000 C 
ATOM      2  N   UNL     1       0.881  16.710  18.359  0.00  0.00    +0.000 N 
ATOM      3  N   UNL     1      -0.265  16.055  18.612  0.00  0.00    +0.000 NA
ATOM      4  C   UNL     1       0.106  14.769  18.752  0.00  0.00    +0.000 A 
ATOM      5  C   UNL     1       1.508  14.601  18.504  0.00  0.00    +0.000 A 
ATOM      6  C   UNL     1       2.481  13.599  18.428  0.00  0.00    +0.000 A 
ATOM      7  N   UNL     1       3.781  13.926  18.244  0.00  0.00    +0.000 NA
ATOM      8  C   UNL     1       4.089  15.230  18.108  0.00  0.00    +0.000 A 
ATOM      9  N   UNL     1       3.251  16.277  18.106  0.00  0.00    +0.000 NA
ATOM     10  C   UNL     1       1.975  15.894  18.308  0.00  0.00    +0.000 A 
ENDROOT
BRANCH   4  11
ATOM     11  C   UNL     1      -0.896  13.780  19.144  0.00  0.00    +0.000 A 
ATOM     12  C   UNL     1      -1.632  13.941  20.321  0.00  0.00    +0.000 A 
ATOM     13  C   UNL     1      -2.566  12.982  20.714  0.00  0.00    +0.000 A 
ATOM     14  C   UNL     1      -2.789  11.861  19.921  0.00  0.00    +0.000 A 
ATOM     15  C   UNL     1      -2.117  11.735  18.707  0.00  0.00    +0.000 A 
ATOM     16 BR   UNL     1      -2.503  10.268  17.579  0.00  0.00    +0.000 Br
ATOM     17  C   UNL     1      -1.176  12.685  18.314  0.00  0.00    +0.000 A 
ENDBRANCH   4  11
BRANCH   6  18
ATOM     18  C   UNL     1       2.201  12.197  18.554  0.00  0.00    +0.000 C 
ATOM     19  C   UNL     1       2.020  11.006  18.624  0.00  0.00    +0.000 C 
BRANCH  19  20
ATOM     20  C   UNL     1       1.967   9.568  18.698  0.00  0.00    +0.000 A 
ATOM     21  C   UNL     1       1.680   8.932  19.897  0.00  0.00    +0.000 A 
ATOM     22  C   UNL     1       1.804   7.542  20.009  0.00  0.00    +0.000 A 
ATOM     23  C   UNL     1       2.133   6.770  18.899  0.00  0.00    +0.000 A 
ATOM     24  N   UNL     1       2.245   5.405  18.986  0.00  0.00    +0.000 N 
ATOM     25  C   UNL     1       2.755   4.689  20.159  0.00  0.00    +0.000 C 
ATOM     26  C   UNL     1       3.863   3.707  19.730  0.00  0.00    +0.000 C 
ATOM     27  O   UNL     1       3.423   2.827  18.684  0.00  0.00    +0.000 OA
ATOM     28  C   UNL     1       3.039   3.590  17.524  0.00  0.00    +0.000 C 
ATOM     29  C   UNL     1       1.891   4.557  17.844  0.00  0.00    +0.000 C 
ATOM     30  N   UNL     1       2.335   7.375  17.705  0.00  0.00    +0.000 NA
ATOM     31  C   UNL     1       2.272   8.739  17.631  0.00  0.00    +0.000 A 
ENDBRANCH  19  20
ENDBRANCH   6  18
TORSDOF 3
ENDMDL
MODEL 5
REMARK VINA RESULT:      -6.7      6.772      9.535
REMARK  Name = 
REMARK  4 active torsions:
REMARK  status: ('A' for Active; 'I' for Inactive)
REMARK    1  A    between atoms: C_1  and  N_2
REMARK    2  A    between atoms: C_4  and  C_5
REMARK    3  A    between atoms: C_13  and  C_14
REMARK    4  A    between atoms: C_15  and  C_16
REMARK                            x       y       z     vdW  Elec       q    Type
REMARK                         _______ _______ _______ _____ _____    ______ ____
ROOT
ATOM      1  C   UNL     1      -3.233  10.351  15.028  0.00  0.00    +0.000 C 
ATOM      2  N   UNL     1      -3.105  10.859  16.374  0.00  0.00    +0.000 N 
ATOM      3  N   UNL     1      -1.893  10.909  16.954  0.00  0.00    +0.000 NA
ATOM      4  C   UNL     1      -2.130  11.393  18.187  0.00  0.00    +0.000 A 
ATOM      5  C   UNL     1      -3.514  11.728  18.359  0.00  0.00    +0.000 A 
ATOM      6  C   UNL     1      -4.383  12.288  19.301  0.00  0.00    +0.000 A 
ATOM      7  N   UNL     1      -5.713  12.333  19.057  0.00  0.00    +0.000 NA
ATOM      8  C   UNL     1      -6.153  11.856  17.877  0.00  0.00    +0.000 A 
ATOM      9  N   UNL     1      -5.425  11.348  16.872  0.00  0.00    +0.000 NA
ATOM     10  C   UNL     1      -4.112  11.312  17.176  0.00  0.00    +0.000 A 
ENDROOT
BRANCH   4  11
ATOM     11  C   UNL     1      -1.026  11.479  19.140  0.00  0.00    +0.000 A 
ATOM     12  C   UNL     1      -0.419  12.708  19.416  0.00  0.00    +0.000 A 
ATOM     13  C   UNL     1       0.656  12.788  20.302  0.00  0.00    +0.000 A 
ATOM     14  C   UNL     1       1.122  11.642  20.938  0.00  0.00    +0.000 A 
ATOM     15  C   UNL     1       0.470  10.429  20.728  0.00  0.00    +0.000 A 
ATOM     16 BR   UNL     1       1.034   8.895  21.678  0.00  0.00    +0.000 Br
ATOM     17  C   UNL     1      -0.599  10.341  19.838  0.00  0.00    +0.000 A 
ENDBRANCH   4  11
BRANCH   6  18
ATOM     18  C   UNL     1      -3.961  12.821  20.565  0.00  0.00    +0.000 C 
ATOM     19  C   UNL     1      -3.567  13.310  21.595  0.00  0.00    +0.000 C 
BRANCH  19  20
ATOM     20  C   UNL     1      -3.070  14.031  22.739  0.00  0.00    +0.000 A 
ATOM     21  C   UNL     1      -3.850  14.996  23.359  0.00  0.00    +0.000 A 
ATOM     22  C   UNL     1      -3.303  15.818  24.353  0.00  0.00    +0.000 A 
ATOM     23  C   UNL     1      -1.998  15.622  24.792  0.00  0.00    +0.000 A 
ATOM     24  N   UNL     1      -1.450  16.408  25.776  0.00  0.00    +0.000 N 
ATOM     25  C   UNL     1      -1.743  17.833  25.955  0.00  0.00    +0.000 C 
ATOM     26  C   UNL     1      -0.425  18.630  26.036  0.00  0.00    +0.000 C 
ATOM     27  O   UNL     1       0.456  18.107  27.043  0.00  0.00    +0.000 OA
ATOM     28  C   UNL     1       0.788  16.737  26.746  0.00  0.00    +0.000 C 
ATOM     29  C   UNL     1      -0.465  15.852  26.707  0.00  0.00    +0.000 C 
ATOM     30  N   UNL     1      -1.256  14.629  24.251  0.00  0.00    +0.000 NA
ATOM     31  C   UNL     1      -1.786  13.879  23.237  0.00  0.00    +0.000 A 
ENDBRANCH  19  20
ENDBRANCH   6  18
TORSDOF 3
ENDMDL
MODEL 6
REMARK VINA RESULT:      -6.7      4.264      9.981
REMARK  Name = 
REMARK  4 active torsions:
REMARK  status: ('A' for Active; 'I' for Inactive)
REMARK    1  A    between atoms: C_1  and  N_2
REMARK    2  A    between atoms: C_4  and  C_5
REMARK    3  A    between atoms: C_13  and  C_14
REMARK    4  A    between atoms: C_15  and  C_16
REMARK                            x       y       z     vdW  Elec       q    Type
REMARK                         _______ _______ _______ _____ _____    ______ ____
ROOT
ATOM      1  C   UNL     1      -0.251  16.794  19.087  0.00  0.00    +0.000 C 
ATOM      2  N   UNL     1      -0.116  15.364  19.228  0.00  0.00    +0.000 N 
ATOM      3  N   UNL     1      -0.946  14.547  18.556  0.00  0.00    +0.000 NA
ATOM      4  C   UNL     1      -0.574  13.309  18.928  0.00  0.00    +0.000 A 
ATOM      5  C   UNL     1       0.567  13.346  19.795  0.00  0.00    +0.000 A 
ATOM      6  C   UNL     1       1.447  12.488  20.464  0.00  0.00    +0.000 A 
ATOM      7  N   UNL     1       2.387  12.991  21.298  0.00  0.00    +0.000 NA
ATOM      8  C   UNL     1       2.460  14.329  21.428  0.00  0.00    +0.000 A 
ATOM      9  N   UNL     1       1.720  15.259  20.806  0.00  0.00    +0.000 NA
ATOM     10  C   UNL     1       0.792  14.701  20.003  0.00  0.00    +0.000 A 
ENDROOT
BRANCH   4  11
ATOM     11  C   UNL     1      -1.349  12.163  18.458  0.00  0.00    +0.000 A 
ATOM     12  C   UNL     1      -0.709  11.046  17.914  0.00  0.00    +0.000 A 
ATOM     13  C   UNL     1      -1.449   9.964  17.435  0.00  0.00    +0.000 A 
ATOM     14  C   UNL     1      -2.838   9.979  17.515  0.00  0.00    +0.000 A 
ATOM     15  C   UNL     1      -3.477  11.054  18.130  0.00  0.00    +0.000 A 
ATOM     16 BR   UNL     1      -5.355  11.023  18.338  0.00  0.00    +0.000 Br
ATOM     17  C   UNL     1      -2.744  12.142  18.602  0.00  0.00    +0.000 A 
ENDBRANCH   4  11
BRANCH   6  18
ATOM     18  C   UNL     1       1.417  11.057  20.348  0.00  0.00    +0.000 C 
ATOM     19  C   UNL     1       1.425   9.861  20.193  0.00  0.00    +0.000 C 
BRANCH  19  20
ATOM     20  C   UNL     1       1.575   8.453  19.926  0.00  0.00    +0.000 A 
ATOM     21  C   UNL     1       1.282   7.513  20.903  0.00  0.00    +0.000 A 
ATOM     22  C   UNL     1       1.596   6.163  20.706  0.00  0.00    +0.000 A 
ATOM     23  C   UNL     1       2.128   5.732  19.494  0.00  0.00    +0.000 A 
ATOM     24  N   UNL     1       2.428   4.411  19.276  0.00  0.00    +0.000 N 
ATOM     25  C   UNL     1       2.934   3.496  20.304  0.00  0.00    +0.000 C 
ATOM     26  C   UNL     1       4.206   2.790  19.793  0.00  0.00    +0.000 C 
ATOM     27  O   UNL     1       3.989   2.146  18.528  0.00  0.00    +0.000 OA
ATOM     28  C   UNL     1       3.599   3.117  17.539  0.00  0.00    +0.000 C 
ATOM     29  C   UNL     1       2.300   3.831  17.936  0.00  0.00    +0.000 C 
ATOM     30  N   UNL     1       2.340   6.630  18.504  0.00  0.00    +0.000 NA
ATOM     31  C   UNL     1       2.087   7.953  18.741  0.00  0.00    +0.000 A 
ENDBRANCH  19  20
ENDBRANCH   6  18
TORSDOF 3
ENDMDL
MODEL 7
REMARK VINA RESULT:      -6.7      4.257     10.097
REMARK  Name = 
REMARK  4 active torsions:
REMARK  status: ('A' for Active; 'I' for Inactive)
REMARK    1  A    between atoms: C_1  and  N_2
REMARK    2  A    between atoms: C_4  and  C_5
REMARK    3  A    between atoms: C_13  and  C_14
REMARK    4  A    between atoms: C_15  and  C_16
REMARK                            x       y       z     vdW  Elec       q    Type
REMARK                         _______ _______ _______ _____ _____    ______ ____
ROOT
ATOM      1  C   UNL     1      -3.775  16.843  23.129  0.00  0.00    +0.000 C 
ATOM      2  N   UNL     1      -2.990  15.729  22.653  0.00  0.00    +0.000 N 
ATOM      3  N   UNL     1      -2.019  15.938  21.747  0.00  0.00    +0.000 NA
ATOM      4  C   UNL     1      -1.517  14.714  21.503  0.00  0.00    +0.000 A 
ATOM      5  C   UNL     1      -2.136  13.721  22.333  0.00  0.00    +0.000 A 
ATOM      6  C   UNL     1      -2.065  12.355  22.622  0.00  0.00    +0.000 A 
ATOM      7  N   UNL     1      -2.961  11.790  23.464  0.00  0.00    +0.000 NA
ATOM      8  C   UNL     1      -3.886  12.590  24.028  0.00  0.00    +0.000 A 
ATOM      9  N   UNL     1      -4.028  13.916  23.880  0.00  0.00    +0.000 NA
ATOM     10  C   UNL     1      -3.121  14.420  23.019  0.00  0.00    +0.000 A 
ENDROOT
BRANCH   4  11
ATOM     11  C   UNL     1      -0.496  14.558  20.470  0.00  0.00    +0.000 A 
ATOM     12  C   UNL     1      -0.683  13.660  19.415  0.00  0.00    +0.000 A 
ATOM     13  C   UNL     1       0.305  13.486  18.444  0.00  0.00    +0.000 A 
ATOM     14  C   UNL     1       1.482  14.225  18.507  0.00  0.00    +0.000 A 
ATOM     15  C   UNL     1       1.639  15.179  19.510  0.00  0.00    +0.000 A 
ATOM     16 BR   UNL     1       3.189  16.260  19.529  0.00  0.00    +0.000 Br
ATOM     17  C   UNL     1       0.660  15.351  20.488  0.00  0.00    +0.000 A 
ENDBRANCH   4  11
BRANCH   6  18
ATOM     18  C   UNL     1      -1.091  11.464  22.058  0.00  0.00    +0.000 C 
ATOM     19  C   UNL     1      -0.310  10.666  21.603  0.00  0.00    +0.000 C 
BRANCH  19  20
ATOM     20  C   UNL     1       0.495   9.612  21.038  0.00  0.00    +0.000 A 
ATOM     21  C   UNL     1       0.985   9.714  19.744  0.00  0.00    +0.000 A 
ATOM     22  C   UNL     1       1.612   8.620  19.135  0.00  0.00    +0.000 A 
ATOM     23  C   UNL     1       1.828   7.444  19.847  0.00  0.00    +0.000 A 
ATOM     24  N   UNL     1       2.453   6.366  19.272  0.00  0.00    +0.000 N 
ATOM     25  C   UNL     1       2.316   5.983  17.864  0.00  0.00    +0.000 C 
ATOM     26  C   UNL     1       1.936   4.493  17.763  0.00  0.00    +0.000 C 
ATOM     27  O   UNL     1       2.854   3.656  18.484  0.00  0.00    +0.000 OA
ATOM     28  C   UNL     1       2.859   4.015  19.879  0.00  0.00    +0.000 C 
ATOM     29  C   UNL     1       3.289   5.474  20.081  0.00  0.00    +0.000 C 
ATOM     30  N   UNL     1       1.426   7.364  21.137  0.00  0.00    +0.000 NA
ATOM     31  C   UNL     1       0.758   8.420  21.692  0.00  0.00    +0.000 A 
ENDBRANCH  19  20
ENDBRANCH   6  18
TORSDOF 3
ENDMDL
MODEL 8
REMARK VINA RESULT:      -6.7      3.740      9.603
REMARK  Name = 
REMARK  4 active torsions:
REMARK  status: ('A' for Active; 'I' for Inactive)
REMARK    1  A    between atoms: C_1  and  N_2
REMARK    2  A    between atoms: C_4  and  C_5
REMARK    3  A    between atoms: C_13  and  C_14
REMARK    4  A    between atoms: C_15  and  C_16
REMARK                            x       y       z     vdW  Elec       q    Type
REMARK                         _______ _______ _______ _____ _____    ______ ____
ROOT
ATOM      1  C   UNL     1      -1.959  16.919  22.652  0.00  0.00    +0.000 C 
ATOM      2  N   UNL     1      -1.438  15.699  22.082  0.00  0.00    +0.000 N 
ATOM      3  N   UNL     1      -0.312  15.735  21.348  0.00  0.00    +0.000 NA
ATOM      4  C   UNL     1      -0.128  14.462  20.953  0.00  0.00    +0.000 A 
ATOM      5  C   UNL     1      -1.119  13.592  21.515  0.00  0.00    +0.000 A 
ATOM      6  C   UNL     1      -1.469  12.239  21.565  0.00  0.00    +0.000 A 
ATOM      7  N   UNL     1      -2.610  11.853  22.183  0.00  0.00    +0.000 NA
ATOM      8  C   UNL     1      -3.362  12.805  22.766  0.00  0.00    +0.000 A 
ATOM      9  N   UNL     1      -3.113  14.121  22.839  0.00  0.00    +0.000 NA
ATOM     10  C   UNL     1      -1.976  14.449  22.194  0.00  0.00    +0.000 A 
ENDROOT
BRANCH   4  11
ATOM     11  C   UNL     1       0.967  14.155  20.035  0.00  0.00    +0.000 A 
ATOM     12  C   UNL     1       0.741  13.386  18.889  0.00  0.00    +0.000 A 
ATOM     13  C   UNL     1       1.791  13.065  18.029  0.00  0.00    +0.000 A 
ATOM     14  C   UNL     1       3.076  13.528  18.294  0.00  0.00    +0.000 A 
ATOM     15  C   UNL     1       3.292  14.360  19.390  0.00  0.00    +0.000 A 
ATOM     16 BR   UNL     1       5.016  15.078  19.687  0.00  0.00    +0.000 Br
ATOM     17  C   UNL     1       2.249  14.677  20.259  0.00  0.00    +0.000 A 
ENDBRANCH   4  11
BRANCH   6  18
ATOM     18  C   UNL     1      -0.694  11.187  20.971  0.00  0.00    +0.000 C 
ATOM     19  C   UNL     1       0.006  10.318  20.513  0.00  0.00    +0.000 C 
BRANCH  19  20
ATOM     20  C   UNL     1       0.914   9.272  20.113  0.00  0.00    +0.000 A 
ATOM     21  C   UNL     1       1.497   9.286  18.855  0.00  0.00    +0.000 A 
ATOM     22  C   UNL     1       2.234   8.184  18.404  0.00  0.00    +0.000 A 
ATOM     23  C   UNL     1       2.463   7.096  19.241  0.00  0.00    +0.000 A 
ATOM     24  N   UNL     1       3.196   6.014  18.822  0.00  0.00    +0.000 N 
ATOM     25  C   UNL     1       3.192   5.493  17.452  0.00  0.00    +0.000 C 
ATOM     26  C   UNL     1       2.911   3.977  17.471  0.00  0.00    +0.000 C 
ATOM     27  O   UNL     1       3.818   3.275  18.335  0.00  0.00    +0.000 OA
ATOM     28  C   UNL     1       3.692   3.762  19.685  0.00  0.00    +0.000 C 
ATOM     29  C   UNL     1       4.017   5.260  19.772  0.00  0.00    +0.000 C 
ATOM     30  N   UNL     1       1.967   7.111  20.500  0.00  0.00    +0.000 NA
ATOM     31  C   UNL     1       1.196   8.168  20.899  0.00  0.00    +0.000 A 
ENDBRANCH  19  20
ENDBRANCH   6  18
TORSDOF 3
ENDMDL
MODEL 9
REMARK VINA RESULT:      -6.6      1.688      2.337
REMARK  Name = 
REMARK  4 active torsions:
REMARK  status: ('A' for Active; 'I' for Inactive)
REMARK    1  A    between atoms: C_1  and  N_2
REMARK    2  A    between atoms: C_4  and  C_5
REMARK    3  A    between atoms: C_13  and  C_14
REMARK    4  A    between atoms: C_15  and  C_16
REMARK                            x       y       z     vdW  Elec       q    Type
REMARK                         _______ _______ _______ _____ _____    ______ ____
ROOT
ATOM      1  C   UNL     1       4.022   0.748  18.448  0.00  0.00    +0.000 C 
ATOM      2  N   UNL     1       3.684   2.113  18.775  0.00  0.00    +0.000 N 
ATOM      3  N   UNL     1       4.173   3.117  18.027  0.00  0.00    +0.000 NA
ATOM      4  C   UNL     1       3.698   4.233  18.611  0.00  0.00    +0.000 A 
ATOM      5  C   UNL     1       2.827   3.919  19.706  0.00  0.00    +0.000 A 
ATOM      6  C   UNL     1       2.006   4.544  20.649  0.00  0.00    +0.000 A 
ATOM      7  N   UNL     1       1.398   3.814  21.614  0.00  0.00    +0.000 NA
ATOM      8  C   UNL     1       1.588   2.481  21.607  0.00  0.00    +0.000 A 
ATOM      9  N   UNL     1       2.301   1.756  20.732  0.00  0.00    +0.000 NA
ATOM     10  C   UNL     1       2.895   2.535  19.806  0.00  0.00    +0.000 A 
ENDROOT
BRANCH   4  11
ATOM     11  C   UNL     1       4.127   5.535  18.107  0.00  0.00    +0.000 A 
ATOM     12  C   UNL     1       3.187   6.496  17.724  0.00  0.00    +0.000 A 
ATOM     13  C   UNL     1       3.595   7.728  17.213  0.00  0.00    +0.000 A 
ATOM     14  C   UNL     1       4.950   8.022  17.100  0.00  0.00    +0.000 A 
ATOM     15  C   UNL     1       5.891   7.100  17.555  0.00  0.00    +0.000 A 
ATOM     16 BR   UNL     1       7.727   7.545  17.503  0.00  0.00    +0.000 Br
ATOM     17  C   UNL     1       5.490   5.864  18.057  0.00  0.00    +0.000 A 
ENDBRANCH   4  11
BRANCH   6  18
ATOM     18  C   UNL     1       1.762   5.958  20.690  0.00  0.00    +0.000 C 
ATOM     19  C   UNL     1       1.497   7.134  20.746  0.00  0.00    +0.000 C 
BRANCH  19  20
ATOM     20  C   UNL     1       1.077   8.499  20.936  0.00  0.00    +0.000 A 
ATOM     21  C   UNL     1       0.507   8.903  22.135  0.00  0.00    +0.000 A 
ATOM     22  C   UNL     1      -0.061  10.177  22.255  0.00  0.00    +0.000 A 
ATOM     23  C   UNL     1       0.014  11.086  21.205  0.00  0.00    +0.000 A 
ATOM     24  N   UNL     1      -0.523  12.345  21.310  0.00  0.00    +0.000 N 
ATOM     25  C   UNL     1      -1.747  12.663  22.052  0.00  0.00    +0.000 C 
ATOM     26  C   UNL     1      -2.711  13.460  21.151  0.00  0.00    +0.000 C 
ATOM     27  O   UNL     1      -2.080  14.621  20.587  0.00  0.00    +0.000 OA
ATOM     28  C   UNL     1      -0.950  14.228  19.783  0.00  0.00    +0.000 C 
ATOM     29  C   UNL     1       0.096  13.477  20.617  0.00  0.00    +0.000 C 
ATOM     30  N   UNL     1       0.642  10.730  20.061  0.00  0.00    +0.000 NA
ATOM     31  C   UNL     1       1.133   9.459  19.939  0.00  0.00    +0.000 A 
ENDBRANCH  19  20
ENDBRANCH   6  18
TORSDOF 3
ENDMDL
