MODEL 1
REMARK VINA RESULT:      -8.2      0.000      0.000
REMARK  Name = 
REMARK  4 active torsions:
REMARK  status: ('A' for Active; 'I' for Inactive)
REMARK    1  A    between atoms: C_2  and  C_3
REMARK    2  A    between atoms: C_3  and  C_4
REMARK    3  A    between atoms: C_4  and  C_5
REMARK    4  A    between atoms: N_10  and  C_11
REMARK                            x       y       z     vdW  Elec       q    Type
REMARK                         _______ _______ _______ _____ _____    ______ ____
ROOT
ATOM      1  C   UNL     1       5.580   5.198  18.390  0.00  0.00    +0.000 A 
ATOM      2  C   UNL     1       5.419   4.452  17.219  0.00  0.00    +0.000 A 
ATOM      3  C   UNL     1       4.311   3.618  17.047  0.00  0.00    +0.000 A 
ATOM      4  C   UNL     1       3.347   3.537  18.044  0.00  0.00    +0.000 A 
ATOM      5  C   UNL     1       3.506   4.241  19.243  0.00  0.00    +0.000 A 
ATOM      6  C   UNL     1       4.639   5.052  19.421  0.00  0.00    +0.000 A 
ATOM      7  C   UNL     1       2.495   4.038  20.338  0.00  0.00    +0.000 C 
ATOM      8  C   UNL     1       1.108   3.802  19.759  0.00  0.00    +0.000 C 
ATOM      9  C   UNL     1       1.123   2.744  18.678  0.00  0.00    +0.000 C 
ATOM     10  O   UNL     1       0.170   1.997  18.475  0.00  0.00    +0.000 OA
ATOM     11  N   UNL     1       2.216   2.738  17.855  0.00  0.00    +0.000 N 
ATOM     12  H   UNL     1       2.157   2.127  17.046  0.00  0.00    +0.000 HD
ENDROOT
BRANCH   1  15
ATOM     13  O   UNL     1       6.536   7.373  16.648  0.00  0.00    +0.000 OA
ATOM     14  C   UNL     1       7.065   7.091  17.718  0.00  0.00    +0.000 C 
ATOM     15  N   UNL     1       6.657   6.092  18.591  0.00  0.00    +0.000 N 
ATOM     16  H   UNL     1       7.075   6.086  19.513  0.00  0.00    +0.000 HD
BRANCH  14  17
ATOM     17  C   UNL     1       8.307   7.825  18.207  0.00  0.00    +0.000 C 
BRANCH  17  18
ATOM     18  C   UNL     1       8.204   9.348  18.083  0.00  0.00    +0.000 C 
BRANCH  18  19
ATOM     19  C   UNL     1       9.440  10.103  18.588  0.00  0.00    +0.000 C 
ATOM     20  C   UNL     1       9.738  11.410  17.859  0.00  0.00    +0.000 C 
ATOM     21  C   UNL     1      10.713  12.121  18.790  0.00  0.00    +0.000 C 
ATOM     22  C   UNL     1      10.346  11.667  20.202  0.00  0.00    +0.000 C 
ATOM     23  C   UNL     1       9.293  10.571  20.037  0.00  0.00    +0.000 C 
ENDBRANCH  18  19
ENDBRANCH  17  18
ENDBRANCH  14  17
ENDBRANCH   1  15
TORSDOF 4
ENDMDL
MODEL 2
REMARK VINA RESULT:      -8.2      1.595      2.098
REMARK  Name = 
REMARK  4 active torsions:
REMARK  status: ('A' for Active; 'I' for Inactive)
REMARK    1  A    between atoms: C_2  and  C_3
REMARK    2  A    between atoms: C_3  and  C_4
REMARK    3  A    between atoms: C_4  and  C_5
REMARK    4  A    between atoms: N_10  and  C_11
REMARK                            x       y       z     vdW  Elec       q    Type
REMARK                         _______ _______ _______ _____ _____    ______ ____
ROOT
ATOM      1  C   UNL     1       6.245   6.672  17.113  0.00  0.00    +0.000 A 
ATOM      2  C   UNL     1       6.675   5.527  16.437  0.00  0.00    +0.000 A 
ATOM      3  C   UNL     1       5.887   4.373  16.411  0.00  0.00    +0.000 A 
ATOM      4  C   UNL     1       4.654   4.365  17.051  0.00  0.00    +0.000 A 
ATOM      5  C   UNL     1       4.220   5.484  17.768  0.00  0.00    +0.000 A 
ATOM      6  C   UNL     1       5.033   6.629  17.817  0.00  0.00    +0.000 A 
ATOM      7  C   UNL     1       2.930   5.392  18.537  0.00  0.00    +0.000 C 
ATOM      8  C   UNL     1       1.930   4.505  17.814  0.00  0.00    +0.000 C 
ATOM      9  C   UNL     1       2.543   3.183  17.406  0.00  0.00    +0.000 C 
ATOM     10  O   UNL     1       1.891   2.143  17.351  0.00  0.00    +0.000 OA
ATOM     11  N   UNL     1       3.845   3.227  16.987  0.00  0.00    +0.000 N 
ATOM     12  H   UNL     1       4.207   2.370  16.579  0.00  0.00    +0.000 HD
ENDROOT
BRANCH   1  15
ATOM     13  O   UNL     1       8.496   7.448  18.849  0.00  0.00    +0.000 OA
ATOM     14  C   UNL     1       8.029   8.187  17.988  0.00  0.00    +0.000 C 
ATOM     15  N   UNL     1       6.983   7.879  17.129  0.00  0.00    +0.000 N 
ATOM     16  H   UNL     1       6.819   8.512  16.357  0.00  0.00    +0.000 HD
BRANCH  14  17
ATOM     17  C   UNL     1       8.555   9.602  17.787  0.00  0.00    +0.000 C 
BRANCH  17  18
ATOM     18  C   UNL     1       9.165  10.212  19.053  0.00  0.00    +0.000 C 
BRANCH  18  19
ATOM     19  C   UNL     1       9.883  11.548  18.822  0.00  0.00    +0.000 C 
ATOM     20  C   UNL     1      10.902  11.543  17.686  0.00  0.00    +0.000 C 
ATOM     21  C   UNL     1      11.142  13.024  17.418  0.00  0.00    +0.000 C 
ATOM     22  C   UNL     1       9.829  13.726  17.765  0.00  0.00    +0.000 C 
ATOM     23  C   UNL     1       8.929  12.663  18.393  0.00  0.00    +0.000 C 
ENDBRANCH  18  19
ENDBRANCH  17  18
ENDBRANCH  14  17
ENDBRANCH   1  15
TORSDOF 4
ENDMDL
MODEL 3
REMARK VINA RESULT:      -8.2      1.543      1.772
REMARK  Name = 
REMARK  4 active torsions:
REMARK  status: ('A' for Active; 'I' for Inactive)
REMARK    1  A    between atoms: C_2  and  C_3
REMARK    2  A    between atoms: C_3  and  C_4
REMARK    3  A    between atoms: C_4  and  C_5
REMARK    4  A    between atoms: N_10  and  C_11
REMARK                            x       y       z     vdW  Elec       q    Type
REMARK                         _______ _______ _______ _____ _____    ______ ____
ROOT
ATOM      1  C   UNL     1       6.085   6.507  17.104  0.00  0.00    +0.000 A 
ATOM      2  C   UNL     1       6.557   5.280  16.631  0.00  0.00    +0.000 A 
ATOM      3  C   UNL     1       5.766   4.130  16.707  0.00  0.00    +0.000 A 
ATOM      4  C   UNL     1       4.487   4.207  17.244  0.00  0.00    +0.000 A 
ATOM      5  C   UNL     1       4.007   5.414  17.762  0.00  0.00    +0.000 A 
ATOM      6  C   UNL     1       4.821   6.559  17.712  0.00  0.00    +0.000 A 
ATOM      7  C   UNL     1       2.661   5.427  18.434  0.00  0.00    +0.000 C 
ATOM      8  C   UNL     1       1.713   4.442  17.767  0.00  0.00    +0.000 C 
ATOM      9  C   UNL     1       2.347   3.079  17.598  0.00  0.00    +0.000 C 
ATOM     10  O   UNL     1       1.694   2.039  17.639  0.00  0.00    +0.000 OA
ATOM     11  N   UNL     1       3.677   3.068  17.279  0.00  0.00    +0.000 N 
ATOM     12  H   UNL     1       4.064   2.164  17.024  0.00  0.00    +0.000 HD
ENDROOT
BRANCH   1  15
ATOM     13  O   UNL     1       8.386   7.400  18.714  0.00  0.00    +0.000 OA
ATOM     14  C   UNL     1       7.898   8.073  17.811  0.00  0.00    +0.000 C 
ATOM     15  N   UNL     1       6.827   7.707  17.007  0.00  0.00    +0.000 N 
ATOM     16  H   UNL     1       6.645   8.280  16.194  0.00  0.00    +0.000 HD
BRANCH  14  17
ATOM     17  C   UNL     1       8.424   9.465  17.488  0.00  0.00    +0.000 C 
BRANCH  17  18
ATOM     18  C   UNL     1       8.673  10.327  18.730  0.00  0.00    +0.000 C 
BRANCH  18  19
ATOM     19  C   UNL     1      10.143  10.714  18.940  0.00  0.00    +0.000 C 
ATOM     20  C   UNL     1      10.723  11.640  17.875  0.00  0.00    +0.000 C 
ATOM     21  C   UNL     1      11.996  12.172  18.523  0.00  0.00    +0.000 C 
ATOM     22  C   UNL     1      11.716  12.202  20.025  0.00  0.00    +0.000 C 
ATOM     23  C   UNL     1      10.363  11.521  20.221  0.00  0.00    +0.000 C 
ENDBRANCH  18  19
ENDBRANCH  17  18
ENDBRANCH  14  17
ENDBRANCH   1  15
TORSDOF 4
ENDMDL
MODEL 4
REMARK VINA RESULT:      -8.1      1.181      1.523
REMARK  Name = 
REMARK  4 active torsions:
REMARK  status: ('A' for Active; 'I' for Inactive)
REMARK    1  A    between atoms: C_2  and  C_3
REMARK    2  A    between atoms: C_3  and  C_4
REMARK    3  A    between atoms: C_4  and  C_5
REMARK    4  A    between atoms: N_10  and  C_11
REMARK                            x       y       z     vdW  Elec       q    Type
REMARK                         _______ _______ _______ _____ _____    ______ ____
ROOT
ATOM      1  C   UNL     1       5.553   6.289  17.207  0.00  0.00    +0.000 A 
ATOM      2  C   UNL     1       5.569   5.293  16.227  0.00  0.00    +0.000 A 
ATOM      3  C   UNL     1       4.673   4.222  16.279  0.00  0.00    +0.000 A 
ATOM      4  C   UNL     1       3.742   4.151  17.308  0.00  0.00    +0.000 A 
ATOM      5  C   UNL     1       3.732   5.112  18.323  0.00  0.00    +0.000 A 
ATOM      6  C   UNL     1       4.658   6.169  18.281  0.00  0.00    +0.000 A 
ATOM      7  C   UNL     1       2.782   4.935  19.475  0.00  0.00    +0.000 C 
ATOM      8  C   UNL     1       1.486   4.287  19.014  0.00  0.00    +0.000 C 
ATOM      9  C   UNL     1       1.742   3.051  18.181  0.00  0.00    +0.000 C 
ATOM     10  O   UNL     1       0.977   2.089  18.178  0.00  0.00    +0.000 OA
ATOM     11  N   UNL     1       2.816   3.105  17.336  0.00  0.00    +0.000 N 
ATOM     12  H   UNL     1       2.899   2.336  16.678  0.00  0.00    +0.000 HD
ENDROOT
BRANCH   1  15
ATOM     13  O   UNL     1       8.101   6.731  18.619  0.00  0.00    +0.000 OA
ATOM     14  C   UNL     1       7.592   7.567  17.878  0.00  0.00    +0.000 C 
ATOM     15  N   UNL     1       6.405   7.417  17.173  0.00  0.00    +0.000 N 
ATOM     16  H   UNL     1       6.197   8.113  16.469  0.00  0.00    +0.000 HD
BRANCH  14  17
ATOM     17  C   UNL     1       8.227   8.936  17.673  0.00  0.00    +0.000 C 
BRANCH  17  18
ATOM     18  C   UNL     1       8.979   9.451  18.905  0.00  0.00    +0.000 C 
BRANCH  18  19
ATOM     19  C   UNL     1       9.306  10.949  18.859  0.00  0.00    +0.000 C 
ATOM     20  C   UNL     1       9.964  11.502  20.119  0.00  0.00    +0.000 C 
ATOM     21  C   UNL     1      10.532  12.841  19.664  0.00  0.00    +0.000 C 
ATOM     22  C   UNL     1      10.878  12.664  18.186  0.00  0.00    +0.000 C 
ATOM     23  C   UNL     1      10.335  11.294  17.781  0.00  0.00    +0.000 C 
ENDBRANCH  18  19
ENDBRANCH  17  18
ENDBRANCH  14  17
ENDBRANCH   1  15
TORSDOF 4
ENDMDL
MODEL 5
REMARK VINA RESULT:      -7.9      1.374      1.818
REMARK  Name = 
REMARK  4 active torsions:
REMARK  status: ('A' for Active; 'I' for Inactive)
REMARK    1  A    between atoms: C_2  and  C_3
REMARK    2  A    between atoms: C_3  and  C_4
REMARK    3  A    between atoms: C_4  and  C_5
REMARK    4  A    between atoms: N_10  and  C_11
REMARK                            x       y       z     vdW  Elec       q    Type
REMARK                         _______ _______ _______ _____ _____    ______ ____
ROOT
ATOM      1  C   UNL     1       4.769   6.470  17.457  0.00  0.00    +0.000 A 
ATOM      2  C   UNL     1       3.569   7.073  17.844  0.00  0.00    +0.000 A 
ATOM      3  C   UNL     1       2.430   6.303  18.098  0.00  0.00    +0.000 A 
ATOM      4  C   UNL     1       2.492   4.921  17.980  0.00  0.00    +0.000 A 
ATOM      5  C   UNL     1       3.669   4.297  17.555  0.00  0.00    +0.000 A 
ATOM      6  C   UNL     1       4.801   5.080  17.270  0.00  0.00    +0.000 A 
ATOM      7  C   UNL     1       3.658   2.809  17.334  0.00  0.00    +0.000 C 
ATOM      8  C   UNL     1       2.737   2.120  18.329  0.00  0.00    +0.000 C 
ATOM      9  C   UNL     1       1.378   2.783  18.387  0.00  0.00    +0.000 C 
ATOM     10  O   UNL     1       0.349   2.155  18.623  0.00  0.00    +0.000 OA
ATOM     11  N   UNL     1       1.367   4.146  18.278  0.00  0.00    +0.000 N 
ATOM     12  H   UNL     1       0.476   4.597  18.462  0.00  0.00    +0.000 HD
ENDROOT
BRANCH   1  15
ATOM     13  O   UNL     1       7.372   6.230  18.817  0.00  0.00    +0.000 OA
ATOM     14  C   UNL     1       7.155   7.045  17.926  0.00  0.00    +0.000 C 
ATOM     15  N   UNL     1       5.960   7.200  17.235  0.00  0.00    +0.000 N 
ATOM     16  H   UNL     1       5.978   7.787  16.412  0.00  0.00    +0.000 HD
BRANCH  14  17
ATOM     17  C   UNL     1       8.219   8.042  17.487  0.00  0.00    +0.000 C 
BRANCH  17  18
ATOM     18  C   UNL     1       8.008   9.449  18.056  0.00  0.00    +0.000 C 
BRANCH  18  19
ATOM     19  C   UNL     1       9.298  10.135  18.524  0.00  0.00    +0.000 C 
ATOM     20  C   UNL     1       9.574  11.492  17.882  0.00  0.00    +0.000 C 
ATOM     21  C   UNL     1      10.634  12.105  18.791  0.00  0.00    +0.000 C 
ATOM     22  C   UNL     1      10.361  11.542  20.185  0.00  0.00    +0.000 C 
ATOM     23  C   UNL     1       9.272  10.484  20.013  0.00  0.00    +0.000 C 
ENDBRANCH  18  19
ENDBRANCH  17  18
ENDBRANCH  14  17
ENDBRANCH   1  15
TORSDOF 4
ENDMDL
MODEL 6
REMARK VINA RESULT:      -7.8      4.334      6.591
REMARK  Name = 
REMARK  4 active torsions:
REMARK  status: ('A' for Active; 'I' for Inactive)
REMARK    1  A    between atoms: C_2  and  C_3
REMARK    2  A    between atoms: C_3  and  C_4
REMARK    3  A    between atoms: C_4  and  C_5
REMARK    4  A    between atoms: N_10  and  C_11
REMARK                            x       y       z     vdW  Elec       q    Type
REMARK                         _______ _______ _______ _____ _____    ______ ____
ROOT
ATOM      1  C   UNL     1       4.671   4.753  17.119  0.00  0.00    +0.000 A 
ATOM      2  C   UNL     1       4.991   5.490  18.263  0.00  0.00    +0.000 A 
ATOM      3  C   UNL     1       4.310   5.278  19.465  0.00  0.00    +0.000 A 
ATOM      4  C   UNL     1       3.312   4.314  19.532  0.00  0.00    +0.000 A 
ATOM      5  C   UNL     1       2.945   3.593  18.392  0.00  0.00    +0.000 A 
ATOM      6  C   UNL     1       3.612   3.834  17.178  0.00  0.00    +0.000 A 
ATOM      7  C   UNL     1       1.785   2.639  18.483  0.00  0.00    +0.000 C 
ATOM      8  C   UNL     1       1.723   1.992  19.858  0.00  0.00    +0.000 C 
ATOM      9  C   UNL     1       1.816   3.018  20.966  0.00  0.00    +0.000 C 
ATOM     10  O   UNL     1       1.251   2.872  22.047  0.00  0.00    +0.000 OA
ATOM     11  N   UNL     1       2.662   4.070  20.745  0.00  0.00    +0.000 N 
ATOM     12  H   UNL     1       2.832   4.675  21.542  0.00  0.00    +0.000 HD
ENDROOT
BRANCH   1  15
ATOM     13  O   UNL     1       7.551   4.463  16.568  0.00  0.00    +0.000 OA
ATOM     14  C   UNL     1       6.730   4.758  15.705  0.00  0.00    +0.000 C 
ATOM     15  N   UNL     1       5.361   4.896  15.893  0.00  0.00    +0.000 N 
ATOM     16  H   UNL     1       4.787   4.969  15.063  0.00  0.00    +0.000 HD
BRANCH  14  17
ATOM     17  C   UNL     1       7.156   5.052  14.273  0.00  0.00    +0.000 C 
BRANCH  17  18
ATOM     18  C   UNL     1       6.100   4.670  13.231  0.00  0.00    +0.000 C 
BRANCH  18  19
ATOM     19  C   UNL     1       6.229   3.236  12.702  0.00  0.00    +0.000 C 
ATOM     20  C   UNL     1       5.076   2.770  11.818  0.00  0.00    +0.000 C 
ATOM     21  C   UNL     1       5.637   1.533  11.126  0.00  0.00    +0.000 C 
ATOM     22  C   UNL     1       7.141   1.774  10.999  0.00  0.00    +0.000 C 
ATOM     23  C   UNL     1       7.435   3.055  11.778  0.00  0.00    +0.000 C 
ENDBRANCH  18  19
ENDBRANCH  17  18
ENDBRANCH  14  17
ENDBRANCH   1  15
TORSDOF 4
ENDMDL
MODEL 7
REMARK VINA RESULT:      -7.7      4.191      6.555
REMARK  Name = 
REMARK  4 active torsions:
REMARK  status: ('A' for Active; 'I' for Inactive)
REMARK    1  A    between atoms: C_2  and  C_3
REMARK    2  A    between atoms: C_3  and  C_4
REMARK    3  A    between atoms: C_4  and  C_5
REMARK    4  A    between atoms: N_10  and  C_11
REMARK                            x       y       z     vdW  Elec       q    Type
REMARK                         _______ _______ _______ _____ _____    ______ ____
ROOT
ATOM      1  C   UNL     1       5.521   4.344  17.249  0.00  0.00    +0.000 A 
ATOM      2  C   UNL     1       5.657   5.055  18.444  0.00  0.00    +0.000 A 
ATOM      3  C   UNL     1       4.709   4.931  19.463  0.00  0.00    +0.000 A 
ATOM      4  C   UNL     1       3.624   4.079  19.296  0.00  0.00    +0.000 A 
ATOM      5  C   UNL     1       3.443   3.388  18.094  0.00  0.00    +0.000 A 
ATOM      6  C   UNL     1       4.384   3.544  17.061  0.00  0.00    +0.000 A 
ATOM      7  C   UNL     1       2.198   2.565  17.915  0.00  0.00    +0.000 C 
ATOM      8  C   UNL     1       1.764   1.944  19.234  0.00  0.00    +0.000 C 
ATOM      9  C   UNL     1       1.718   2.966  20.348  0.00  0.00    +0.000 C 
ATOM     10  O   UNL     1       0.916   2.895  21.275  0.00  0.00    +0.000 OA
ATOM     11  N   UNL     1       2.699   3.920  20.332  0.00  0.00    +0.000 N 
ATOM     12  H   UNL     1       2.753   4.513  21.155  0.00  0.00    +0.000 HD
ENDROOT
BRANCH   1  15
ATOM     13  O   UNL     1       5.603   6.115  14.896  0.00  0.00    +0.000 OA
ATOM     14  C   UNL     1       6.448   5.253  15.114  0.00  0.00    +0.000 C 
ATOM     15  N   UNL     1       6.477   4.398  16.208  0.00  0.00    +0.000 N 
ATOM     16  H   UNL     1       7.322   3.860  16.349  0.00  0.00    +0.000 HD
BRANCH  14  17
ATOM     17  C   UNL     1       7.591   4.998  14.141  0.00  0.00    +0.000 C 
BRANCH  17  18
ATOM     18  C   UNL     1       7.126   4.776  12.698  0.00  0.00    +0.000 C 
BRANCH  18  19
ATOM     19  C   UNL     1       6.287   3.507  12.497  0.00  0.00    +0.000 C 
ATOM     20  C   UNL     1       4.940   3.728  11.815  0.00  0.00    +0.000 C 
ATOM     21  C   UNL     1       4.526   2.326  11.385  0.00  0.00    +0.000 C 
ATOM     22  C   UNL     1       5.829   1.574  11.111  0.00  0.00    +0.000 C 
ATOM     23  C   UNL     1       6.958   2.499  11.562  0.00  0.00    +0.000 C 
ENDBRANCH  18  19
ENDBRANCH  17  18
ENDBRANCH  14  17
ENDBRANCH   1  15
TORSDOF 4
ENDMDL
MODEL 8
REMARK VINA RESULT:      -7.7      4.756      6.144
REMARK  Name = 
REMARK  4 active torsions:
REMARK  status: ('A' for Active; 'I' for Inactive)
REMARK    1  A    between atoms: C_2  and  C_3
REMARK    2  A    between atoms: C_3  and  C_4
REMARK    3  A    between atoms: C_4  and  C_5
REMARK    4  A    between atoms: N_10  and  C_11
REMARK                            x       y       z     vdW  Elec       q    Type
REMARK                         _______ _______ _______ _____ _____    ______ ____
ROOT
ATOM      1  C   UNL     1       2.460   7.640  18.647  0.00  0.00    +0.000 A 
ATOM      2  C   UNL     1       2.032   8.664  17.798  0.00  0.00    +0.000 A 
ATOM      3  C   UNL     1       1.165   9.660  18.255  0.00  0.00    +0.000 A 
ATOM      4  C   UNL     1       0.732   9.644  19.575  0.00  0.00    +0.000 A 
ATOM      5  C   UNL     1       1.112   8.608  20.434  0.00  0.00    +0.000 A 
ATOM      6  C   UNL     1       1.958   7.592  19.957  0.00  0.00    +0.000 A 
ATOM      7  C   UNL     1       0.530   8.570  21.820  0.00  0.00    +0.000 C 
ATOM      8  C   UNL     1       0.316   9.977  22.357  0.00  0.00    +0.000 C 
ATOM      9  C   UNL     1      -0.417  10.851  21.363  0.00  0.00    +0.000 C 
ATOM     10  O   UNL     1      -1.177  11.751  21.713  0.00  0.00    +0.000 OA
ATOM     11  N   UNL     1      -0.099  10.664  20.046  0.00  0.00    +0.000 N 
ATOM     12  H   UNL     1      -0.481  11.346  19.398  0.00  0.00    +0.000 HD
ENDROOT
BRANCH   1  15
ATOM     13  O   UNL     1       1.915   4.896  17.722  0.00  0.00    +0.000 OA
ATOM     14  C   UNL     1       3.048   5.353  17.832  0.00  0.00    +0.000 C 
ATOM     15  N   UNL     1       3.373   6.638  18.247  0.00  0.00    +0.000 N 
ATOM     16  H   UNL     1       4.333   6.932  18.123  0.00  0.00    +0.000 HD
BRANCH  14  17
ATOM     17  C   UNL     1       4.277   4.502  17.543  0.00  0.00    +0.000 C 
BRANCH  17  18
ATOM     18  C   UNL     1       5.216   5.120  16.502  0.00  0.00    +0.000 C 
BRANCH  18  19
ATOM     19  C   UNL     1       6.565   5.580  17.069  0.00  0.00    +0.000 C 
ATOM     20  C   UNL     1       6.720   7.092  17.212  0.00  0.00    +0.000 C 
ATOM     21  C   UNL     1       7.920   7.239  18.140  0.00  0.00    +0.000 C 
ATOM     22  C   UNL     1       7.898   6.009  19.046  0.00  0.00    +0.000 C 
ATOM     23  C   UNL     1       6.799   5.098  18.501  0.00  0.00    +0.000 C 
ENDBRANCH  18  19
ENDBRANCH  17  18
ENDBRANCH  14  17
ENDBRANCH   1  15
TORSDOF 4
ENDMDL
MODEL 9
REMARK VINA RESULT:      -7.7      4.284      6.685
REMARK  Name = 
REMARK  4 active torsions:
REMARK  status: ('A' for Active; 'I' for Inactive)
REMARK    1  A    between atoms: C_2  and  C_3
REMARK    2  A    between atoms: C_3  and  C_4
REMARK    3  A    between atoms: C_4  and  C_5
REMARK    4  A    between atoms: N_10  and  C_11
REMARK                            x       y       z     vdW  Elec       q    Type
REMARK                         _______ _______ _______ _____ _____    ______ ____
ROOT
ATOM      1  C   UNL     1       4.920   5.376  16.082  0.00  0.00    +0.000 A 
ATOM      2  C   UNL     1       4.653   6.479  16.897  0.00  0.00    +0.000 A 
ATOM      3  C   UNL     1       3.777   6.374  17.981  0.00  0.00    +0.000 A 
ATOM      4  C   UNL     1       3.174   5.155  18.264  0.00  0.00    +0.000 A 
ATOM      5  C   UNL     1       3.392   4.047  17.439  0.00  0.00    +0.000 A 
ATOM      6  C   UNL     1       4.249   4.169  16.332  0.00  0.00    +0.000 A 
ATOM      7  C   UNL     1       2.632   2.779  17.718  0.00  0.00    +0.000 C 
ATOM      8  C   UNL     1       2.411   2.597  19.212  0.00  0.00    +0.000 C 
ATOM      9  C   UNL     1       1.853   3.848  19.853  0.00  0.00    +0.000 C 
ATOM     10  O   UNL     1       1.093   3.811  20.818  0.00  0.00    +0.000 OA
ATOM     11  N   UNL     1       2.333   5.036  19.374  0.00  0.00    +0.000 N 
ATOM     12  H   UNL     1       2.069   5.864  19.900  0.00  0.00    +0.000 HD
ENDROOT
BRANCH   1  15
ATOM     13  O   UNL     1       7.696   4.396  15.963  0.00  0.00    +0.000 OA
ATOM     14  C   UNL     1       7.140   4.948  15.019  0.00  0.00    +0.000 C 
ATOM     15  N   UNL     1       5.834   5.418  15.003  0.00  0.00    +0.000 N 
ATOM     16  H   UNL     1       5.454   5.691  14.106  0.00  0.00    +0.000 HD
BRANCH  14  17
ATOM     17  C   UNL     1       7.876   5.218  13.713  0.00  0.00    +0.000 C 
BRANCH  17  18
ATOM     18  C   UNL     1       7.044   4.897  12.467  0.00  0.00    +0.000 C 
BRANCH  18  19
ATOM     19  C   UNL     1       6.659   3.419  12.332  0.00  0.00    +0.000 C 
ATOM     20  C   UNL     1       5.258   3.166  11.782  0.00  0.00    +0.000 C 
ATOM     21  C   UNL     1       5.296   1.697  11.377  0.00  0.00    +0.000 C 
ATOM     22  C   UNL     1       6.743   1.414  10.975  0.00  0.00    +0.000 C 
ATOM     23  C   UNL     1       7.538   2.670  11.328  0.00  0.00    +0.000 C 
ENDBRANCH  18  19
ENDBRANCH  17  18
ENDBRANCH  14  17
ENDBRANCH   1  15
TORSDOF 4
ENDMDL
