MODEL 1
REMARK VINA RESULT:      -7.5      0.000      0.000
REMARK  Name = 
REMARK  3 active torsions:
REMARK  status: ('A' for Active; 'I' for Inactive)
REMARK    1  A    between atoms: N_1  and  S_2
REMARK    2  A    between atoms: S_2  and  N_5
REMARK    3  A    between atoms: N_5  and  C_6
REMARK                            x       y       z     vdW  Elec       q    Type
REMARK                         _______ _______ _______ _____ _____    ______ ____
ROOT
ATOM      1  C   UNL     1       5.453   4.794  16.936  0.00  0.00    +0.000 C 
ATOM      2  C   UNL     1       5.244   6.206  16.415  0.00  0.00    +0.000 C 
ATOM      3  C   UNL     1       4.273   6.966  17.304  0.00  0.00    +0.000 C 
ATOM      4  N   UNL     1       2.979   6.303  17.448  0.00  0.00    +0.000 NA
ATOM      5  C   UNL     1       2.115   7.016  18.401  0.00  0.00    +0.000 C 
ATOM      6  C   UNL     1       2.421   6.698  19.870  0.00  0.00    +0.000 C 
ATOM      7  C   UNL     1       2.414   5.214  20.116  0.00  0.00    +0.000 A 
ATOM      8  C   UNL     1       2.115   4.717  21.395  0.00  0.00    +0.000 A 
ATOM      9  C   UNL     1       2.041   3.345  21.626  0.00  0.00    +0.000 A 
ATOM     10  C   UNL     1       2.263   2.458  20.580  0.00  0.00    +0.000 A 
ATOM     11  C   UNL     1       2.576   2.947  19.311  0.00  0.00    +0.000 A 
ATOM     12  C   UNL     1       2.692   4.330  19.061  0.00  0.00    +0.000 A 
ATOM     13  C   UNL     1       2.953   4.834  17.637  0.00  0.00    +0.000 C 
ATOM     14  C   UNL     1       4.104   4.083  16.916  0.00  0.00    +0.000 C 
ENDROOT
BRANCH   1  15
ATOM     15  N   UNL     1       6.054   4.753  18.308  0.00  0.00    +0.000 NA
ATOM     16  H   UNL     1       5.486   5.254  18.998  0.00  0.00    +0.000 HD
BRANCH  15  17
ATOM     17  S   UNL     1       7.640   5.245  18.434  0.00  0.00    +0.000 S 
ATOM     18  O   UNL     1       7.762   6.611  18.001  0.00  0.00    +0.000 OA
ATOM     19  O   UNL     1       8.510   4.188  17.991  0.00  0.00    +0.000 OA
BRANCH  17  20
ATOM     20  N   UNL     1       7.723   5.262  20.094  0.00  0.00    +0.000 NA
ATOM     21  H   UNL     1       8.367   4.530  20.399  0.00  0.00    +0.000 HD
ATOM     22  H   UNL     1       6.789   5.106  20.473  0.00  0.00    +0.000 HD
ENDBRANCH  17  20
ENDBRANCH  15  17
ENDBRANCH   1  15
TORSDOF 3
ENDMDL
MODEL 2
REMARK VINA RESULT:      -7.4      0.820      1.036
REMARK  Name = 
REMARK  3 active torsions:
REMARK  status: ('A' for Active; 'I' for Inactive)
REMARK    1  A    between atoms: N_1  and  S_2
REMARK    2  A    between atoms: S_2  and  N_5
REMARK    3  A    between atoms: N_5  and  C_6
REMARK                            x       y       z     vdW  Elec       q    Type
REMARK                         _______ _______ _______ _____ _____    ______ ____
ROOT
ATOM      1  C   UNL     1       5.465   5.019  17.071  0.00  0.00    +0.000 C 
ATOM      2  C   UNL     1       5.269   6.470  16.665  0.00  0.00    +0.000 C 
ATOM      3  C   UNL     1       4.241   7.141  17.562  0.00  0.00    +0.000 C 
ATOM      4  N   UNL     1       2.949   6.459  17.573  0.00  0.00    +0.000 NA
ATOM      5  C   UNL     1       2.024   7.076  18.535  0.00  0.00    +0.000 C 
ATOM      6  C   UNL     1       2.251   6.631  19.984  0.00  0.00    +0.000 C 
ATOM      7  C   UNL     1       2.249   5.131  20.097  0.00  0.00    +0.000 A 
ATOM      8  C   UNL     1       1.885   4.520  21.308  0.00  0.00    +0.000 A 
ATOM      9  C   UNL     1       1.814   3.132  21.411  0.00  0.00    +0.000 A 
ATOM     10  C   UNL     1       2.105   2.344  20.305  0.00  0.00    +0.000 A 
ATOM     11  C   UNL     1       2.483   2.946  19.104  0.00  0.00    +0.000 A 
ATOM     12  C   UNL     1       2.596   4.347  18.985  0.00  0.00    +0.000 A 
ATOM     13  C   UNL     1       2.931   4.977  17.628  0.00  0.00    +0.000 C 
ATOM     14  C   UNL     1       4.129   4.303  16.911  0.00  0.00    +0.000 C 
ENDROOT
BRANCH   1  15
ATOM     15  N   UNL     1       5.989   4.860  18.465  0.00  0.00    +0.000 NA
ATOM     16  H   UNL     1       5.372   5.284  19.164  0.00  0.00    +0.000 HD
BRANCH  15  17
ATOM     17  S   UNL     1       7.554   5.365  18.729  0.00  0.00    +0.000 S 
ATOM     18  O   UNL     1       7.900   5.175  20.112  0.00  0.00    +0.000 OA
ATOM     19  O   UNL     1       7.795   6.587  18.008  0.00  0.00    +0.000 OA
BRANCH  17  20
ATOM     20  N   UNL     1       8.312   4.156  17.876  0.00  0.00    +0.000 NA
ATOM     21  H   UNL     1       7.941   4.142  16.924  0.00  0.00    +0.000 HD
ATOM     22  H   UNL     1       8.144   3.266  18.345  0.00  0.00    +0.000 HD
ENDBRANCH  17  20
ENDBRANCH  15  17
ENDBRANCH   1  15
TORSDOF 3
ENDMDL
MODEL 3
REMARK VINA RESULT:      -6.0      9.708     11.582
REMARK  Name = 
REMARK  3 active torsions:
REMARK  status: ('A' for Active; 'I' for Inactive)
REMARK    1  A    between atoms: N_1  and  S_2
REMARK    2  A    between atoms: S_2  and  N_5
REMARK    3  A    between atoms: N_5  and  C_6
REMARK                            x       y       z     vdW  Elec       q    Type
REMARK                         _______ _______ _______ _____ _____    ______ ____
ROOT
ATOM      1  C   UNL     1       8.626  16.483  19.011  0.00  0.00    +0.000 C 
ATOM      2  C   UNL     1       9.489  17.231  18.009  0.00  0.00    +0.000 C 
ATOM      3  C   UNL     1      10.335  16.259  17.202  0.00  0.00    +0.000 C 
ATOM      4  N   UNL     1      11.181  15.403  18.030  0.00  0.00    +0.000 NA
ATOM      5  C   UNL     1      11.897  14.408  17.217  0.00  0.00    +0.000 C 
ATOM      6  C   UNL     1      11.048  13.184  16.850  0.00  0.00    +0.000 C 
ATOM      7  C   UNL     1      10.435  12.562  18.074  0.00  0.00    +0.000 A 
ATOM      8  C   UNL     1      10.111  11.196  18.079  0.00  0.00    +0.000 A 
ATOM      9  C   UNL     1       9.602  10.590  19.226  0.00  0.00    +0.000 A 
ATOM     10  C   UNL     1       9.415  11.343  20.377  0.00  0.00    +0.000 A 
ATOM     11  C   UNL     1       9.721  12.705  20.373  0.00  0.00    +0.000 A 
ATOM     12  C   UNL     1      10.202  13.349  19.215  0.00  0.00    +0.000 A 
ATOM     13  C   UNL     1      10.608  14.826  19.270  0.00  0.00    +0.000 C 
ATOM     14  C   UNL     1       9.553  15.731  19.959  0.00  0.00    +0.000 C 
ENDROOT
BRANCH   1  15
ATOM     15  N   UNL     1       7.651  15.544  18.369  0.00  0.00    +0.000 NA
ATOM     16  H   UNL     1       7.709  15.562  17.346  0.00  0.00    +0.000 HD
BRANCH  15  17
ATOM     17  S   UNL     1       6.060  15.697  18.836  0.00  0.00    +0.000 S 
ATOM     18  O   UNL     1       5.927  15.356  20.227  0.00  0.00    +0.000 OA
ATOM     19  O   UNL     1       5.201  15.181  17.803  0.00  0.00    +0.000 OA
BRANCH  17  20
ATOM     20  N   UNL     1       5.971  17.355  18.741  0.00  0.00    +0.000 NA
ATOM     21  H   UNL     1       6.779  17.756  19.221  0.00  0.00    +0.000 HD
ATOM     22  H   UNL     1       5.101  17.664  19.172  0.00  0.00    +0.000 HD
ENDBRANCH  17  20
ENDBRANCH  15  17
ENDBRANCH   1  15
TORSDOF 3
ENDMDL
MODEL 4
REMARK VINA RESULT:      -5.9      1.313      1.892
REMARK  Name = 
REMARK  3 active torsions:
REMARK  status: ('A' for Active; 'I' for Inactive)
REMARK    1  A    between atoms: N_1  and  S_2
REMARK    2  A    between atoms: S_2  and  N_5
REMARK    3  A    between atoms: N_5  and  C_6
REMARK                            x       y       z     vdW  Elec       q    Type
REMARK                         _______ _______ _______ _____ _____    ______ ____
ROOT
ATOM      1  C   UNL     1       4.777   6.310  17.097  0.00  0.00    +0.000 C 
ATOM      2  C   UNL     1       3.800   7.440  17.377  0.00  0.00    +0.000 C 
ATOM      3  C   UNL     1       2.931   7.110  18.580  0.00  0.00    +0.000 C 
ATOM      4  N   UNL     1       2.198   5.855  18.438  0.00  0.00    +0.000 NA
ATOM      5  C   UNL     1       1.460   5.522  19.667  0.00  0.00    +0.000 C 
ATOM      6  C   UNL     1       2.328   4.872  20.751  0.00  0.00    +0.000 C 
ATOM      7  C   UNL     1       3.070   3.681  20.210  0.00  0.00    +0.000 A 
ATOM      8  C   UNL     1       3.453   2.642  21.074  0.00  0.00    +0.000 A 
ATOM      9  C   UNL     1       4.084   1.502  20.580  0.00  0.00    +0.000 A 
ATOM     10  C   UNL     1       4.335   1.390  19.219  0.00  0.00    +0.000 A 
ATOM     11  C   UNL     1       3.971   2.427  18.359  0.00  0.00    +0.000 A 
ATOM     12  C   UNL     1       3.364   3.605  18.839  0.00  0.00    +0.000 A 
ATOM     13  C   UNL     1       2.900   4.686  17.856  0.00  0.00    +0.000 C 
ATOM     14  C   UNL     1       3.968   5.055  16.793  0.00  0.00    +0.000 C 
ENDROOT
BRANCH   1  15
ATOM     15  N   UNL     1       5.734   6.065  18.223  0.00  0.00    +0.000 NA
ATOM     16  H   UNL     1       5.599   6.719  19.000  0.00  0.00    +0.000 HD
BRANCH  15  17
ATOM     17  S   UNL     1       7.350   6.008  17.821  0.00  0.00    +0.000 S 
ATOM     18  O   UNL     1       8.130   6.630  18.857  0.00  0.00    +0.000 OA
ATOM     19  O   UNL     1       7.509   6.297  16.421  0.00  0.00    +0.000 OA
BRANCH  17  20
ATOM     20  N   UNL     1       7.551   4.367  17.992  0.00  0.00    +0.000 NA
ATOM     21  H   UNL     1       7.816   3.972  17.088  0.00  0.00    +0.000 HD
ATOM     22  H   UNL     1       6.678   3.960  18.325  0.00  0.00    +0.000 HD
ENDBRANCH  17  20
ENDBRANCH  15  17
ENDBRANCH   1  15
TORSDOF 3
ENDMDL
MODEL 5
REMARK VINA RESULT:      -5.9      1.237      1.797
REMARK  Name = 
REMARK  3 active torsions:
REMARK  status: ('A' for Active; 'I' for Inactive)
REMARK    1  A    between atoms: N_1  and  S_2
REMARK    2  A    between atoms: S_2  and  N_5
REMARK    3  A    between atoms: N_5  and  C_6
REMARK                            x       y       z     vdW  Elec       q    Type
REMARK                         _______ _______ _______ _____ _____    ______ ____
ROOT
ATOM      1  C   UNL     1       5.042   6.133  17.036  0.00  0.00    +0.000 C 
ATOM      2  C   UNL     1       4.120   7.341  17.065  0.00  0.00    +0.000 C 
ATOM      3  C   UNL     1       3.108   7.214  18.193  0.00  0.00    +0.000 C 
ATOM      4  N   UNL     1       2.310   5.992  18.120  0.00  0.00    +0.000 NA
ATOM      5  C   UNL     1       1.425   5.859  19.287  0.00  0.00    +0.000 C 
ATOM      6  C   UNL     1       2.126   5.305  20.533  0.00  0.00    +0.000 C 
ATOM      7  C   UNL     1       2.839   4.016  20.227  0.00  0.00    +0.000 A 
ATOM      8  C   UNL     1       3.057   3.076  21.247  0.00  0.00    +0.000 A 
ATOM      9  C   UNL     1       3.657   1.850  20.968  0.00  0.00    +0.000 A 
ATOM     10  C   UNL     1       4.043   1.553  19.668  0.00  0.00    +0.000 A 
ATOM     11  C   UNL     1       3.844   2.490  18.653  0.00  0.00    +0.000 A 
ATOM     12  C   UNL     1       3.271   3.752  18.917  0.00  0.00    +0.000 A 
ATOM     13  C   UNL     1       2.989   4.723  17.765  0.00  0.00    +0.000 C 
ATOM     14  C   UNL     1       4.186   4.896  16.794  0.00  0.00    +0.000 C 
ENDROOT
BRANCH   1  15
ATOM     15  N   UNL     1       5.855   5.980  18.285  0.00  0.00    +0.000 NA
ATOM     16  H   UNL     1       5.656   6.713  18.973  0.00  0.00    +0.000 HD
BRANCH  15  17
ATOM     17  S   UNL     1       7.503   5.846  18.082  0.00  0.00    +0.000 S 
ATOM     18  O   UNL     1       7.904   4.476  18.259  0.00  0.00    +0.000 OA
ATOM     19  O   UNL     1       8.160   6.957  18.717  0.00  0.00    +0.000 OA
BRANCH  17  20
ATOM     20  N   UNL     1       7.539   6.146  16.448  0.00  0.00    +0.000 NA
ATOM     21  H   UNL     1       7.567   7.156  16.299  0.00  0.00    +0.000 HD
ATOM     22  H   UNL     1       6.709   5.738  16.019  0.00  0.00    +0.000 HD
ENDBRANCH  17  20
ENDBRANCH  15  17
ENDBRANCH   1  15
TORSDOF 3
ENDMDL
MODEL 6
REMARK VINA RESULT:      -5.9      9.445     11.319
REMARK  Name = 
REMARK  3 active torsions:
REMARK  status: ('A' for Active; 'I' for Inactive)
REMARK    1  A    between atoms: N_1  and  S_2
REMARK    2  A    between atoms: S_2  and  N_5
REMARK    3  A    between atoms: N_5  and  C_6
REMARK                            x       y       z     vdW  Elec       q    Type
REMARK                         _______ _______ _______ _____ _____    ______ ____
ROOT
ATOM      1  C   UNL     1       8.181  16.279  19.330  0.00  0.00    +0.000 C 
ATOM      2  C   UNL     1       8.973  17.090  18.319  0.00  0.00    +0.000 C 
ATOM      3  C   UNL     1       9.857  16.182  17.479  0.00  0.00    +0.000 C 
ATOM      4  N   UNL     1      10.772  15.367  18.275  0.00  0.00    +0.000 NA
ATOM      5  C   UNL     1      11.526  14.428  17.431  0.00  0.00    +0.000 C 
ATOM      6  C   UNL     1      10.743  13.160  17.066  0.00  0.00    +0.000 C 
ATOM      7  C   UNL     1      10.198  12.487  18.295  0.00  0.00    +0.000 A 
ATOM      8  C   UNL     1       9.957  11.103  18.288  0.00  0.00    +0.000 A 
ATOM      9  C   UNL     1       9.513  10.453  19.438  0.00  0.00    +0.000 A 
ATOM     10  C   UNL     1       9.309  11.179  20.603  0.00  0.00    +0.000 A 
ATOM     11  C   UNL     1       9.532  12.556  20.611  0.00  0.00    +0.000 A 
ATOM     12  C   UNL     1       9.946  13.243  19.452  0.00  0.00    +0.000 A 
ATOM     13  C   UNL     1      10.264  14.741  19.519  0.00  0.00    +0.000 C 
ATOM     14  C   UNL     1       9.174  15.573  20.246  0.00  0.00    +0.000 C 
ENDROOT
BRANCH   1  15
ATOM     15  N   UNL     1       7.249  15.292  18.697  0.00  0.00    +0.000 NA
ATOM     16  H   UNL     1       7.426  15.176  17.694  0.00  0.00    +0.000 HD
BRANCH  15  17
ATOM     17  S   UNL     1       5.621  15.548  18.945  0.00  0.00    +0.000 S 
ATOM     18  O   UNL     1       5.291  16.913  18.637  0.00  0.00    +0.000 OA
ATOM     19  O   UNL     1       5.206  14.879  20.150  0.00  0.00    +0.000 OA
BRANCH  17  20
ATOM     20  N   UNL     1       5.069  14.625  17.677  0.00  0.00    +0.000 NA
ATOM     21  H   UNL     1       4.651  13.770  18.049  0.00  0.00    +0.000 HD
ATOM     22  H   UNL     1       5.851  14.410  17.060  0.00  0.00    +0.000 HD
ENDBRANCH  17  20
ENDBRANCH  15  17
ENDBRANCH   1  15
TORSDOF 3
ENDMDL
MODEL 7
REMARK VINA RESULT:      -5.8      7.249      9.172
REMARK  Name = 
REMARK  3 active torsions:
REMARK  status: ('A' for Active; 'I' for Inactive)
REMARK    1  A    between atoms: N_1  and  S_2
REMARK    2  A    between atoms: S_2  and  N_5
REMARK    3  A    between atoms: N_5  and  C_6
REMARK                            x       y       z     vdW  Elec       q    Type
REMARK                         _______ _______ _______ _____ _____    ______ ____
ROOT
ATOM      1  C   UNL     1       0.132  10.632  18.526  0.00  0.00    +0.000 C 
ATOM      2  C   UNL     1       0.993   9.418  18.830  0.00  0.00    +0.000 C 
ATOM      3  C   UNL     1       0.824   8.991  20.279  0.00  0.00    +0.000 C 
ATOM      4  N   UNL     1       1.125  10.055  21.235  0.00  0.00    +0.000 NA
ATOM      5  C   UNL     1       0.842   9.632  22.615  0.00  0.00    +0.000 C 
ATOM      6  C   UNL     1      -0.640   9.731  23.000  0.00  0.00    +0.000 C 
ATOM      7  C   UNL     1      -1.182  11.105  22.718  0.00  0.00    +0.000 A 
ATOM      8  C   UNL     1      -2.271  11.595  23.458  0.00  0.00    +0.000 A 
ATOM      9  C   UNL     1      -2.745  12.889  23.255  0.00  0.00    +0.000 A 
ATOM     10  C   UNL     1      -2.135  13.705  22.311  0.00  0.00    +0.000 A 
ATOM     11  C   UNL     1      -1.064  13.218  21.561  0.00  0.00    +0.000 A 
ATOM     12  C   UNL     1      -0.589  11.900  21.723  0.00  0.00    +0.000 A 
ATOM     13  C   UNL     1       0.644  11.426  20.944  0.00  0.00    +0.000 C 
ATOM     14  C   UNL     1       0.589  11.770  19.432  0.00  0.00    +0.000 C 
ENDROOT
BRANCH   1  15
ATOM     15  N   UNL     1      -1.334  10.375  18.696  0.00  0.00    +0.000 NA
ATOM     16  H   UNL     1      -1.533   9.402  18.947  0.00  0.00    +0.000 HD
BRANCH  15  17
ATOM     17  S   UNL     1      -2.317  10.833  17.431  0.00  0.00    +0.000 S 
ATOM     18  O   UNL     1      -3.619  11.186  17.931  0.00  0.00    +0.000 OA
ATOM     19  O   UNL     1      -2.104   9.954  16.312  0.00  0.00    +0.000 OA
BRANCH  17  20
ATOM     20  N   UNL     1      -1.542  12.258  17.069  0.00  0.00    +0.000 NA
ATOM     21  H   UNL     1      -0.663  12.043  16.593  0.00  0.00    +0.000 HD
ATOM     22  H   UNL     1      -1.371  12.770  17.934  0.00  0.00    +0.000 HD
ENDBRANCH  17  20
ENDBRANCH  15  17
ENDBRANCH   1  15
TORSDOF 3
ENDMDL
MODEL 8
REMARK VINA RESULT:      -5.8      2.350      3.424
REMARK  Name = 
REMARK  3 active torsions:
REMARK  status: ('A' for Active; 'I' for Inactive)
REMARK    1  A    between atoms: N_1  and  S_2
REMARK    2  A    between atoms: S_2  and  N_5
REMARK    3  A    between atoms: N_5  and  C_6
REMARK                            x       y       z     vdW  Elec       q    Type
REMARK                         _______ _______ _______ _____ _____    ______ ____
ROOT
ATOM      1  C   UNL     1       5.493   6.582  16.212  0.00  0.00    +0.000 C 
ATOM      2  C   UNL     1       6.732   6.726  17.080  0.00  0.00    +0.000 C 
ATOM      3  C   UNL     1       6.722   5.699  18.200  0.00  0.00    +0.000 C 
ATOM      4  N   UNL     1       5.528   5.768  19.039  0.00  0.00    +0.000 NA
ATOM      5  C   UNL     1       5.510   4.687  20.037  0.00  0.00    +0.000 C 
ATOM      6  C   UNL     1       5.022   3.343  19.484  0.00  0.00    +0.000 C 
ATOM      7  C   UNL     1       3.689   3.490  18.801  0.00  0.00    +0.000 A 
ATOM      8  C   UNL     1       2.817   2.392  18.723  0.00  0.00    +0.000 A 
ATOM      9  C   UNL     1       1.553   2.527  18.152  0.00  0.00    +0.000 A 
ATOM     10  C   UNL     1       1.151   3.759  17.656  0.00  0.00    +0.000 A 
ATOM     11  C   UNL     1       2.020   4.849  17.716  0.00  0.00    +0.000 A 
ATOM     12  C   UNL     1       3.317   4.729  18.257  0.00  0.00    +0.000 A 
ATOM     13  C   UNL     1       4.213   5.967  18.385  0.00  0.00    +0.000 C 
ATOM     14  C   UNL     1       4.272   6.824  17.093  0.00  0.00    +0.000 C 
ENDROOT
BRANCH   1  15
ATOM     15  N   UNL     1       5.400   5.252  15.531  0.00  0.00    +0.000 NA
ATOM     16  H   UNL     1       5.027   4.523  16.146  0.00  0.00    +0.000 HD
BRANCH  15  17
ATOM     17  S   UNL     1       6.790   4.699  14.797  0.00  0.00    +0.000 S 
ATOM     18  O   UNL     1       7.683   4.163  15.789  0.00  0.00    +0.000 OA
ATOM     19  O   UNL     1       7.198   5.626  13.775  0.00  0.00    +0.000 OA
BRANCH  17  20
ATOM     20  N   UNL     1       6.111   3.399  14.014  0.00  0.00    +0.000 NA
ATOM     21  H   UNL     1       5.376   3.006  14.604  0.00  0.00    +0.000 HD
ATOM     22  H   UNL     1       6.837   2.709  13.830  0.00  0.00    +0.000 HD
ENDBRANCH  17  20
ENDBRANCH  15  17
ENDBRANCH   1  15
TORSDOF 3
ENDMDL
MODEL 9
REMARK VINA RESULT:      -5.8      1.287      1.776
REMARK  Name = 
REMARK  3 active torsions:
REMARK  status: ('A' for Active; 'I' for Inactive)
REMARK    1  A    between atoms: N_1  and  S_2
REMARK    2  A    between atoms: S_2  and  N_5
REMARK    3  A    between atoms: N_5  and  C_6
REMARK                            x       y       z     vdW  Elec       q    Type
REMARK                         _______ _______ _______ _____ _____    ______ ____
ROOT
ATOM      1  C   UNL     1       5.657   6.046  17.329  0.00  0.00    +0.000 C 
ATOM      2  C   UNL     1       4.892   7.359  17.347  0.00  0.00    +0.000 C 
ATOM      3  C   UNL     1       3.596   7.212  18.128  0.00  0.00    +0.000 C 
ATOM      4  N   UNL     1       2.731   6.150  17.618  0.00  0.00    +0.000 NA
ATOM      5  C   UNL     1       1.544   5.971  18.468  0.00  0.00    +0.000 C 
ATOM      6  C   UNL     1       1.804   5.131  19.725  0.00  0.00    +0.000 C 
ATOM      7  C   UNL     1       2.439   3.814  19.373  0.00  0.00    +0.000 A 
ATOM      8  C   UNL     1       2.263   2.704  20.216  0.00  0.00    +0.000 A 
ATOM      9  C   UNL     1       2.790   1.460  19.874  0.00  0.00    +0.000 A 
ATOM     10  C   UNL     1       3.495   1.315  18.687  0.00  0.00    +0.000 A 
ATOM     11  C   UNL     1       3.686   2.418  17.854  0.00  0.00    +0.000 A 
ATOM     12  C   UNL     1       3.194   3.694  18.195  0.00  0.00    +0.000 A 
ATOM     13  C   UNL     1       3.349   4.864  17.217  0.00  0.00    +0.000 C 
ATOM     14  C   UNL     1       4.783   5.004  16.641  0.00  0.00    +0.000 C 
ENDROOT
BRANCH   1  15
ATOM     15  N   UNL     1       6.064   5.580  18.693  0.00  0.00    +0.000 NA
ATOM     16  H   UNL     1       5.504   6.009  19.435  0.00  0.00    +0.000 HD
BRANCH  15  17
ATOM     17  S   UNL     1       7.682   5.719  19.069  0.00  0.00    +0.000 S 
ATOM     18  O   UNL     1       7.903   5.294  20.425  0.00  0.00    +0.000 OA
ATOM     19  O   UNL     1       8.201   6.945  18.523  0.00  0.00    +0.000 OA
BRANCH  17  20
ATOM     20  N   UNL     1       8.231   4.494  18.089  0.00  0.00    +0.000 NA
ATOM     21  H   UNL     1       8.296   4.843  17.131  0.00  0.00    +0.000 HD
ATOM     22  H   UNL     1       7.583   3.709  18.147  0.00  0.00    +0.000 HD
ENDBRANCH  17  20
ENDBRANCH  15  17
ENDBRANCH   1  15
TORSDOF 3
ENDMDL
