MODEL 1
REMARK VINA RESULT:      -8.6      0.000      0.000
REMARK  Name = 
REMARK  9 active torsions:
REMARK  status: ('A' for Active; 'I' for Inactive)
REMARK    1  A    between atoms: S_2  and  C_4
REMARK    2  A    between atoms: S_2  and  N_10
REMARK    3  A    between atoms: C_14  and  O_15
REMARK    4  A    between atoms: O_15  and  C_16
REMARK    5  A    between atoms: C_16  and  C_17
REMARK    6  A    between atoms: C_17  and  N_18
REMARK    7  A    between atoms: N_18  and  C_19
REMARK    8  A    between atoms: C_19  and  C_20
REMARK    9  A    between atoms: C_24  and  C_25
REMARK                            x       y       z     vdW  Elec       q    Type
REMARK                         _______ _______ _______ _____ _____    ______ ____
ROOT
ATOM      1  N   UNL     1       0.703   9.743  20.036  0.00  0.00    +0.000 N 
ATOM      2  C   UNL     1      -0.008   9.008  20.951  0.00  0.00    +0.000 A 
ATOM      3  C   UNL     1       0.893   8.085  21.408  0.00  0.00    +0.000 A 
ATOM      4  C   UNL     1       1.626   7.768  20.230  0.00  0.00    +0.000 A 
ATOM      5  C   UNL     1       2.219   6.556  19.835  0.00  0.00    +0.000 A 
ATOM      6  C   UNL     1       2.708   6.481  18.531  0.00  0.00    +0.000 A 
ATOM      7  C   UNL     1       2.696   7.603  17.693  0.00  0.00    +0.000 A 
ATOM      8  C   UNL     1       2.153   8.838  18.087  0.00  0.00    +0.000 A 
ATOM      9  C   UNL     1       1.536   8.867  19.352  0.00  0.00    +0.000 A 
ENDROOT
BRANCH   1  11
ATOM     10  O   UNL     1       1.302  11.863  18.854  0.00  0.00    +0.000 OA
ATOM     11  S   UNL     1       0.253  11.369  19.723  0.00  0.00    +0.000 S 
ATOM     12  O   UNL     1      -0.044  11.957  21.021  0.00  0.00    +0.000 OA
BRANCH  11  13
ATOM     13  C   UNL     1      -1.274  11.206  18.802  0.00  0.00    +0.000 A 
ATOM     14  C   UNL     1      -2.415  11.931  19.179  0.00  0.00    +0.000 A 
ATOM     15  C   UNL     1      -3.631  11.713  18.528  0.00  0.00    +0.000 A 
ATOM     16  C   UNL     1      -3.711  10.799  17.480  0.00  0.00    +0.000 A 
ATOM     17  C   UNL     1      -2.573  10.096  17.083  0.00  0.00    +0.000 A 
ATOM     18  C   UNL     1      -1.351  10.296  17.742  0.00  0.00    +0.000 A 
ENDBRANCH  11  13
ENDBRANCH   1  11
BRANCH   5  19
ATOM     19  O   UNL     1       2.105   5.526  20.724  0.00  0.00    +0.000 OA
BRANCH  19  20
ATOM     20  C   UNL     1       1.087   4.562  20.493  0.00  0.00    +0.000 C 
BRANCH  20  21
ATOM     21  C   UNL     1       1.553   3.178  20.989  0.00  0.00    +0.000 C 
BRANCH  21  22
ATOM     22  N   UNL     1       3.005   3.081  21.203  0.00  0.00    +0.000 NA
ATOM     23  H   UNL     1       3.205   2.674  22.115  0.00  0.00    +0.000 HD
BRANCH  22  24
ATOM     24  C   UNL     1       3.630   2.255  20.166  0.00  0.00    +0.000 C 
BRANCH  24  25
ATOM     25  C   UNL     1       4.188   3.095  19.038  0.00  0.00    +0.000 A 
ATOM     26  C   UNL     1       3.661   2.982  17.747  0.00  0.00    +0.000 A 
ATOM     27  C   UNL     1       4.195   3.718  16.689  0.00  0.00    +0.000 A 
ATOM     28  C   UNL     1       5.272   4.571  16.905  0.00  0.00    +0.000 A 
ATOM     29  C   UNL     1       5.832   4.701  18.192  0.00  0.00    +0.000 A 
ATOM     30  C   UNL     1       5.270   3.964  19.250  0.00  0.00    +0.000 A 
BRANCH  29  31
ATOM     31  C   UNL     1       7.020   5.588  18.428  0.00  0.00    +0.000 C 
ATOM     32  F   UNL     1       6.902   6.846  17.907  0.00  0.00    +0.000 F 
ATOM     33  F   UNL     1       7.267   5.765  19.771  0.00  0.00    +0.000 F 
ATOM     34  F   UNL     1       8.182   5.081  17.922  0.00  0.00    +0.000 F 
ENDBRANCH  29  31
ENDBRANCH  24  25
ENDBRANCH  22  24
ENDBRANCH  21  22
ENDBRANCH  20  21
ENDBRANCH  19  20
ENDBRANCH   5  19
TORSDOF 9
ENDMDL
MODEL 2
REMARK VINA RESULT:      -8.3      0.908      1.230
REMARK  Name = 
REMARK  9 active torsions:
REMARK  status: ('A' for Active; 'I' for Inactive)
REMARK    1  A    between atoms: S_2  and  C_4
REMARK    2  A    between atoms: S_2  and  N_10
REMARK    3  A    between atoms: C_14  and  O_15
REMARK    4  A    between atoms: O_15  and  C_16
REMARK    5  A    between atoms: C_16  and  C_17
REMARK    6  A    between atoms: C_17  and  N_18
REMARK    7  A    between atoms: N_18  and  C_19
REMARK    8  A    between atoms: C_19  and  C_20
REMARK    9  A    between atoms: C_24  and  C_25
REMARK                            x       y       z     vdW  Elec       q    Type
REMARK                         _______ _______ _______ _____ _____    ______ ____
ROOT
ATOM      1  N   UNL     1       0.289  10.136  20.183  0.00  0.00    +0.000 N 
ATOM      2  C   UNL     1      -0.270   9.278  21.098  0.00  0.00    +0.000 A 
ATOM      3  C   UNL     1       0.767   8.465  21.467  0.00  0.00    +0.000 A 
ATOM      4  C   UNL     1       1.468   8.293  20.241  0.00  0.00    +0.000 A 
ATOM      5  C   UNL     1       2.191   7.186  19.762  0.00  0.00    +0.000 A 
ATOM      6  C   UNL     1       2.613   7.227  18.433  0.00  0.00    +0.000 A 
ATOM      7  C   UNL     1       2.409   8.369  17.648  0.00  0.00    +0.000 A 
ATOM      8  C   UNL     1       1.734   9.506  18.125  0.00  0.00    +0.000 A 
ATOM      9  C   UNL     1       1.189   9.404  19.419  0.00  0.00    +0.000 A 
ENDROOT
BRANCH   1  11
ATOM     10  O   UNL     1       0.620  12.413  19.205  0.00  0.00    +0.000 OA
ATOM     11  S   UNL     1      -0.385  11.699  19.968  0.00  0.00    +0.000 S 
ATOM     12  O   UNL     1      -0.830  12.126  21.286  0.00  0.00    +0.000 OA
BRANCH  11  13
ATOM     13  C   UNL     1      -1.823  11.394  18.946  0.00  0.00    +0.000 A 
ATOM     14  C   UNL     1      -3.041  12.037  19.217  0.00  0.00    +0.000 A 
ATOM     15  C   UNL     1      -4.185  11.707  18.488  0.00  0.00    +0.000 A 
ATOM     16  C   UNL     1      -4.118  10.763  17.466  0.00  0.00    +0.000 A 
ATOM     17  C   UNL     1      -2.903  10.141  17.173  0.00  0.00    +0.000 A 
ATOM     18  C   UNL     1      -1.752  10.453  17.911  0.00  0.00    +0.000 A 
ENDBRANCH  11  13
ENDBRANCH   1  11
BRANCH   5  19
ATOM     19  O   UNL     1       2.260   6.116  20.607  0.00  0.00    +0.000 OA
BRANCH  19  20
ATOM     20  C   UNL     1       1.719   4.882  20.158  0.00  0.00    +0.000 C 
BRANCH  20  21
ATOM     21  C   UNL     1       2.646   3.721  20.571  0.00  0.00    +0.000 C 
BRANCH  21  22
ATOM     22  N   UNL     1       3.153   2.933  19.436  0.00  0.00    +0.000 NA
ATOM     23  H   UNL     1       2.624   2.069  19.337  0.00  0.00    +0.000 HD
BRANCH  22  24
ATOM     24  C   UNL     1       3.057   3.696  18.188  0.00  0.00    +0.000 C 
BRANCH  24  25
ATOM     25  C   UNL     1       4.422   4.061  17.646  0.00  0.00    +0.000 A 
ATOM     26  C   UNL     1       4.765   3.744  16.327  0.00  0.00    +0.000 A 
ATOM     27  C   UNL     1       6.034   4.035  15.827  0.00  0.00    +0.000 A 
ATOM     28  C   UNL     1       6.984   4.639  16.644  0.00  0.00    +0.000 A 
ATOM     29  C   UNL     1       6.674   4.964  17.980  0.00  0.00    +0.000 A 
ATOM     30  C   UNL     1       5.383   4.678  18.462  0.00  0.00    +0.000 A 
BRANCH  29  31
ATOM     31  C   UNL     1       7.704   5.579  18.882  0.00  0.00    +0.000 C 
ATOM     32  F   UNL     1       7.291   5.765  20.172  0.00  0.00    +0.000 F 
ATOM     33  F   UNL     1       8.839   4.805  18.964  0.00  0.00    +0.000 F 
ATOM     34  F   UNL     1       8.142   6.798  18.450  0.00  0.00    +0.000 F 
ENDBRANCH  29  31
ENDBRANCH  24  25
ENDBRANCH  22  24
ENDBRANCH  21  22
ENDBRANCH  20  21
ENDBRANCH  19  20
ENDBRANCH   5  19
TORSDOF 9
ENDMDL
MODEL 3
REMARK VINA RESULT:      -8.3      2.547      3.794
REMARK  Name = 
REMARK  9 active torsions:
REMARK  status: ('A' for Active; 'I' for Inactive)
REMARK    1  A    between atoms: S_2  and  C_4
REMARK    2  A    between atoms: S_2  and  N_10
REMARK    3  A    between atoms: C_14  and  O_15
REMARK    4  A    between atoms: O_15  and  C_16
REMARK    5  A    between atoms: C_16  and  C_17
REMARK    6  A    between atoms: C_17  and  N_18
REMARK    7  A    between atoms: N_18  and  C_19
REMARK    8  A    between atoms: C_19  and  C_20
REMARK    9  A    between atoms: C_24  and  C_25
REMARK                            x       y       z     vdW  Elec       q    Type
REMARK                         _______ _______ _______ _____ _____    ______ ____
ROOT
ATOM      1  N   UNL     1       0.777  10.288  19.213  0.00  0.00    +0.000 N 
ATOM      2  C   UNL     1       1.681  10.825  18.331  0.00  0.00    +0.000 A 
ATOM      3  C   UNL     1       2.007   9.778  17.512  0.00  0.00    +0.000 A 
ATOM      4  C   UNL     1       2.032   8.681  18.418  0.00  0.00    +0.000 A 
ATOM      5  C   UNL     1       2.834   7.527  18.415  0.00  0.00    +0.000 A 
ATOM      6  C   UNL     1       2.777   6.708  19.544  0.00  0.00    +0.000 A 
ATOM      7  C   UNL     1       1.880   6.980  20.584  0.00  0.00    +0.000 A 
ATOM      8  C   UNL     1       1.033   8.102  20.582  0.00  0.00    +0.000 A 
ATOM      9  C   UNL     1       1.196   8.997  19.508  0.00  0.00    +0.000 A 
ENDROOT
BRANCH   1  11
ATOM     10  O   UNL     1       0.123  12.643  19.741  0.00  0.00    +0.000 OA
ATOM     11  S   UNL     1      -0.393  11.305  19.949  0.00  0.00    +0.000 S 
ATOM     12  O   UNL     1      -0.633  10.745  21.271  0.00  0.00    +0.000 OA
BRANCH  11  13
ATOM     13  C   UNL     1      -1.853  11.052  18.943  0.00  0.00    +0.000 A 
ATOM     14  C   UNL     1      -1.873  10.059  17.951  0.00  0.00    +0.000 A 
ATOM     15  C   UNL     1      -2.970   9.944  17.096  0.00  0.00    +0.000 A 
ATOM     16  C   UNL     1      -4.065  10.793  17.242  0.00  0.00    +0.000 A 
ATOM     17  C   UNL     1      -4.063  11.764  18.244  0.00  0.00    +0.000 A 
ATOM     18  C   UNL     1      -2.958  11.898  19.098  0.00  0.00    +0.000 A 
ENDBRANCH  11  13
ENDBRANCH   1  11
BRANCH   5  19
ATOM     19  O   UNL     1       3.708   7.417  17.372  0.00  0.00    +0.000 OA
BRANCH  19  20
ATOM     20  C   UNL     1       4.920   6.710  17.595  0.00  0.00    +0.000 C 
BRANCH  20  21
ATOM     21  C   UNL     1       5.358   5.998  16.300  0.00  0.00    +0.000 C 
BRANCH  21  22
ATOM     22  N   UNL     1       4.744   4.674  16.113  0.00  0.00    +0.000 NA
ATOM     23  H   UNL     1       5.159   4.197  15.314  0.00  0.00    +0.000 HD
BRANCH  22  24
ATOM     24  C   UNL     1       4.921   3.844  17.307  0.00  0.00    +0.000 C 
BRANCH  24  25
ATOM     25  C   UNL     1       3.609   3.594  18.018  0.00  0.00    +0.000 A 
ATOM     26  C   UNL     1       2.397   3.729  17.331  0.00  0.00    +0.000 A 
ATOM     27  C   UNL     1       1.179   3.544  17.984  0.00  0.00    +0.000 A 
ATOM     28  C   UNL     1       1.154   3.232  19.340  0.00  0.00    +0.000 A 
ATOM     29  C   UNL     1       2.356   3.098  20.063  0.00  0.00    +0.000 A 
ATOM     30  C   UNL     1       3.576   3.271  19.384  0.00  0.00    +0.000 A 
BRANCH  29  31
ATOM     31  C   UNL     1       2.340   2.802  21.535  0.00  0.00    +0.000 C 
ATOM     32  F   UNL     1       2.391   3.907  22.337  0.00  0.00    +0.000 F 
ATOM     33  F   UNL     1       1.200   2.126  21.908  0.00  0.00    +0.000 F 
ATOM     34  F   UNL     1       3.370   2.000  21.937  0.00  0.00    +0.000 F 
ENDBRANCH  29  31
ENDBRANCH  24  25
ENDBRANCH  22  24
ENDBRANCH  21  22
ENDBRANCH  20  21
ENDBRANCH  19  20
ENDBRANCH   5  19
TORSDOF 9
ENDMDL
MODEL 4
REMARK VINA RESULT:      -8.1      0.709      1.100
REMARK  Name = 
REMARK  9 active torsions:
REMARK  status: ('A' for Active; 'I' for Inactive)
REMARK    1  A    between atoms: S_2  and  C_4
REMARK    2  A    between atoms: S_2  and  N_10
REMARK    3  A    between atoms: C_14  and  O_15
REMARK    4  A    between atoms: O_15  and  C_16
REMARK    5  A    between atoms: C_16  and  C_17
REMARK    6  A    between atoms: C_17  and  N_18
REMARK    7  A    between atoms: N_18  and  C_19
REMARK    8  A    between atoms: C_19  and  C_20
REMARK    9  A    between atoms: C_24  and  C_25
REMARK                            x       y       z     vdW  Elec       q    Type
REMARK                         _______ _______ _______ _____ _____    ______ ____
ROOT
ATOM      1  N   UNL     1       0.668   9.884  20.103  0.00  0.00    +0.000 N 
ATOM      2  C   UNL     1      -0.147   9.260  21.013  0.00  0.00    +0.000 A 
ATOM      3  C   UNL     1       0.657   8.314  21.586  0.00  0.00    +0.000 A 
ATOM      4  C   UNL     1       1.438   7.871  20.482  0.00  0.00    +0.000 A 
ATOM      5  C   UNL     1       1.970   6.600  20.204  0.00  0.00    +0.000 A 
ATOM      6  C   UNL     1       2.533   6.405  18.943  0.00  0.00    +0.000 A 
ATOM      7  C   UNL     1       2.651   7.467  18.037  0.00  0.00    +0.000 A 
ATOM      8  C   UNL     1       2.171   8.758  18.316  0.00  0.00    +0.000 A 
ATOM      9  C   UNL     1       1.479   8.912  19.532  0.00  0.00    +0.000 A 
ENDROOT
BRANCH   1  11
ATOM     10  O   UNL     1       1.276  11.766  18.573  0.00  0.00    +0.000 OA
ATOM     11  S   UNL     1       0.352  11.511  19.660  0.00  0.00    +0.000 S 
ATOM     12  O   UNL     1       0.359  12.272  20.901  0.00  0.00    +0.000 OA
BRANCH  11  13
ATOM     13  C   UNL     1      -1.324  11.451  19.031  0.00  0.00    +0.000 A 
ATOM     14  C   UNL     1      -1.614  10.772  17.837  0.00  0.00    +0.000 A 
ATOM     15  C   UNL     1      -2.900  10.827  17.294  0.00  0.00    +0.000 A 
ATOM     16  C   UNL     1      -3.909  11.527  17.951  0.00  0.00    +0.000 A 
ATOM     17  C   UNL     1      -3.633  12.180  19.153  0.00  0.00    +0.000 A 
ATOM     18  C   UNL     1      -2.341  12.146  19.697  0.00  0.00    +0.000 A 
ENDBRANCH  11  13
ENDBRANCH   1  11
BRANCH   5  19
ATOM     19  O   UNL     1       1.730   5.641  21.147  0.00  0.00    +0.000 OA
BRANCH  19  20
ATOM     20  C   UNL     1       2.443   4.417  21.042  0.00  0.00    +0.000 C 
BRANCH  20  21
ATOM     21  C   UNL     1       1.505   3.304  20.534  0.00  0.00    +0.000 C 
BRANCH  21  22
ATOM     22  N   UNL     1       1.957   2.667  19.287  0.00  0.00    +0.000 NA
ATOM     23  H   UNL     1       1.745   3.259  18.487  0.00  0.00    +0.000 HD
BRANCH  22  24
ATOM     24  C   UNL     1       3.401   2.417  19.324  0.00  0.00    +0.000 C 
BRANCH  24  25
ATOM     25  C   UNL     1       4.153   3.322  18.374  0.00  0.00    +0.000 A 
ATOM     26  C   UNL     1       3.704   3.495  17.059  0.00  0.00    +0.000 A 
ATOM     27  C   UNL     1       4.411   4.291  16.159  0.00  0.00    +0.000 A 
ATOM     28  C   UNL     1       5.586   4.920  16.557  0.00  0.00    +0.000 A 
ATOM     29  C   UNL     1       6.071   4.760  17.871  0.00  0.00    +0.000 A 
ATOM     30  C   UNL     1       5.336   3.966  18.771  0.00  0.00    +0.000 A 
BRANCH  29  31
ATOM     31  C   UNL     1       7.359   5.400  18.300  0.00  0.00    +0.000 C 
ATOM     32  F   UNL     1       7.781   6.422  17.495  0.00  0.00    +0.000 F 
ATOM     33  F   UNL     1       7.268   5.938  19.563  0.00  0.00    +0.000 F 
ATOM     34  F   UNL     1       8.404   4.523  18.367  0.00  0.00    +0.000 F 
ENDBRANCH  29  31
ENDBRANCH  24  25
ENDBRANCH  22  24
ENDBRANCH  21  22
ENDBRANCH  20  21
ENDBRANCH  19  20
ENDBRANCH   5  19
TORSDOF 9
ENDMDL
MODEL 5
REMARK VINA RESULT:      -8.0      1.518      2.026
REMARK  Name = 
REMARK  9 active torsions:
REMARK  status: ('A' for Active; 'I' for Inactive)
REMARK    1  A    between atoms: S_2  and  C_4
REMARK    2  A    between atoms: S_2  and  N_10
REMARK    3  A    between atoms: C_14  and  O_15
REMARK    4  A    between atoms: O_15  and  C_16
REMARK    5  A    between atoms: C_16  and  C_17
REMARK    6  A    between atoms: C_17  and  N_18
REMARK    7  A    between atoms: N_18  and  C_19
REMARK    8  A    between atoms: C_19  and  C_20
REMARK    9  A    between atoms: C_24  and  C_25
REMARK                            x       y       z     vdW  Elec       q    Type
REMARK                         _______ _______ _______ _____ _____    ______ ____
ROOT
ATOM      1  N   UNL     1       0.309   9.726  20.305  0.00  0.00    +0.000 N 
ATOM      2  C   UNL     1      -0.160   8.872  21.272  0.00  0.00    +0.000 A 
ATOM      3  C   UNL     1       0.926   8.105  21.592  0.00  0.00    +0.000 A 
ATOM      4  C   UNL     1       1.556   7.928  20.328  0.00  0.00    +0.000 A 
ATOM      5  C   UNL     1       2.286   6.836  19.828  0.00  0.00    +0.000 A 
ATOM      6  C   UNL     1       2.622   6.859  18.475  0.00  0.00    +0.000 A 
ATOM      7  C   UNL     1       2.329   7.974  17.680  0.00  0.00    +0.000 A 
ATOM      8  C   UNL     1       1.644   9.098  18.174  0.00  0.00    +0.000 A 
ATOM      9  C   UNL     1       1.185   9.008  19.502  0.00  0.00    +0.000 A 
ENDROOT
BRANCH   1  11
ATOM     10  O   UNL     1       0.660  12.130  19.715  0.00  0.00    +0.000 OA
ATOM     11  S   UNL     1      -0.433  11.260  20.099  0.00  0.00    +0.000 S 
ATOM     12  O   UNL     1      -1.237  11.478  21.293  0.00  0.00    +0.000 OA
BRANCH  11  13
ATOM     13  C   UNL     1      -1.528  11.007  18.705  0.00  0.00    +0.000 A 
ATOM     14  C   UNL     1      -2.333   9.859  18.629  0.00  0.00    +0.000 A 
ATOM     15  C   UNL     1      -3.097   9.612  17.487  0.00  0.00    +0.000 A 
ATOM     16  C   UNL     1      -3.090  10.520  16.430  0.00  0.00    +0.000 A 
ATOM     17  C   UNL     1      -2.314  11.676  16.511  0.00  0.00    +0.000 A 
ATOM     18  C   UNL     1      -1.530  11.924  17.648  0.00  0.00    +0.000 A 
ENDBRANCH  11  13
ENDBRANCH   1  11
BRANCH   5  19
ATOM     19  O   UNL     1       2.447   5.789  20.691  0.00  0.00    +0.000 OA
BRANCH  19  20
ATOM     20  C   UNL     1       1.697   4.608  20.445  0.00  0.00    +0.000 C 
BRANCH  20  21
ATOM     21  C   UNL     1       2.368   3.407  21.140  0.00  0.00    +0.000 C 
BRANCH  21  22
ATOM     22  N   UNL     1       3.543   2.885  20.424  0.00  0.00    +0.000 NA
ATOM     23  H   UNL     1       3.653   1.888  20.599  0.00  0.00    +0.000 HD
BRANCH  22  24
ATOM     24  C   UNL     1       3.413   3.104  18.981  0.00  0.00    +0.000 C 
BRANCH  24  25
ATOM     25  C   UNL     1       4.602   3.850  18.417  0.00  0.00    +0.000 A 
ATOM     26  C   UNL     1       5.437   4.591  19.261  0.00  0.00    +0.000 A 
ATOM     27  C   UNL     1       6.511   5.318  18.749  0.00  0.00    +0.000 A 
ATOM     28  C   UNL     1       6.761   5.324  17.381  0.00  0.00    +0.000 A 
ATOM     29  C   UNL     1       5.934   4.595  16.502  0.00  0.00    +0.000 A 
ATOM     30  C   UNL     1       4.866   3.854  17.038  0.00  0.00    +0.000 A 
BRANCH  29  31
ATOM     31  C   UNL     1       6.170   4.627  15.019  0.00  0.00    +0.000 C 
ATOM     32  F   UNL     1       5.306   5.426  14.324  0.00  0.00    +0.000 F 
ATOM     33  F   UNL     1       7.430   5.088  14.712  0.00  0.00    +0.000 F 
ATOM     34  F   UNL     1       6.095   3.396  14.433  0.00  0.00    +0.000 F 
ENDBRANCH  29  31
ENDBRANCH  24  25
ENDBRANCH  22  24
ENDBRANCH  21  22
ENDBRANCH  20  21
ENDBRANCH  19  20
ENDBRANCH   5  19
TORSDOF 9
ENDMDL
MODEL 6
REMARK VINA RESULT:      -7.8      5.503     10.141
REMARK  Name = 
REMARK  9 active torsions:
REMARK  status: ('A' for Active; 'I' for Inactive)
REMARK    1  A    between atoms: S_2  and  C_4
REMARK    2  A    between atoms: S_2  and  N_10
REMARK    3  A    between atoms: C_14  and  O_15
REMARK    4  A    between atoms: O_15  and  C_16
REMARK    5  A    between atoms: C_16  and  C_17
REMARK    6  A    between atoms: C_17  and  N_18
REMARK    7  A    between atoms: N_18  and  C_19
REMARK    8  A    between atoms: C_19  and  C_20
REMARK    9  A    between atoms: C_24  and  C_25
REMARK                            x       y       z     vdW  Elec       q    Type
REMARK                         _______ _______ _______ _____ _____    ______ ____
ROOT
ATOM      1  N   UNL     1       2.795   4.571  19.060  0.00  0.00    +0.000 N 
ATOM      2  C   UNL     1       2.834   4.400  20.421  0.00  0.00    +0.000 A 
ATOM      3  C   UNL     1       1.824   5.196  20.885  0.00  0.00    +0.000 A 
ATOM      4  C   UNL     1       1.905   6.324  20.021  0.00  0.00    +0.000 A 
ATOM      5  C   UNL     1       1.636   7.679  20.279  0.00  0.00    +0.000 A 
ATOM      6  C   UNL     1       1.992   8.599  19.292  0.00  0.00    +0.000 A 
ATOM      7  C   UNL     1       2.502   8.170  18.060  0.00  0.00    +0.000 A 
ATOM      8  C   UNL     1       2.732   6.815  17.765  0.00  0.00    +0.000 A 
ATOM      9  C   UNL     1       2.502   5.906  18.815  0.00  0.00    +0.000 A 
ENDROOT
BRANCH   1  11
ATOM     10  O   UNL     1       2.334   3.200  17.021  0.00  0.00    +0.000 OA
ATOM     11  S   UNL     1       3.364   3.319  18.033  0.00  0.00    +0.000 S 
ATOM     12  O   UNL     1       3.742   2.223  18.912  0.00  0.00    +0.000 OA
BRANCH  11  13
ATOM     13  C   UNL     1       4.847   4.017  17.312  0.00  0.00    +0.000 A 
ATOM     14  C   UNL     1       4.969   4.151  15.920  0.00  0.00    +0.000 A 
ATOM     15  C   UNL     1       6.171   4.588  15.360  0.00  0.00    +0.000 A 
ATOM     16  C   UNL     1       7.245   4.925  16.181  0.00  0.00    +0.000 A 
ATOM     17  C   UNL     1       7.121   4.820  17.567  0.00  0.00    +0.000 A 
ATOM     18  C   UNL     1       5.922   4.366  18.138  0.00  0.00    +0.000 A 
ENDBRANCH  11  13
ENDBRANCH   1  11
BRANCH   5  19
ATOM     19  O   UNL     1       1.200   7.966  21.541  0.00  0.00    +0.000 OA
BRANCH  19  20
ATOM     20  C   UNL     1       1.164   9.330  21.935  0.00  0.00    +0.000 C 
BRANCH  20  21
ATOM     21  C   UNL     1      -0.298   9.805  22.049  0.00  0.00    +0.000 C 
BRANCH  21  22
ATOM     22  N   UNL     1      -0.533  10.749  23.153  0.00  0.00    +0.000 NA
ATOM     23  H   UNL     1       0.258  10.751  23.795  0.00  0.00    +0.000 HD
BRANCH  22  24
ATOM     24  C   UNL     1      -0.736  12.107  22.642  0.00  0.00    +0.000 C 
BRANCH  24  25
ATOM     25  C   UNL     1      -2.165  12.336  22.204  0.00  0.00    +0.000 A 
ATOM     26  C   UNL     1      -2.473  12.483  20.847  0.00  0.00    +0.000 A 
ATOM     27  C   UNL     1      -3.779  12.737  20.432  0.00  0.00    +0.000 A 
ATOM     28  C   UNL     1      -4.799  12.860  21.370  0.00  0.00    +0.000 A 
ATOM     29  C   UNL     1      -4.521  12.727  22.746  0.00  0.00    +0.000 A 
ATOM     30  C   UNL     1      -3.201  12.453  23.145  0.00  0.00    +0.000 A 
BRANCH  29  31
ATOM     31  C   UNL     1      -5.606  12.898  23.770  0.00  0.00    +0.000 C 
ATOM     32  F   UNL     1      -5.901  14.198  24.073  0.00  0.00    +0.000 F 
ATOM     33  F   UNL     1      -6.793  12.335  23.357  0.00  0.00    +0.000 F 
ATOM     34  F   UNL     1      -5.327  12.290  24.961  0.00  0.00    +0.000 F 
ENDBRANCH  29  31
ENDBRANCH  24  25
ENDBRANCH  22  24
ENDBRANCH  21  22
ENDBRANCH  20  21
ENDBRANCH  19  20
ENDBRANCH   5  19
TORSDOF 9
ENDMDL
MODEL 7
REMARK VINA RESULT:      -7.8      1.136      1.829
REMARK  Name = 
REMARK  9 active torsions:
REMARK  status: ('A' for Active; 'I' for Inactive)
REMARK    1  A    between atoms: S_2  and  C_4
REMARK    2  A    between atoms: S_2  and  N_10
REMARK    3  A    between atoms: C_14  and  O_15
REMARK    4  A    between atoms: O_15  and  C_16
REMARK    5  A    between atoms: C_16  and  C_17
REMARK    6  A    between atoms: C_17  and  N_18
REMARK    7  A    between atoms: N_18  and  C_19
REMARK    8  A    between atoms: C_19  and  C_20
REMARK    9  A    between atoms: C_24  and  C_25
REMARK                            x       y       z     vdW  Elec       q    Type
REMARK                         _______ _______ _______ _____ _____    ______ ____
ROOT
ATOM      1  N   UNL     1       0.666  10.088  20.445  0.00  0.00    +0.000 N 
ATOM      2  C   UNL     1       0.046   9.229  21.317  0.00  0.00    +0.000 A 
ATOM      3  C   UNL     1       0.981   8.256  21.546  0.00  0.00    +0.000 A 
ATOM      4  C   UNL     1       1.586   8.110  20.266  0.00  0.00    +0.000 A 
ATOM      5  C   UNL     1       2.125   6.969  19.647  0.00  0.00    +0.000 A 
ATOM      6  C   UNL     1       2.477   7.078  18.302  0.00  0.00    +0.000 A 
ATOM      7  C   UNL     1       2.389   8.306  17.634  0.00  0.00    +0.000 A 
ATOM      8  C   UNL     1       1.900   9.471  18.250  0.00  0.00    +0.000 A 
ATOM      9  C   UNL     1       1.416   9.320  19.563  0.00  0.00    +0.000 A 
ENDROOT
BRANCH   1  11
ATOM     10  O   UNL     1       1.102  12.338  19.446  0.00  0.00    +0.000 OA
ATOM     11  S   UNL     1       0.201  11.739  20.410  0.00  0.00    +0.000 S 
ATOM     12  O   UNL     1       0.132  12.164  21.800  0.00  0.00    +0.000 OA
BRANCH  11  13
ATOM     13  C   UNL     1      -1.459  11.688  19.740  0.00  0.00    +0.000 A 
ATOM     14  C   UNL     1      -1.747  10.912  18.606  0.00  0.00    +0.000 A 
ATOM     15  C   UNL     1      -3.014  10.967  18.022  0.00  0.00    +0.000 A 
ATOM     16  C   UNL     1      -4.009  11.766  18.580  0.00  0.00    +0.000 A 
ATOM     17  C   UNL     1      -3.737  12.518  19.724  0.00  0.00    +0.000 A 
ATOM     18  C   UNL     1      -2.462  12.482  20.308  0.00  0.00    +0.000 A 
ENDBRANCH  11  13
ENDBRANCH   1  11
BRANCH   5  19
ATOM     19  O   UNL     1       2.093   5.824  20.391  0.00  0.00    +0.000 OA
BRANCH  19  20
ATOM     20  C   UNL     1       3.153   4.893  20.219  0.00  0.00    +0.000 C 
BRANCH  20  21
ATOM     21  C   UNL     1       2.622   3.612  19.545  0.00  0.00    +0.000 C 
BRANCH  21  22
ATOM     22  N   UNL     1       2.512   3.712  18.081  0.00  0.00    +0.000 NA
ATOM     23  H   UNL     1       2.505   4.688  17.789  0.00  0.00    +0.000 HD
BRANCH  22  24
ATOM     24  C   UNL     1       3.630   3.027  17.427  0.00  0.00    +0.000 C 
BRANCH  24  25
ATOM     25  C   UNL     1       4.755   3.982  17.090  0.00  0.00    +0.000 A 
ATOM     26  C   UNL     1       4.943   4.414  15.772  0.00  0.00    +0.000 A 
ATOM     27  C   UNL     1       6.001   5.259  15.440  0.00  0.00    +0.000 A 
ATOM     28  C   UNL     1       6.896   5.677  16.420  0.00  0.00    +0.000 A 
ATOM     29  C   UNL     1       6.740   5.253  17.755  0.00  0.00    +0.000 A 
ATOM     30  C   UNL     1       5.657   4.414  18.075  0.00  0.00    +0.000 A 
BRANCH  29  31
ATOM     31  C   UNL     1       7.722   5.665  18.813  0.00  0.00    +0.000 C 
ATOM     32  F   UNL     1       8.789   4.823  18.955  0.00  0.00    +0.000 F 
ATOM     33  F   UNL     1       8.261   6.905  18.556  0.00  0.00    +0.000 F 
ATOM     34  F   UNL     1       7.165   5.776  20.055  0.00  0.00    +0.000 F 
ENDBRANCH  29  31
ENDBRANCH  24  25
ENDBRANCH  22  24
ENDBRANCH  21  22
ENDBRANCH  20  21
ENDBRANCH  19  20
ENDBRANCH   5  19
TORSDOF 9
ENDMDL
MODEL 8
REMARK VINA RESULT:      -7.7      1.588      2.293
REMARK  Name = 
REMARK  9 active torsions:
REMARK  status: ('A' for Active; 'I' for Inactive)
REMARK    1  A    between atoms: S_2  and  C_4
REMARK    2  A    between atoms: S_2  and  N_10
REMARK    3  A    between atoms: C_14  and  O_15
REMARK    4  A    between atoms: O_15  and  C_16
REMARK    5  A    between atoms: C_16  and  C_17
REMARK    6  A    between atoms: C_17  and  N_18
REMARK    7  A    between atoms: N_18  and  C_19
REMARK    8  A    between atoms: C_19  and  C_20
REMARK    9  A    between atoms: C_24  and  C_25
REMARK                            x       y       z     vdW  Elec       q    Type
REMARK                         _______ _______ _______ _____ _____    ______ ____
ROOT
ATOM      1  N   UNL     1       0.551  10.098  19.801  0.00  0.00    +0.000 N 
ATOM      2  C   UNL     1      -0.227   9.396  20.687  0.00  0.00    +0.000 A 
ATOM      3  C   UNL     1       0.644   8.513  21.265  0.00  0.00    +0.000 A 
ATOM      4  C   UNL     1       1.480   8.152  20.172  0.00  0.00    +0.000 A 
ATOM      5  C   UNL     1       2.122   6.933  19.891  0.00  0.00    +0.000 A 
ATOM      6  C   UNL     1       2.724   6.803  18.639  0.00  0.00    +0.000 A 
ATOM      7  C   UNL     1       2.769   7.883  17.748  0.00  0.00    +0.000 A 
ATOM      8  C   UNL     1       2.177   9.125  18.031  0.00  0.00    +0.000 A 
ATOM      9  C   UNL     1       1.452   9.205  19.236  0.00  0.00    +0.000 A 
ENDROOT
BRANCH   1  11
ATOM     10  O   UNL     1      -0.880  11.520  18.324  0.00  0.00    +0.000 OA
ATOM     11  S   UNL     1       0.107  11.698  19.370  0.00  0.00    +0.000 S 
ATOM     12  O   UNL     1       1.356  12.417  19.166  0.00  0.00    +0.000 OA
BRANCH  11  13
ATOM     13  C   UNL     1      -0.681  12.323  20.851  0.00  0.00    +0.000 A 
ATOM     14  C   UNL     1      -0.011  13.228  21.689  0.00  0.00    +0.000 A 
ATOM     15  C   UNL     1      -0.586  13.620  22.900  0.00  0.00    +0.000 A 
ATOM     16  C   UNL     1      -1.841  13.142  23.268  0.00  0.00    +0.000 A 
ATOM     17  C   UNL     1      -2.524  12.264  22.426  0.00  0.00    +0.000 A 
ATOM     18  C   UNL     1      -1.948  11.850  21.216  0.00  0.00    +0.000 A 
ENDBRANCH  11  13
ENDBRANCH   1  11
BRANCH   5  19
ATOM     19  O   UNL     1       1.946   5.945  20.817  0.00  0.00    +0.000 OA
BRANCH  19  20
ATOM     20  C   UNL     1       1.091   4.863  20.476  0.00  0.00    +0.000 C 
BRANCH  20  21
ATOM     21  C   UNL     1       1.560   3.579  21.188  0.00  0.00    +0.000 C 
BRANCH  21  22
ATOM     22  N   UNL     1       3.009   3.344  21.097  0.00  0.00    +0.000 NA
ATOM     23  H   UNL     1       3.349   2.879  21.937  0.00  0.00    +0.000 HD
BRANCH  22  24
ATOM     24  C   UNL     1       3.330   2.514  19.932  0.00  0.00    +0.000 C 
BRANCH  24  25
ATOM     25  C   UNL     1       4.021   3.310  18.847  0.00  0.00    +0.000 A 
ATOM     26  C   UNL     1       3.469   3.379  17.563  0.00  0.00    +0.000 A 
ATOM     27  C   UNL     1       4.117   4.073  16.542  0.00  0.00    +0.000 A 
ATOM     28  C   UNL     1       5.334   4.701  16.787  0.00  0.00    +0.000 A 
ATOM     29  C   UNL     1       5.921   4.643  18.067  0.00  0.00    +0.000 A 
ATOM     30  C   UNL     1       5.245   3.953  19.090  0.00  0.00    +0.000 A 
BRANCH  29  31
ATOM     31  C   UNL     1       7.253   5.283  18.333  0.00  0.00    +0.000 C 
ATOM     32  F   UNL     1       8.326   4.456  18.151  0.00  0.00    +0.000 F 
ATOM     33  F   UNL     1       7.475   6.364  17.510  0.00  0.00    +0.000 F 
ATOM     34  F   UNL     1       7.373   5.777  19.600  0.00  0.00    +0.000 F 
ENDBRANCH  29  31
ENDBRANCH  24  25
ENDBRANCH  22  24
ENDBRANCH  21  22
ENDBRANCH  20  21
ENDBRANCH  19  20
ENDBRANCH   5  19
TORSDOF 9
ENDMDL
MODEL 9
REMARK VINA RESULT:      -7.6      1.885      2.804
REMARK  Name = 
REMARK  9 active torsions:
REMARK  status: ('A' for Active; 'I' for Inactive)
REMARK    1  A    between atoms: S_2  and  C_4
REMARK    2  A    between atoms: S_2  and  N_10
REMARK    3  A    between atoms: C_14  and  O_15
REMARK    4  A    between atoms: O_15  and  C_16
REMARK    5  A    between atoms: C_16  and  C_17
REMARK    6  A    between atoms: C_17  and  N_18
REMARK    7  A    between atoms: N_18  and  C_19
REMARK    8  A    between atoms: C_19  and  C_20
REMARK    9  A    between atoms: C_24  and  C_25
REMARK                            x       y       z     vdW  Elec       q    Type
REMARK                         _______ _______ _______ _____ _____    ______ ____
ROOT
ATOM      1  N   UNL     1       0.555  10.898  19.012  0.00  0.00    +0.000 N 
ATOM      2  C   UNL     1       1.682  10.879  18.229  0.00  0.00    +0.000 A 
ATOM      3  C   UNL     1       1.839   9.560  17.906  0.00  0.00    +0.000 A 
ATOM      4  C   UNL     1       1.452   8.905  19.108  0.00  0.00    +0.000 A 
ATOM      5  C   UNL     1       1.921   7.706  19.674  0.00  0.00    +0.000 A 
ATOM      6  C   UNL     1       1.496   7.403  20.968  0.00  0.00    +0.000 A 
ATOM      7  C   UNL     1       0.562   8.213  21.626  0.00  0.00    +0.000 A 
ATOM      8  C   UNL     1       0.042   9.388  21.056  0.00  0.00    +0.000 A 
ATOM      9  C   UNL     1       0.581   9.762  19.810  0.00  0.00    +0.000 A 
ENDROOT
BRANCH   1  11
ATOM     10  O   UNL     1       0.181  13.187  18.078  0.00  0.00    +0.000 OA
ATOM     11  S   UNL     1      -0.405  12.319  19.080  0.00  0.00    +0.000 S 
ATOM     12  O   UNL     1      -0.488  12.678  20.488  0.00  0.00    +0.000 OA
BRANCH  11  13
ATOM     13  C   UNL     1      -2.015  11.758  18.533  0.00  0.00    +0.000 A 
ATOM     14  C   UNL     1      -3.185  12.281  19.105  0.00  0.00    +0.000 A 
ATOM     15  C   UNL     1      -4.432  11.756  18.756  0.00  0.00    +0.000 A 
ATOM     16  C   UNL     1      -4.523  10.735  17.813  0.00  0.00    +0.000 A 
ATOM     17  C   UNL     1      -3.365  10.230  17.220  0.00  0.00    +0.000 A 
ATOM     18  C   UNL     1      -2.107  10.739  17.577  0.00  0.00    +0.000 A 
ENDBRANCH  11  13
ENDBRANCH   1  11
BRANCH   5  19
ATOM     19  O   UNL     1       2.875   7.047  18.954  0.00  0.00    +0.000 OA
BRANCH  19  20
ATOM     20  C   UNL     1       2.504   5.830  18.322  0.00  0.00    +0.000 C 
BRANCH  20  21
ATOM     21  C   UNL     1       2.575   4.670  19.335  0.00  0.00    +0.000 C 
BRANCH  21  22
ATOM     22  N   UNL     1       3.330   3.503  18.850  0.00  0.00    +0.000 NA
ATOM     23  H   UNL     1       3.357   3.493  17.832  0.00  0.00    +0.000 HD
BRANCH  22  24
ATOM     24  C   UNL     1       4.702   3.520  19.363  0.00  0.00    +0.000 C 
BRANCH  24  25
ATOM     25  C   UNL     1       5.620   4.345  18.487  0.00  0.00    +0.000 A 
ATOM     26  C   UNL     1       6.409   5.356  19.046  0.00  0.00    +0.000 A 
ATOM     27  C   UNL     1       7.226   6.153  18.244  0.00  0.00    +0.000 A 
ATOM     28  C   UNL     1       7.258   5.956  16.867  0.00  0.00    +0.000 A 
ATOM     29  C   UNL     1       6.469   4.952  16.272  0.00  0.00    +0.000 A 
ATOM     30  C   UNL     1       5.663   4.147  17.098  0.00  0.00    +0.000 A 
BRANCH  29  31
ATOM     31  C   UNL     1       6.465   4.758  14.783  0.00  0.00    +0.000 C 
ATOM     32  F   UNL     1       7.580   5.228  14.146  0.00  0.00    +0.000 F 
ATOM     33  F   UNL     1       6.376   3.428  14.440  0.00  0.00    +0.000 F 
ATOM     34  F   UNL     1       5.403   5.351  14.163  0.00  0.00    +0.000 F 
ENDBRANCH  29  31
ENDBRANCH  24  25
ENDBRANCH  22  24
ENDBRANCH  21  22
ENDBRANCH  20  21
ENDBRANCH  19  20
ENDBRANCH   5  19
TORSDOF 9
ENDMDL
