MODEL 1
REMARK VINA RESULT:      -7.2      0.000      0.000
REMARK  Name = 
REMARK  11 active torsions:
REMARK  status: ('A' for Active; 'I' for Inactive)
REMARK    1  A    between atoms: C_1  and  O_2
REMARK    2  A    between atoms: O_2  and  C_3
REMARK    3  A    between atoms: C_6  and  O_7
REMARK    4  A    between atoms: O_7  and  C_8
REMARK    5  A    between atoms: C_8  and  C_9
REMARK    6  A    between atoms: C_9  and  C_10
REMARK    7  A    between atoms: C_10  and  O_12
REMARK    8  A    between atoms: O_12  and  C_13
REMARK    9  A    between atoms: C_13  and  C_14
REMARK   10  A    between atoms: N_16  and  C_17
REMARK   11  A    between atoms: C_17  and  C_18
REMARK                            x       y       z     vdW  Elec       q    Type
REMARK                         _______ _______ _______ _____ _____    ______ ____
ROOT
ATOM      1  C   UNL     1       2.286   2.947  21.339  0.00  0.00    +0.000 C 
ATOM      2  O   UNL     1       1.568   2.288  22.068  0.00  0.00    +0.000 OA
ENDROOT
BRANCH   1   3
ATOM      3  C   UNL     1       2.582   4.424  21.522  0.00  0.00    +0.000 C 
BRANCH   3   4
ATOM      4  C   UNL     1       1.844   5.267  20.482  0.00  0.00    +0.000 C 
BRANCH   4   5
ATOM      5  O   UNL     1       2.754   6.043  19.701  0.00  0.00    +0.000 OA
BRANCH   5   9
ATOM      6  C   UNL     1       1.253   9.856  18.819  0.00  0.00    +0.000 A 
ATOM      7  C   UNL     1       1.040   9.238  20.052  0.00  0.00    +0.000 A 
ATOM      8  C   UNL     1       1.567   7.966  20.315  0.00  0.00    +0.000 A 
ATOM      9  C   UNL     1       2.278   7.278  19.333  0.00  0.00    +0.000 A 
ATOM     10  C   UNL     1       2.485   7.894  18.095  0.00  0.00    +0.000 A 
ATOM     11  C   UNL     1       1.971   9.176  17.837  0.00  0.00    +0.000 A 
BRANCH   6  13
ATOM     12  C   UNL     1      -0.707  11.187  18.853  0.00  0.00    +0.000 C 
ATOM     13  O   UNL     1       0.705  11.101  18.683  0.00  0.00    +0.000 OA
ENDBRANCH   6  13
ENDBRANCH   5   9
ENDBRANCH   4   5
ENDBRANCH   3   4
ENDBRANCH   1   3
BRANCH   1  14
ATOM     14  O   UNL     1       3.017   2.417  20.319  0.00  0.00    +0.000 OA
BRANCH  14  15
ATOM     15  C   UNL     1       2.254   2.095  19.157  0.00  0.00    +0.000 C 
BRANCH  15  16
ATOM     16  C   UNL     1       2.809   2.759  17.896  0.00  0.00    +0.000 C 
ATOM     17  O   UNL     1       2.080   3.066  16.954  0.00  0.00    +0.000 OA
ATOM     18  N   UNL     1       4.159   3.045  17.929  0.00  0.00    +0.000 N 
ATOM     19  H   UNL     1       4.686   2.894  18.787  0.00  0.00    +0.000 HD
BRANCH  18  20
ATOM     20  C   UNL     1       4.803   3.705  16.817  0.00  0.00    +0.000 C 
BRANCH  20  21
ATOM     21  C   UNL     1       5.706   4.821  17.270  0.00  0.00    +0.000 A 
ATOM     22  C   UNL     1       5.481   6.133  16.827  0.00  0.00    +0.000 A 
ATOM     23  C   UNL     1       6.350   7.171  17.197  0.00  0.00    +0.000 A 
ATOM     24  C   UNL     1       7.435   6.905  18.025  0.00  0.00    +0.000 A 
ATOM     25  C   UNL     1       7.660   5.609  18.485  0.00  0.00    +0.000 A 
ATOM     26  C   UNL     1       6.803   4.570  18.108  0.00  0.00    +0.000 A 
ENDBRANCH  20  21
ENDBRANCH  18  20
ENDBRANCH  15  16
ENDBRANCH  14  15
ENDBRANCH   1  14
TORSDOF 10
ENDMDL
MODEL 2
REMARK VINA RESULT:      -7.1      2.123      4.692
REMARK  Name = 
REMARK  11 active torsions:
REMARK  status: ('A' for Active; 'I' for Inactive)
REMARK    1  A    between atoms: C_1  and  O_2
REMARK    2  A    between atoms: O_2  and  C_3
REMARK    3  A    between atoms: C_6  and  O_7
REMARK    4  A    between atoms: O_7  and  C_8
REMARK    5  A    between atoms: C_8  and  C_9
REMARK    6  A    between atoms: C_9  and  C_10
REMARK    7  A    between atoms: C_10  and  O_12
REMARK    8  A    between atoms: O_12  and  C_13
REMARK    9  A    between atoms: C_13  and  C_14
REMARK   10  A    between atoms: N_16  and  C_17
REMARK   11  A    between atoms: C_17  and  C_18
REMARK                            x       y       z     vdW  Elec       q    Type
REMARK                         _______ _______ _______ _____ _____    ______ ____
ROOT
ATOM      1  C   UNL     1       7.048   6.750  17.339  0.00  0.00    +0.000 C 
ATOM      2  O   UNL     1       7.860   7.158  16.530  0.00  0.00    +0.000 OA
ENDROOT
BRANCH   1   3
ATOM      3  C   UNL     1       5.744   7.444  17.682  0.00  0.00    +0.000 C 
BRANCH   3   4
ATOM      4  C   UNL     1       4.617   6.995  16.751  0.00  0.00    +0.000 C 
BRANCH   4   5
ATOM      5  O   UNL     1       3.583   6.325  17.472  0.00  0.00    +0.000 OA
BRANCH   5   9
ATOM      6  C   UNL     1       1.237   8.938  19.761  0.00  0.00    +0.000 A 
ATOM      7  C   UNL     1       1.551   9.194  18.425  0.00  0.00    +0.000 A 
ATOM      8  C   UNL     1       2.329   8.291  17.689  0.00  0.00    +0.000 A 
ATOM      9  C   UNL     1       2.840   7.141  18.289  0.00  0.00    +0.000 A 
ATOM     10  C   UNL     1       2.531   6.889  19.630  0.00  0.00    +0.000 A 
ATOM     11  C   UNL     1       1.737   7.785  20.364  0.00  0.00    +0.000 A 
BRANCH   6  13
ATOM     12  C   UNL     1       0.346  11.132  19.703  0.00  0.00    +0.000 C 
ATOM     13  O   UNL     1       0.459   9.880  20.373  0.00  0.00    +0.000 OA
ENDBRANCH   6  13
ENDBRANCH   5   9
ENDBRANCH   4   5
ENDBRANCH   3   4
ENDBRANCH   1   3
BRANCH   1  14
ATOM     14  O   UNL     1       7.148   5.545  17.966  0.00  0.00    +0.000 OA
BRANCH  14  15
ATOM     15  C   UNL     1       7.308   4.436  17.083  0.00  0.00    +0.000 C 
BRANCH  15  16
ATOM     16  C   UNL     1       5.970   3.803  16.696  0.00  0.00    +0.000 C 
ATOM     17  O   UNL     1       5.738   3.435  15.546  0.00  0.00    +0.000 OA
ATOM     18  N   UNL     1       5.086   3.615  17.741  0.00  0.00    +0.000 N 
ATOM     19  H   UNL     1       5.383   3.813  18.694  0.00  0.00    +0.000 HD
BRANCH  18  20
ATOM     20  C   UNL     1       3.801   2.993  17.519  0.00  0.00    +0.000 C 
BRANCH  20  21
ATOM     21  C   UNL     1       2.938   3.032  18.751  0.00  0.00    +0.000 A 
ATOM     22  C   UNL     1       1.588   3.403  18.653  0.00  0.00    +0.000 A 
ATOM     23  C   UNL     1       0.788   3.498  19.802  0.00  0.00    +0.000 A 
ATOM     24  C   UNL     1       1.328   3.204  21.049  0.00  0.00    +0.000 A 
ATOM     25  C   UNL     1       2.662   2.817  21.158  0.00  0.00    +0.000 A 
ATOM     26  C   UNL     1       3.465   2.734  20.016  0.00  0.00    +0.000 A 
ENDBRANCH  20  21
ENDBRANCH  18  20
ENDBRANCH  15  16
ENDBRANCH  14  15
ENDBRANCH   1  14
TORSDOF 10
ENDMDL
MODEL 3
REMARK VINA RESULT:      -6.9      2.194      5.542
REMARK  Name = 
REMARK  11 active torsions:
REMARK  status: ('A' for Active; 'I' for Inactive)
REMARK    1  A    between atoms: C_1  and  O_2
REMARK    2  A    between atoms: O_2  and  C_3
REMARK    3  A    between atoms: C_6  and  O_7
REMARK    4  A    between atoms: O_7  and  C_8
REMARK    5  A    between atoms: C_8  and  C_9
REMARK    6  A    between atoms: C_9  and  C_10
REMARK    7  A    between atoms: C_10  and  O_12
REMARK    8  A    between atoms: O_12  and  C_13
REMARK    9  A    between atoms: C_13  and  C_14
REMARK   10  A    between atoms: N_16  and  C_17
REMARK   11  A    between atoms: C_17  and  C_18
REMARK                            x       y       z     vdW  Elec       q    Type
REMARK                         _______ _______ _______ _____ _____    ______ ____
ROOT
ATOM      1  C   UNL     1       1.335   2.298  18.638  0.00  0.00    +0.000 C 
ATOM      2  O   UNL     1       0.503   2.974  18.063  0.00  0.00    +0.000 OA
ENDROOT
BRANCH   1   3
ATOM      3  C   UNL     1       2.585   1.728  17.993  0.00  0.00    +0.000 C 
BRANCH   3   4
ATOM      4  C   UNL     1       3.723   2.749  17.998  0.00  0.00    +0.000 C 
BRANCH   4   5
ATOM      5  O   UNL     1       3.734   3.520  16.796  0.00  0.00    +0.000 OA
BRANCH   5   9
ATOM      6  C   UNL     1       6.931   6.225  16.603  0.00  0.00    +0.000 A 
ATOM      7  C   UNL     1       5.756   6.508  17.301  0.00  0.00    +0.000 A 
ATOM      8  C   UNL     1       4.713   5.574  17.353  0.00  0.00    +0.000 A 
ATOM      9  C   UNL     1       4.813   4.362  16.671  0.00  0.00    +0.000 A 
ATOM     10  C   UNL     1       5.987   4.082  15.966  0.00  0.00    +0.000 A 
ATOM     11  C   UNL     1       7.040   5.011  15.928  0.00  0.00    +0.000 A 
BRANCH   6  13
ATOM     12  C   UNL     1       7.831   8.095  17.747  0.00  0.00    +0.000 C 
ATOM     13  O   UNL     1       7.885   7.204  16.636  0.00  0.00    +0.000 OA
ENDBRANCH   6  13
ENDBRANCH   5   9
ENDBRANCH   4   5
ENDBRANCH   3   4
ENDBRANCH   1   3
BRANCH   1  14
ATOM     14  O   UNL     1       1.315   2.056  19.979  0.00  0.00    +0.000 OA
BRANCH  14  15
ATOM     15  C   UNL     1       0.833   3.146  20.764  0.00  0.00    +0.000 C 
BRANCH  15  16
ATOM     16  C   UNL     1       1.871   4.259  20.912  0.00  0.00    +0.000 C 
ATOM     17  O   UNL     1       2.781   4.188  21.736  0.00  0.00    +0.000 OA
ATOM     18  N   UNL     1       1.748   5.299  20.011  0.00  0.00    +0.000 N 
ATOM     19  H   UNL     1       1.061   5.240  19.263  0.00  0.00    +0.000 HD
BRANCH  18  20
ATOM     20  C   UNL     1       2.687   6.398  20.018  0.00  0.00    +0.000 C 
BRANCH  20  21
ATOM     21  C   UNL     1       2.053   7.682  19.555  0.00  0.00    +0.000 A 
ATOM     22  C   UNL     1       2.278   8.147  18.251  0.00  0.00    +0.000 A 
ATOM     23  C   UNL     1       1.739   9.371  17.826  0.00  0.00    +0.000 A 
ATOM     24  C   UNL     1       0.959  10.125  18.696  0.00  0.00    +0.000 A 
ATOM     25  C   UNL     1       0.714   9.665  19.988  0.00  0.00    +0.000 A 
ATOM     26  C   UNL     1       1.260   8.452  20.419  0.00  0.00    +0.000 A 
ENDBRANCH  20  21
ENDBRANCH  18  20
ENDBRANCH  15  16
ENDBRANCH  14  15
ENDBRANCH   1  14
TORSDOF 10
ENDMDL
MODEL 4
REMARK VINA RESULT:      -6.8      1.099      1.284
REMARK  Name = 
REMARK  11 active torsions:
REMARK  status: ('A' for Active; 'I' for Inactive)
REMARK    1  A    between atoms: C_1  and  O_2
REMARK    2  A    between atoms: O_2  and  C_3
REMARK    3  A    between atoms: C_6  and  O_7
REMARK    4  A    between atoms: O_7  and  C_8
REMARK    5  A    between atoms: C_8  and  C_9
REMARK    6  A    between atoms: C_9  and  C_10
REMARK    7  A    between atoms: C_10  and  O_12
REMARK    8  A    between atoms: O_12  and  C_13
REMARK    9  A    between atoms: C_13  and  C_14
REMARK   10  A    between atoms: N_16  and  C_17
REMARK   11  A    between atoms: C_17  and  C_18
REMARK                            x       y       z     vdW  Elec       q    Type
REMARK                         _______ _______ _______ _____ _____    ______ ____
ROOT
ATOM      1  C   UNL     1       1.301   3.217  19.527  0.00  0.00    +0.000 C 
ATOM      2  O   UNL     1       0.268   2.663  19.853  0.00  0.00    +0.000 OA
ENDROOT
BRANCH   1   3
ATOM      3  C   UNL     1       2.251   3.910  20.485  0.00  0.00    +0.000 C 
BRANCH   3   4
ATOM      4  C   UNL     1       1.902   5.391  20.634  0.00  0.00    +0.000 C 
BRANCH   4   5
ATOM      5  O   UNL     1       2.759   6.210  19.837  0.00  0.00    +0.000 OA
BRANCH   5   9
ATOM      6  C   UNL     1       1.039   9.922  18.928  0.00  0.00    +0.000 A 
ATOM      7  C   UNL     1       0.894   9.320  20.179  0.00  0.00    +0.000 A 
ATOM      8  C   UNL     1       1.493   8.083  20.450  0.00  0.00    +0.000 A 
ATOM      9  C   UNL     1       2.209   7.411  19.460  0.00  0.00    +0.000 A 
ATOM     10  C   UNL     1       2.348   8.011  18.205  0.00  0.00    +0.000 A 
ATOM     11  C   UNL     1       1.761   9.259  17.938  0.00  0.00    +0.000 A 
BRANCH   6  13
ATOM     12  C   UNL     1      -0.923  11.213  19.243  0.00  0.00    +0.000 C 
ATOM     13  O   UNL     1       0.424  11.135  18.785  0.00  0.00    +0.000 OA
ENDBRANCH   6  13
ENDBRANCH   5   9
ENDBRANCH   4   5
ENDBRANCH   3   4
ENDBRANCH   1   3
BRANCH   1  14
ATOM     14  O   UNL     1       1.806   3.191  18.262  0.00  0.00    +0.000 OA
BRANCH  14  15
ATOM     15  C   UNL     1       3.171   2.785  18.184  0.00  0.00    +0.000 C 
BRANCH  15  16
ATOM     16  C   UNL     1       4.016   3.745  17.345  0.00  0.00    +0.000 C 
ATOM     17  O   UNL     1       3.626   4.880  17.074  0.00  0.00    +0.000 OA
ATOM     18  N   UNL     1       5.260   3.268  16.983  0.00  0.00    +0.000 N 
ATOM     19  H   UNL     1       5.585   2.375  17.349  0.00  0.00    +0.000 HD
BRANCH  18  20
ATOM     20  C   UNL     1       6.173   4.089  16.220  0.00  0.00    +0.000 C 
BRANCH  20  21
ATOM     21  C   UNL     1       6.817   5.152  17.068  0.00  0.00    +0.000 A 
ATOM     22  C   UNL     1       6.807   6.490  16.647  0.00  0.00    +0.000 A 
ATOM     23  C   UNL     1       7.454   7.482  17.400  0.00  0.00    +0.000 A 
ATOM     24  C   UNL     1       8.095   7.143  18.586  0.00  0.00    +0.000 A 
ATOM     25  C   UNL     1       8.097   5.821  19.025  0.00  0.00    +0.000 A 
ATOM     26  C   UNL     1       7.465   4.828  18.270  0.00  0.00    +0.000 A 
ENDBRANCH  20  21
ENDBRANCH  18  20
ENDBRANCH  15  16
ENDBRANCH  14  15
ENDBRANCH   1  14
TORSDOF 10
ENDMDL
MODEL 5
REMARK VINA RESULT:      -6.8      1.995      4.642
REMARK  Name = 
REMARK  11 active torsions:
REMARK  status: ('A' for Active; 'I' for Inactive)
REMARK    1  A    between atoms: C_1  and  O_2
REMARK    2  A    between atoms: O_2  and  C_3
REMARK    3  A    between atoms: C_6  and  O_7
REMARK    4  A    between atoms: O_7  and  C_8
REMARK    5  A    between atoms: C_8  and  C_9
REMARK    6  A    between atoms: C_9  and  C_10
REMARK    7  A    between atoms: C_10  and  O_12
REMARK    8  A    between atoms: O_12  and  C_13
REMARK    9  A    between atoms: C_13  and  C_14
REMARK   10  A    between atoms: N_16  and  C_17
REMARK   11  A    between atoms: C_17  and  C_18
REMARK                            x       y       z     vdW  Elec       q    Type
REMARK                         _______ _______ _______ _____ _____    ______ ____
ROOT
ATOM      1  C   UNL     1       5.601   6.553  16.407  0.00  0.00    +0.000 C 
ATOM      2  O   UNL     1       5.420   6.150  15.273  0.00  0.00    +0.000 OA
ENDROOT
BRANCH   1   3
ATOM      3  C   UNL     1       4.542   7.207  17.274  0.00  0.00    +0.000 C 
BRANCH   3   4
ATOM      4  C   UNL     1       3.445   6.212  17.650  0.00  0.00    +0.000 C 
BRANCH   4   5
ATOM      5  O   UNL     1       2.962   6.447  18.973  0.00  0.00    +0.000 OA
BRANCH   5   9
ATOM      6  C   UNL     1       0.640   9.877  19.620  0.00  0.00    +0.000 A 
ATOM      7  C   UNL     1       0.975   8.997  20.651  0.00  0.00    +0.000 A 
ATOM      8  C   UNL     1       1.762   7.867  20.399  0.00  0.00    +0.000 A 
ATOM      9  C   UNL     1       2.190   7.576  19.104  0.00  0.00    +0.000 A 
ATOM     10  C   UNL     1       1.848   8.453  18.070  0.00  0.00    +0.000 A 
ATOM     11  C   UNL     1       1.072   9.596  18.325  0.00  0.00    +0.000 A 
BRANCH   6  13
ATOM     12  C   UNL     1       0.015  12.120  19.181  0.00  0.00    +0.000 C 
ATOM     13  O   UNL     1      -0.119  10.953  19.988  0.00  0.00    +0.000 OA
ENDBRANCH   6  13
ENDBRANCH   5   9
ENDBRANCH   4   5
ENDBRANCH   3   4
ENDBRANCH   1   3
BRANCH   1  14
ATOM     14  O   UNL     1       6.760   6.364  17.098  0.00  0.00    +0.000 OA
BRANCH  14  15
ATOM     15  C   UNL     1       7.022   5.004  17.442  0.00  0.00    +0.000 C 
BRANCH  15  16
ATOM     16  C   UNL     1       6.406   4.615  18.787  0.00  0.00    +0.000 C 
ATOM     17  O   UNL     1       6.625   5.264  19.809  0.00  0.00    +0.000 OA
ATOM     18  N   UNL     1       5.543   3.539  18.748  0.00  0.00    +0.000 N 
ATOM     19  H   UNL     1       5.293   3.125  17.852  0.00  0.00    +0.000 HD
BRANCH  18  20
ATOM     20  C   UNL     1       4.864   3.091  19.943  0.00  0.00    +0.000 C 
BRANCH  20  21
ATOM     21  C   UNL     1       3.372   3.036  19.756  0.00  0.00    +0.000 A 
ATOM     22  C   UNL     1       2.829   2.458  18.599  0.00  0.00    +0.000 A 
ATOM     23  C   UNL     1       1.442   2.452  18.387  0.00  0.00    +0.000 A 
ATOM     24  C   UNL     1       0.592   3.006  19.338  0.00  0.00    +0.000 A 
ATOM     25  C   UNL     1       1.118   3.568  20.500  0.00  0.00    +0.000 A 
ATOM     26  C   UNL     1       2.501   3.586  20.708  0.00  0.00    +0.000 A 
ENDBRANCH  20  21
ENDBRANCH  18  20
ENDBRANCH  15  16
ENDBRANCH  14  15
ENDBRANCH   1  14
TORSDOF 10
ENDMDL
MODEL 6
REMARK VINA RESULT:      -6.8      0.698      1.194
REMARK  Name = 
REMARK  11 active torsions:
REMARK  status: ('A' for Active; 'I' for Inactive)
REMARK    1  A    between atoms: C_1  and  O_2
REMARK    2  A    between atoms: O_2  and  C_3
REMARK    3  A    between atoms: C_6  and  O_7
REMARK    4  A    between atoms: O_7  and  C_8
REMARK    5  A    between atoms: C_8  and  C_9
REMARK    6  A    between atoms: C_9  and  C_10
REMARK    7  A    between atoms: C_10  and  O_12
REMARK    8  A    between atoms: O_12  and  C_13
REMARK    9  A    between atoms: C_13  and  C_14
REMARK   10  A    between atoms: N_16  and  C_17
REMARK   11  A    between atoms: C_17  and  C_18
REMARK                            x       y       z     vdW  Elec       q    Type
REMARK                         _______ _______ _______ _____ _____    ______ ____
ROOT
ATOM      1  C   UNL     1       1.751   3.040  21.141  0.00  0.00    +0.000 C 
ATOM      2  O   UNL     1       1.452   2.478  22.178  0.00  0.00    +0.000 OA
ENDROOT
BRANCH   1   3
ATOM      3  C   UNL     1       1.045   4.261  20.584  0.00  0.00    +0.000 C 
BRANCH   3   4
ATOM      4  C   UNL     1       1.942   5.019  19.605  0.00  0.00    +0.000 C 
BRANCH   4   5
ATOM      5  O   UNL     1       2.607   6.108  20.246  0.00  0.00    +0.000 OA
BRANCH   5   9
ATOM      6  C   UNL     1       1.092   9.836  19.070  0.00  0.00    +0.000 A 
ATOM      7  C   UNL     1       1.859   9.040  18.218  0.00  0.00    +0.000 A 
ATOM      8  C   UNL     1       2.338   7.794  18.643  0.00  0.00    +0.000 A 
ATOM      9  C   UNL     1       2.095   7.346  19.940  0.00  0.00    +0.000 A 
ATOM     10  C   UNL     1       1.334   8.147  20.797  0.00  0.00    +0.000 A 
ATOM     11  C   UNL     1       0.838   9.389  20.366  0.00  0.00    +0.000 A 
BRANCH   6  13
ATOM     12  C   UNL     1       1.311  12.195  19.032  0.00  0.00    +0.000 C 
ATOM     13  O   UNL     1       0.666  11.023  18.542  0.00  0.00    +0.000 OA
ENDBRANCH   6  13
ENDBRANCH   5   9
ENDBRANCH   4   5
ENDBRANCH   3   4
ENDBRANCH   1   3
BRANCH   1  14
ATOM     14  O   UNL     1       2.842   2.714  20.393  0.00  0.00    +0.000 OA
BRANCH  14  15
ATOM     15  C   UNL     1       2.559   1.864  19.283  0.00  0.00    +0.000 C 
BRANCH  15  16
ATOM     16  C   UNL     1       3.029   2.464  17.957  0.00  0.00    +0.000 C 
ATOM     17  O   UNL     1       2.295   2.508  16.971  0.00  0.00    +0.000 OA
ATOM     18  N   UNL     1       4.298   3.009  17.977  0.00  0.00    +0.000 N 
ATOM     19  H   UNL     1       4.808   3.068  18.857  0.00  0.00    +0.000 HD
BRANCH  18  20
ATOM     20  C   UNL     1       4.850   3.641  16.801  0.00  0.00    +0.000 C 
BRANCH  20  21
ATOM     21  C   UNL     1       5.721   4.818  17.151  0.00  0.00    +0.000 A 
ATOM     22  C   UNL     1       5.357   6.109  16.740  0.00  0.00    +0.000 A 
ATOM     23  C   UNL     1       6.190   7.206  17.010  0.00  0.00    +0.000 A 
ATOM     24  C   UNL     1       7.377   7.020  17.708  0.00  0.00    +0.000 A 
ATOM     25  C   UNL     1       7.741   5.745  18.137  0.00  0.00    +0.000 A 
ATOM     26  C   UNL     1       6.920   4.648  17.858  0.00  0.00    +0.000 A 
ENDBRANCH  20  21
ENDBRANCH  18  20
ENDBRANCH  15  16
ENDBRANCH  14  15
ENDBRANCH   1  14
TORSDOF 10
ENDMDL
MODEL 7
REMARK VINA RESULT:      -6.8      2.236      5.038
REMARK  Name = 
REMARK  11 active torsions:
REMARK  status: ('A' for Active; 'I' for Inactive)
REMARK    1  A    between atoms: C_1  and  O_2
REMARK    2  A    between atoms: O_2  and  C_3
REMARK    3  A    between atoms: C_6  and  O_7
REMARK    4  A    between atoms: O_7  and  C_8
REMARK    5  A    between atoms: C_8  and  C_9
REMARK    6  A    between atoms: C_9  and  C_10
REMARK    7  A    between atoms: C_10  and  O_12
REMARK    8  A    between atoms: O_12  and  C_13
REMARK    9  A    between atoms: C_13  and  C_14
REMARK   10  A    between atoms: N_16  and  C_17
REMARK   11  A    between atoms: C_17  and  C_18
REMARK                            x       y       z     vdW  Elec       q    Type
REMARK                         _______ _______ _______ _____ _____    ______ ____
ROOT
ATOM      1  C   UNL     1       7.018   6.786  17.153  0.00  0.00    +0.000 C 
ATOM      2  O   UNL     1       7.702   7.782  17.002  0.00  0.00    +0.000 OA
ENDROOT
BRANCH   1   3
ATOM      3  C   UNL     1       5.683   6.541  16.476  0.00  0.00    +0.000 C 
BRANCH   3   4
ATOM      4  C   UNL     1       4.583   7.403  17.097  0.00  0.00    +0.000 C 
BRANCH   4   5
ATOM      5  O   UNL     1       3.482   6.605  17.532  0.00  0.00    +0.000 OA
BRANCH   5   9
ATOM      6  C   UNL     1       1.143   8.263  20.590  0.00  0.00    +0.000 A 
ATOM      7  C   UNL     1       1.751   7.012  20.711  0.00  0.00    +0.000 A 
ATOM      8  C   UNL     1       2.535   6.495  19.671  0.00  0.00    +0.000 A 
ATOM      9  C   UNL     1       2.687   7.202  18.480  0.00  0.00    +0.000 A 
ATOM     10  C   UNL     1       2.071   8.452  18.356  0.00  0.00    +0.000 A 
ATOM     11  C   UNL     1       1.299   8.978  19.405  0.00  0.00    +0.000 A 
BRANCH   6  13
ATOM     12  C   UNL     1       0.653  10.001  22.124  0.00  0.00    +0.000 C 
ATOM     13  O   UNL     1       0.416   8.670  21.674  0.00  0.00    +0.000 OA
ENDBRANCH   6  13
ENDBRANCH   5   9
ENDBRANCH   4   5
ENDBRANCH   3   4
ENDBRANCH   1   3
BRANCH   1  14
ATOM     14  O   UNL     1       7.418   5.698  17.869  0.00  0.00    +0.000 OA
BRANCH  14  15
ATOM     15  C   UNL     1       6.580   4.554  17.713  0.00  0.00    +0.000 C 
BRANCH  15  16
ATOM     16  C   UNL     1       5.865   4.177  19.012  0.00  0.00    +0.000 C 
ATOM     17  O   UNL     1       5.728   4.983  19.931  0.00  0.00    +0.000 OA
ATOM     18  N   UNL     1       5.332   2.903  19.040  0.00  0.00    +0.000 N 
ATOM     19  H   UNL     1       5.357   2.328  18.200  0.00  0.00    +0.000 HD
BRANCH  18  20
ATOM     20  C   UNL     1       4.599   2.433  20.193  0.00  0.00    +0.000 C 
BRANCH  20  21
ATOM     21  C   UNL     1       3.114   2.611  20.027  0.00  0.00    +0.000 A 
ATOM     22  C   UNL     1       2.505   2.325  18.796  0.00  0.00    +0.000 A 
ATOM     23  C   UNL     1       1.131   2.541  18.612  0.00  0.00    +0.000 A 
ATOM     24  C   UNL     1       0.358   3.024  19.661  0.00  0.00    +0.000 A 
ATOM     25  C   UNL     1       0.948   3.295  20.895  0.00  0.00    +0.000 A 
ATOM     26  C   UNL     1       2.319   3.093  21.077  0.00  0.00    +0.000 A 
ENDBRANCH  20  21
ENDBRANCH  18  20
ENDBRANCH  15  16
ENDBRANCH  14  15
ENDBRANCH   1  14
TORSDOF 10
ENDMDL
MODEL 8
REMARK VINA RESULT:      -6.8      2.362      4.799
REMARK  Name = 
REMARK  11 active torsions:
REMARK  status: ('A' for Active; 'I' for Inactive)
REMARK    1  A    between atoms: C_1  and  O_2
REMARK    2  A    between atoms: O_2  and  C_3
REMARK    3  A    between atoms: C_6  and  O_7
REMARK    4  A    between atoms: O_7  and  C_8
REMARK    5  A    between atoms: C_8  and  C_9
REMARK    6  A    between atoms: C_9  and  C_10
REMARK    7  A    between atoms: C_10  and  O_12
REMARK    8  A    between atoms: O_12  and  C_13
REMARK    9  A    between atoms: C_13  and  C_14
REMARK   10  A    between atoms: N_16  and  C_17
REMARK   11  A    between atoms: C_17  and  C_18
REMARK                            x       y       z     vdW  Elec       q    Type
REMARK                         _______ _______ _______ _____ _____    ______ ____
ROOT
ATOM      1  C   UNL     1       5.707   6.304  16.667  0.00  0.00    +0.000 C 
ATOM      2  O   UNL     1       6.263   7.386  16.678  0.00  0.00    +0.000 OA
ENDROOT
BRANCH   1   3
ATOM      3  C   UNL     1       4.208   6.099  16.768  0.00  0.00    +0.000 C 
BRANCH   3   4
ATOM      4  C   UNL     1       3.646   6.748  18.033  0.00  0.00    +0.000 C 
BRANCH   4   5
ATOM      5  O   UNL     1       2.914   7.935  17.727  0.00  0.00    +0.000 OA
BRANCH   5   9
ATOM      6  C   UNL     1       0.259   9.385  20.629  0.00  0.00    +0.000 A 
ATOM      7  C   UNL     1       0.355   9.952  19.356  0.00  0.00    +0.000 A 
ATOM      8  C   UNL     1       1.247   9.432  18.409  0.00  0.00    +0.000 A 
ATOM      9  C   UNL     1       2.085   8.367  18.734  0.00  0.00    +0.000 A 
ATOM     10  C   UNL     1       1.995   7.805  20.011  0.00  0.00    +0.000 A 
ATOM     11  C   UNL     1       1.089   8.315  20.957  0.00  0.00    +0.000 A 
BRANCH   6  13
ATOM     12  C   UNL     1      -0.271  11.204  22.052  0.00  0.00    +0.000 C 
ATOM     13  O   UNL     1      -0.656   9.965  21.463  0.00  0.00    +0.000 OA
ENDBRANCH   6  13
ENDBRANCH   5   9
ENDBRANCH   4   5
ENDBRANCH   3   4
ENDBRANCH   1   3
BRANCH   1  14
ATOM     14  O   UNL     1       6.355   5.126  16.445  0.00  0.00    +0.000 OA
BRANCH  14  15
ATOM     15  C   UNL     1       7.270   4.757  17.476  0.00  0.00    +0.000 C 
BRANCH  15  16
ATOM     16  C   UNL     1       6.571   4.513  18.814  0.00  0.00    +0.000 C 
ATOM     17  O   UNL     1       6.830   5.187  19.810  0.00  0.00    +0.000 OA
ATOM     18  N   UNL     1       5.591   3.541  18.796  0.00  0.00    +0.000 N 
ATOM     19  H   UNL     1       5.324   3.111  17.912  0.00  0.00    +0.000 HD
BRANCH  18  20
ATOM     20  C   UNL     1       4.828   3.237  19.984  0.00  0.00    +0.000 C 
BRANCH  20  21
ATOM     21  C   UNL     1       3.348   3.200  19.710  0.00  0.00    +0.000 A 
ATOM     22  C   UNL     1       2.486   4.084  20.375  0.00  0.00    +0.000 A 
ATOM     23  C   UNL     1       1.100   4.021  20.170  0.00  0.00    +0.000 A 
ATOM     24  C   UNL     1       0.572   3.087  19.286  0.00  0.00    +0.000 A 
ATOM     25  C   UNL     1       1.419   2.215  18.605  0.00  0.00    +0.000 A 
ATOM     26  C   UNL     1       2.800   2.267  18.817  0.00  0.00    +0.000 A 
ENDBRANCH  20  21
ENDBRANCH  18  20
ENDBRANCH  15  16
ENDBRANCH  14  15
ENDBRANCH   1  14
TORSDOF 10
ENDMDL
MODEL 9
REMARK VINA RESULT:      -6.7      4.605      7.411
REMARK  Name = 
REMARK  11 active torsions:
REMARK  status: ('A' for Active; 'I' for Inactive)
REMARK    1  A    between atoms: C_1  and  O_2
REMARK    2  A    between atoms: O_2  and  C_3
REMARK    3  A    between atoms: C_6  and  O_7
REMARK    4  A    between atoms: O_7  and  C_8
REMARK    5  A    between atoms: C_8  and  C_9
REMARK    6  A    between atoms: C_9  and  C_10
REMARK    7  A    between atoms: C_10  and  O_12
REMARK    8  A    between atoms: O_12  and  C_13
REMARK    9  A    between atoms: C_13  and  C_14
REMARK   10  A    between atoms: N_16  and  C_17
REMARK   11  A    between atoms: C_17  and  C_18
REMARK                            x       y       z     vdW  Elec       q    Type
REMARK                         _______ _______ _______ _____ _____    ______ ____
ROOT
ATOM      1  C   UNL     1       6.986   6.714  17.438  0.00  0.00    +0.000 C 
ATOM      2  O   UNL     1       6.504   7.269  16.468  0.00  0.00    +0.000 OA
ENDROOT
BRANCH   1   3
ATOM      3  C   UNL     1       8.018   7.330  18.364  0.00  0.00    +0.000 C 
BRANCH   3   4
ATOM      4  C   UNL     1       8.201   8.820  18.073  0.00  0.00    +0.000 C 
BRANCH   4   5
ATOM      5  O   UNL     1       8.981   9.454  19.087  0.00  0.00    +0.000 OA
BRANCH   5   9
ATOM      6  C   UNL     1      10.295  13.363  18.334  0.00  0.00    +0.000 A 
ATOM      7  C   UNL     1      10.897  12.546  19.292  0.00  0.00    +0.000 A 
ATOM      8  C   UNL     1      10.436  11.240  19.508  0.00  0.00    +0.000 A 
ATOM      9  C   UNL     1       9.341  10.749  18.800  0.00  0.00    +0.000 A 
ATOM     10  C   UNL     1       8.734  11.570  17.845  0.00  0.00    +0.000 A 
ATOM     11  C   UNL     1       9.205  12.873  17.616  0.00  0.00    +0.000 A 
BRANCH   6  13
ATOM     12  C   UNL     1      11.870  14.743  17.225  0.00  0.00    +0.000 C 
ATOM     13  O   UNL     1      10.839  14.610  18.200  0.00  0.00    +0.000 OA
ENDBRANCH   6  13
ENDBRANCH   5   9
ENDBRANCH   4   5
ENDBRANCH   3   4
ENDBRANCH   1   3
BRANCH   1  14
ATOM     14  O   UNL     1       6.576   5.497  17.892  0.00  0.00    +0.000 OA
BRANCH  14  15
ATOM     15  C   UNL     1       5.938   4.688  16.905  0.00  0.00    +0.000 C 
BRANCH  15  16
ATOM     16  C   UNL     1       4.417   4.661  17.071  0.00  0.00    +0.000 C 
ATOM     17  O   UNL     1       3.730   3.766  16.582  0.00  0.00    +0.000 OA
ATOM     18  N   UNL     1       3.896   5.666  17.862  0.00  0.00    +0.000 N 
ATOM     19  H   UNL     1       4.524   6.299  18.352  0.00  0.00    +0.000 HD
BRANCH  18  20
ATOM     20  C   UNL     1       2.477   5.734  18.130  0.00  0.00    +0.000 C 
BRANCH  20  21
ATOM     21  C   UNL     1       2.055   4.745  19.182  0.00  0.00    +0.000 A 
ATOM     22  C   UNL     1       2.534   4.865  20.495  0.00  0.00    +0.000 A 
ATOM     23  C   UNL     1       2.193   3.916  21.470  0.00  0.00    +0.000 A 
ATOM     24  C   UNL     1       1.358   2.854  21.142  0.00  0.00    +0.000 A 
ATOM     25  C   UNL     1       0.861   2.733  19.846  0.00  0.00    +0.000 A 
ATOM     26  C   UNL     1       1.210   3.670  18.869  0.00  0.00    +0.000 A 
ENDBRANCH  20  21
ENDBRANCH  18  20
ENDBRANCH  15  16
ENDBRANCH  14  15
ENDBRANCH   1  14
TORSDOF 10
ENDMDL
