MODEL 1
REMARK VINA RESULT:      -6.9      0.000      0.000
REMARK  Name = 
REMARK  2 active torsions:
REMARK  status: ('A' for Active; 'I' for Inactive)
REMARK    1  A    between atoms: C_1  and  C_2
REMARK    2  A    between atoms: C_2  and  C_3
REMARK                            x       y       z     vdW  Elec       q    Type
REMARK                         _______ _______ _______ _____ _____    ______ ____
ROOT
ATOM      1  C   UNL     1       6.705   3.633  12.807  0.00  0.00    +0.000 C 
ATOM      2  C   UNL     1       6.602   4.645  13.993  0.00  0.00    +0.000 C 
ATOM      3  C   UNL     1       7.788   5.648  13.730  0.00  0.00    +0.000 C 
ATOM      4  C   UNL     1       5.281   5.434  13.836  0.00  0.00    +0.000 C 
ATOM      5  C   UNL     1       5.191   6.683  14.694  0.00  0.00    +0.000 C 
ATOM      6  C   UNL     1       5.343   6.474  16.181  0.00  0.00    +0.000 C 
ATOM      7  O   UNL     1       4.423   6.693  16.961  0.00  0.00    +0.000 OA
ATOM      8  N   UNL     1       6.657   6.197  16.580  0.00  0.00    +0.000 N 
ATOM      9  C   UNL     1       7.053   6.773  17.849  0.00  0.00    +0.000 C 
ATOM     10  C   UNL     1       7.206   5.620  18.835  0.00  0.00    +0.000 C 
ATOM     11  C   UNL     1       6.827   4.341  18.049  0.00  0.00    +0.000 C 
ATOM     12  C   UNL     1       5.395   3.939  18.282  0.00  0.00    +0.000 A 
ATOM     13  C   UNL     1       4.808   4.068  19.549  0.00  0.00    +0.000 A 
ATOM     14  C   UNL     1       3.435   3.937  19.730  0.00  0.00    +0.000 A 
ATOM     15  C   UNL     1       2.852   4.256  20.964  0.00  0.00    +0.000 A 
ATOM     16  C   UNL     1       1.476   4.199  21.147  0.00  0.00    +0.000 A 
ATOM     17  C   UNL     1       0.693   3.787  20.067  0.00  0.00    +0.000 A 
ATOM     18  C   UNL     1       1.294   3.472  18.836  0.00  0.00    +0.000 A 
ATOM     19  C   UNL     1       2.677   3.541  18.610  0.00  0.00    +0.000 A 
ATOM     20  N   UNL     1       3.272   3.249  17.404  0.00  0.00    +0.000 NA
ATOM     21  C   UNL     1       4.612   3.476  17.232  0.00  0.00    +0.000 A 
ATOM     22  C   UNL     1       5.298   3.104  15.901  0.00  0.00    +0.000 C 
ATOM     23  C   UNL     1       6.599   3.905  15.444  0.00  0.00    +0.000 C 
ATOM     24  C   UNL     1       7.104   4.802  16.591  0.00  0.00    +0.000 C 
ENDROOT
TORSDOF 0
ENDMDL
MODEL 2
REMARK VINA RESULT:      -6.8      9.173     10.715
REMARK  Name = 
REMARK  2 active torsions:
REMARK  status: ('A' for Active; 'I' for Inactive)
REMARK    1  A    between atoms: C_1  and  C_2
REMARK    2  A    between atoms: C_2  and  C_3
REMARK                            x       y       z     vdW  Elec       q    Type
REMARK                         _______ _______ _______ _____ _____    ______ ____
ROOT
ATOM      1  C   UNL     1      11.566  11.558  17.617  0.00  0.00    +0.000 C 
ATOM      2  C   UNL     1      10.697  12.769  18.086  0.00  0.00    +0.000 C 
ATOM      3  C   UNL     1      11.037  13.897  17.040  0.00  0.00    +0.000 C 
ATOM      4  C   UNL     1       9.210  12.392  17.899  0.00  0.00    +0.000 C 
ATOM      5  C   UNL     1       8.251  13.568  17.976  0.00  0.00    +0.000 C 
ATOM      6  C   UNL     1       8.291  14.368  19.256  0.00  0.00    +0.000 C 
ATOM      7  O   UNL     1       7.333  14.410  20.020  0.00  0.00    +0.000 OA
ATOM      8  N   UNL     1       9.425  15.181  19.376  0.00  0.00    +0.000 N 
ATOM      9  C   UNL     1       9.201  16.466  20.007  0.00  0.00    +0.000 C 
ATOM     10  C   UNL     1       9.892  16.423  21.366  0.00  0.00    +0.000 C 
ATOM     11  C   UNL     1      10.495  15.002  21.487  0.00  0.00    +0.000 C 
ATOM     12  C   UNL     1       9.600  14.073  22.263  0.00  0.00    +0.000 A 
ATOM     13  C   UNL     1       8.888  14.528  23.382  0.00  0.00    +0.000 A 
ATOM     14  C   UNL     1       7.879  13.764  23.960  0.00  0.00    +0.000 A 
ATOM     15  C   UNL     1       7.059  14.315  24.955  0.00  0.00    +0.000 A 
ATOM     16  C   UNL     1       6.001  13.596  25.497  0.00  0.00    +0.000 A 
ATOM     17  C   UNL     1       5.798  12.293  25.036  0.00  0.00    +0.000 A 
ATOM     18  C   UNL     1       6.629  11.756  24.038  0.00  0.00    +0.000 A 
ATOM     19  C   UNL     1       7.690  12.463  23.454  0.00  0.00    +0.000 A 
ATOM     20  N   UNL     1       8.499  11.951  22.465  0.00  0.00    +0.000 NA
ATOM     21  C   UNL     1       9.423  12.758  21.854  0.00  0.00    +0.000 A 
ATOM     22  C   UNL     1      10.370  12.179  20.781  0.00  0.00    +0.000 C 
ATOM     23  C   UNL     1      10.949  13.144  19.651  0.00  0.00    +0.000 C 
ATOM     24  C   UNL     1      10.629  14.613  19.989  0.00  0.00    +0.000 C 
ENDROOT
TORSDOF 0
ENDMDL
MODEL 3
REMARK VINA RESULT:      -6.4      9.217     12.140
REMARK  Name = 
REMARK  2 active torsions:
REMARK  status: ('A' for Active; 'I' for Inactive)
REMARK    1  A    between atoms: C_1  and  C_2
REMARK    2  A    between atoms: C_2  and  C_3
REMARK                            x       y       z     vdW  Elec       q    Type
REMARK                         _______ _______ _______ _____ _____    ______ ____
ROOT
ATOM      1  C   UNL     1       2.429  15.523  18.781  0.00  0.00    +0.000 C 
ATOM      2  C   UNL     1       3.749  15.844  19.551  0.00  0.00    +0.000 C 
ATOM      3  C   UNL     1       3.342  17.027  20.510  0.00  0.00    +0.000 C 
ATOM      4  C   UNL     1       4.097  14.626  20.436  0.00  0.00    +0.000 C 
ATOM      5  C   UNL     1       5.144  14.902  21.501  0.00  0.00    +0.000 C 
ATOM      6  C   UNL     1       6.475  15.410  21.000  0.00  0.00    +0.000 C 
ATOM      7  O   UNL     1       7.503  14.753  21.123  0.00  0.00    +0.000 OA
ATOM      8  N   UNL     1       6.443  16.742  20.570  0.00  0.00    +0.000 N 
ATOM      9  C   UNL     1       7.632  17.516  20.866  0.00  0.00    +0.000 C 
ATOM     10  C   UNL     1       8.330  17.788  19.537  0.00  0.00    +0.000 C 
ATOM     11  C   UNL     1       7.475  17.078  18.460  0.00  0.00    +0.000 C 
ATOM     12  C   UNL     1       8.022  15.720  18.111  0.00  0.00    +0.000 A 
ATOM     13  C   UNL     1       9.405  15.499  18.031  0.00  0.00    +0.000 A 
ATOM     14  C   UNL     1       9.933  14.214  17.954  0.00  0.00    +0.000 A 
ATOM     15  C   UNL     1      11.315  14.011  18.065  0.00  0.00    +0.000 A 
ATOM     16  C   UNL     1      11.858  12.732  18.061  0.00  0.00    +0.000 A 
ATOM     17  C   UNL     1      10.981  11.654  17.914  0.00  0.00    +0.000 A 
ATOM     18  C   UNL     1       9.598  11.876  17.804  0.00  0.00    +0.000 A 
ATOM     19  C   UNL     1       9.015  13.152  17.828  0.00  0.00    +0.000 A 
ATOM     20  N   UNL     1       7.661  13.378  17.737  0.00  0.00    +0.000 NA
ATOM     21  C   UNL     1       7.167  14.645  17.908  0.00  0.00    +0.000 A 
ATOM     22  C   UNL     1       5.656  14.916  17.756  0.00  0.00    +0.000 C 
ATOM     23  C   UNL     1       4.999  16.135  18.548  0.00  0.00    +0.000 C 
ATOM     24  C   UNL     1       6.097  17.017  19.174  0.00  0.00    +0.000 C 
ENDROOT
TORSDOF 0
ENDMDL
MODEL 4
REMARK VINA RESULT:      -6.3     10.115     12.085
REMARK  Name = 
REMARK  2 active torsions:
REMARK  status: ('A' for Active; 'I' for Inactive)
REMARK    1  A    between atoms: C_1  and  C_2
REMARK    2  A    between atoms: C_2  and  C_3
REMARK                            x       y       z     vdW  Elec       q    Type
REMARK                         _______ _______ _______ _____ _____    ______ ____
ROOT
ATOM      1  C   UNL     1       0.711   8.919  21.314  0.00  0.00    +0.000 C 
ATOM      2  C   UNL     1       0.186  10.291  20.783  0.00  0.00    +0.000 C 
ATOM      3  C   UNL     1       1.254  10.703  19.699  0.00  0.00    +0.000 C 
ATOM      4  C   UNL     1      -1.151  10.041  20.048  0.00  0.00    +0.000 C 
ATOM      5  C   UNL     1      -1.616  11.198  19.180  0.00  0.00    +0.000 C 
ATOM      6  C   UNL     1      -1.802  12.518  19.887  0.00  0.00    +0.000 C 
ATOM      7  O   UNL     1      -2.906  13.043  19.993  0.00  0.00    +0.000 OA
ATOM      8  N   UNL     1      -0.600  13.151  20.226  0.00  0.00    +0.000 N 
ATOM      9  C   UNL     1      -0.605  14.595  20.110  0.00  0.00    +0.000 C 
ATOM     10  C   UNL     1      -0.543  15.157  21.526  0.00  0.00    +0.000 C 
ATOM     11  C   UNL     1      -0.542  13.928  22.467  0.00  0.00    +0.000 C 
ATOM     12  C   UNL     1      -1.919  13.616  22.989  0.00  0.00    +0.000 A 
ATOM     13  C   UNL     1      -2.808  14.644  23.334  0.00  0.00    +0.000 A 
ATOM     14  C   UNL     1      -4.153  14.388  23.580  0.00  0.00    +0.000 A 
ATOM     15  C   UNL     1      -5.056  15.449  23.737  0.00  0.00    +0.000 A 
ATOM     16  C   UNL     1      -6.415  15.219  23.914  0.00  0.00    +0.000 A 
ATOM     17  C   UNL     1      -6.849  13.891  23.960  0.00  0.00    +0.000 A 
ATOM     18  C   UNL     1      -5.930  12.840  23.800  0.00  0.00    +0.000 A 
ATOM     19  C   UNL     1      -4.556  13.038  23.596  0.00  0.00    +0.000 A 
ATOM     20  N   UNL     1      -3.652  12.015  23.423  0.00  0.00    +0.000 NA
ATOM     21  C   UNL     1      -2.353  12.301  23.092  0.00  0.00    +0.000 A 
ATOM     22  C   UNL     1      -1.321  11.164  22.948  0.00  0.00    +0.000 C 
ATOM     23  C   UNL     1      -0.069  11.366  21.980  0.00  0.00    +0.000 C 
ATOM     24  C   UNL     1       0.016  12.833  21.517  0.00  0.00    +0.000 C 
ENDROOT
TORSDOF 0
ENDMDL
MODEL 5
REMARK VINA RESULT:      -6.2     10.303     12.609
REMARK  Name = 
REMARK  2 active torsions:
REMARK  status: ('A' for Active; 'I' for Inactive)
REMARK    1  A    between atoms: C_1  and  C_2
REMARK    2  A    between atoms: C_2  and  C_3
REMARK                            x       y       z     vdW  Elec       q    Type
REMARK                         _______ _______ _______ _____ _____    ______ ____
ROOT
ATOM      1  C   UNL     1      -2.336  12.273  23.391  0.00  0.00    +0.000 C 
ATOM      2  C   UNL     1      -1.420  12.155  22.131  0.00  0.00    +0.000 C 
ATOM      3  C   UNL     1      -0.808  10.708  22.250  0.00  0.00    +0.000 C 
ATOM      4  C   UNL     1      -2.324  12.178  20.877  0.00  0.00    +0.000 C 
ATOM      5  C   UNL     1      -1.637  11.727  19.600  0.00  0.00    +0.000 C 
ATOM      6  C   UNL     1      -0.406  12.506  19.204  0.00  0.00    +0.000 C 
ATOM      7  O   UNL     1      -0.371  13.180  18.181  0.00  0.00    +0.000 OA
ATOM      8  N   UNL     1       0.714  12.231  19.999  0.00  0.00    +0.000 N 
ATOM      9  C   UNL     1       1.982  12.216  19.298  0.00  0.00    +0.000 C 
ATOM     10  C   UNL     1       2.765  13.439  19.764  0.00  0.00    +0.000 C 
ATOM     11  C   UNL     1       1.835  14.181  20.755  0.00  0.00    +0.000 C 
ATOM     12  C   UNL     1       1.085  15.304  20.091  0.00  0.00    +0.000 A 
ATOM     13  C   UNL     1       1.701  16.106  19.119  0.00  0.00    +0.000 A 
ATOM     14  C   UNL     1       0.964  16.980  18.325  0.00  0.00    +0.000 A 
ATOM     15  C   UNL     1       1.570  17.628  17.240  0.00  0.00    +0.000 A 
ATOM     16  C   UNL     1       0.839  18.450  16.391  0.00  0.00    +0.000 A 
ATOM     17  C   UNL     1      -0.518  18.631  16.673  0.00  0.00    +0.000 A 
ATOM     18  C   UNL     1      -1.109  17.972  17.764  0.00  0.00    +0.000 A 
ATOM     19  C   UNL     1      -0.405  17.118  18.626  0.00  0.00    +0.000 A 
ATOM     20  N   UNL     1      -0.980  16.458  19.688  0.00  0.00    +0.000 NA
ATOM     21  C   UNL     1      -0.250  15.536  20.393  0.00  0.00    +0.000 A 
ATOM     22  C   UNL     1      -0.870  14.829  21.617  0.00  0.00    +0.000 C 
ATOM     23  C   UNL     1      -0.349  13.378  22.024  0.00  0.00    +0.000 C 
ATOM     24  C   UNL     1       0.914  13.019  21.218  0.00  0.00    +0.000 C 
ENDROOT
TORSDOF 0
ENDMDL
MODEL 6
REMARK VINA RESULT:      -6.1      9.286     10.894
REMARK  Name = 
REMARK  2 active torsions:
REMARK  status: ('A' for Active; 'I' for Inactive)
REMARK    1  A    between atoms: C_1  and  C_2
REMARK    2  A    between atoms: C_2  and  C_3
REMARK                            x       y       z     vdW  Elec       q    Type
REMARK                         _______ _______ _______ _____ _____    ______ ____
ROOT
ATOM      1  C   UNL     1       1.462   8.446  19.947  0.00  0.00    +0.000 C 
ATOM      2  C   UNL     1       0.897   9.842  19.528  0.00  0.00    +0.000 C 
ATOM      3  C   UNL     1       1.704  10.193  18.221  0.00  0.00    +0.000 C 
ATOM      4  C   UNL     1      -0.584   9.658  19.126  0.00  0.00    +0.000 C 
ATOM      5  C   UNL     1      -1.179  10.833  18.370  0.00  0.00    +0.000 C 
ATOM      6  C   UNL     1      -1.132  12.165  19.079  0.00  0.00    +0.000 C 
ATOM      7  O   UNL     1      -2.154  12.746  19.428  0.00  0.00    +0.000 OA
ATOM      8  N   UNL     1       0.146  12.735  19.122  0.00  0.00    +0.000 N 
ATOM      9  C   UNL     1       0.186  14.178  18.986  0.00  0.00    +0.000 C 
ATOM     10  C   UNL     1       0.602  14.742  20.341  0.00  0.00    +0.000 C 
ATOM     11  C   UNL     1       0.760  13.519  21.276  0.00  0.00    +0.000 C 
ATOM     12  C   UNL     1      -0.473  13.281  22.106  0.00  0.00    +0.000 A 
ATOM     13  C   UNL     1      -1.207  14.355  22.630  0.00  0.00    +0.000 A 
ATOM     14  C   UNL     1      -2.470  14.170  23.185  0.00  0.00    +0.000 A 
ATOM     15  C   UNL     1      -3.258  15.277  23.528  0.00  0.00    +0.000 A 
ATOM     16  C   UNL     1      -4.549  15.119  24.018  0.00  0.00    +0.000 A 
ATOM     17  C   UNL     1      -5.025  13.816  24.184  0.00  0.00    +0.000 A 
ATOM     18  C   UNL     1      -4.221  12.718  23.833  0.00  0.00    +0.000 A 
ATOM     19  C   UNL     1      -2.924  12.843  23.315  0.00  0.00    +0.000 A 
ATOM     20  N   UNL     1      -2.136  11.774  22.955  0.00  0.00    +0.000 NA
ATOM     21  C   UNL     1      -0.937  11.991  22.328  0.00  0.00    +0.000 A 
ATOM     22  C   UNL     1      -0.023  10.800  21.968  0.00  0.00    +0.000 C 
ATOM     23  C   UNL     1       0.980  10.933  20.734  0.00  0.00    +0.000 C 
ATOM     24  C   UNL     1       1.027  12.392  20.241  0.00  0.00    +0.000 C 
ENDROOT
TORSDOF 0
ENDMDL
MODEL 7
REMARK VINA RESULT:      -6.1     11.074     13.890
REMARK  Name = 
REMARK  2 active torsions:
REMARK  status: ('A' for Active; 'I' for Inactive)
REMARK    1  A    between atoms: C_1  and  C_2
REMARK    2  A    between atoms: C_2  and  C_3
REMARK                            x       y       z     vdW  Elec       q    Type
REMARK                         _______ _______ _______ _____ _____    ______ ____
ROOT
ATOM      1  C   UNL     1      -5.162  17.538  20.787  0.00  0.00    +0.000 C 
ATOM      2  C   UNL     1      -5.440  16.135  21.416  0.00  0.00    +0.000 C 
ATOM      3  C   UNL     1      -6.810  16.331  22.170  0.00  0.00    +0.000 C 
ATOM      4  C   UNL     1      -5.681  15.133  20.265  0.00  0.00    +0.000 C 
ATOM      5  C   UNL     1      -6.303  13.816  20.698  0.00  0.00    +0.000 C 
ATOM      6  C   UNL     1      -5.535  13.036  21.737  0.00  0.00    +0.000 C 
ATOM      7  O   UNL     1      -5.042  11.941  21.488  0.00  0.00    +0.000 OA
ATOM      8  N   UNL     1      -5.607  13.587  23.023  0.00  0.00    +0.000 N 
ATOM      9  C   UNL     1      -5.670  12.626  24.106  0.00  0.00    +0.000 C 
ATOM     10  C   UNL     1      -4.344  12.709  24.855  0.00  0.00    +0.000 C 
ATOM     11  C   UNL     1      -3.498  13.761  24.097  0.00  0.00    +0.000 C 
ATOM     12  C   UNL     1      -2.547  13.122  23.120  0.00  0.00    +0.000 A 
ATOM     13  C   UNL     1      -1.888  11.925  23.435  0.00  0.00    +0.000 A 
ATOM     14  C   UNL     1      -1.205  11.196  22.467  0.00  0.00    +0.000 A 
ATOM     15  C   UNL     1      -0.717   9.915  22.762  0.00  0.00    +0.000 A 
ATOM     16  C   UNL     1      -0.093   9.141  21.791  0.00  0.00    +0.000 A 
ATOM     17  C   UNL     1       0.058   9.693  20.517  0.00  0.00    +0.000 A 
ATOM     18  C   UNL     1      -0.439  10.978  20.238  0.00  0.00    +0.000 A 
ATOM     19  C   UNL     1      -1.093  11.776  21.188  0.00  0.00    +0.000 A 
ATOM     20  N   UNL     1      -1.596  13.029  20.919  0.00  0.00    +0.000 NA
ATOM     21  C   UNL     1      -2.342  13.682  21.866  0.00  0.00    +0.000 A 
ATOM     22  C   UNL     1      -2.865  15.108  21.593  0.00  0.00    +0.000 C 
ATOM     23  C   UNL     1      -4.196  15.602  22.321  0.00  0.00    +0.000 C 
ATOM     24  C   UNL     1      -4.615  14.593  23.408  0.00  0.00    +0.000 C 
ENDROOT
TORSDOF 0
ENDMDL
MODEL 8
REMARK VINA RESULT:      -6.1      9.550     11.291
REMARK  Name = 
REMARK  2 active torsions:
REMARK  status: ('A' for Active; 'I' for Inactive)
REMARK    1  A    between atoms: C_1  and  C_2
REMARK    2  A    between atoms: C_2  and  C_3
REMARK                            x       y       z     vdW  Elec       q    Type
REMARK                         _______ _______ _______ _____ _____    ______ ____
ROOT
ATOM      1  C   UNL     1      12.314  11.728  19.706  0.00  0.00    +0.000 C 
ATOM      2  C   UNL     1      11.390  12.757  18.979  0.00  0.00    +0.000 C 
ATOM      3  C   UNL     1      12.241  13.204  17.731  0.00  0.00    +0.000 C 
ATOM      4  C   UNL     1      10.151  11.998  18.451  0.00  0.00    +0.000 C 
ATOM      5  C   UNL     1       9.331  12.769  17.431  0.00  0.00    +0.000 C 
ATOM      6  C   UNL     1       8.802  14.107  17.886  0.00  0.00    +0.000 C 
ATOM      7  O   UNL     1       7.600  14.319  18.005  0.00  0.00    +0.000 OA
ATOM      8  N   UNL     1       9.783  15.103  17.970  0.00  0.00    +0.000 N 
ATOM      9  C   UNL     1       9.354  16.430  17.580  0.00  0.00    +0.000 C 
ATOM     10  C   UNL     1       9.315  17.278  18.847  0.00  0.00    +0.000 C 
ATOM     11  C   UNL     1       9.716  16.327  20.001  0.00  0.00    +0.000 C 
ATOM     12  C   UNL     1       8.514  15.768  20.715  0.00  0.00    +0.000 A 
ATOM     13  C   UNL     1       7.381  16.562  20.947  0.00  0.00    +0.000 A 
ATOM     14  C   UNL     1       6.181  16.005  21.379  0.00  0.00    +0.000 A 
ATOM     15  C   UNL     1       5.018  16.786  21.423  0.00  0.00    +0.000 A 
ATOM     16  C   UNL     1       3.794  16.235  21.783  0.00  0.00    +0.000 A 
ATOM     17  C   UNL     1       3.767  14.882  22.128  0.00  0.00    +0.000 A 
ATOM     18  C   UNL     1       4.943  14.114  22.077  0.00  0.00    +0.000 A 
ATOM     19  C   UNL     1       6.189  14.633  21.696  0.00  0.00    +0.000 A 
ATOM     20  N   UNL     1       7.342  13.885  21.628  0.00  0.00    +0.000 NA
ATOM     21  C   UNL     1       8.485  14.438  21.113  0.00  0.00    +0.000 A 
ATOM     22  C   UNL     1       9.796  13.624  21.082  0.00  0.00    +0.000 C 
ATOM     23  C   UNL     1      10.890  13.950  19.968  0.00  0.00    +0.000 C 
ATOM     24  C   UNL     1      10.523  15.250  19.226  0.00  0.00    +0.000 C 
ENDROOT
TORSDOF 0
ENDMDL
MODEL 9
REMARK VINA RESULT:      -6.0      9.829     11.829
REMARK  Name = 
REMARK  2 active torsions:
REMARK  status: ('A' for Active; 'I' for Inactive)
REMARK    1  A    between atoms: C_1  and  C_2
REMARK    2  A    between atoms: C_2  and  C_3
REMARK                            x       y       z     vdW  Elec       q    Type
REMARK                         _______ _______ _______ _____ _____    ______ ____
ROOT
ATOM      1  C   UNL     1      -0.686  10.493  22.879  0.00  0.00    +0.000 C 
ATOM      2  C   UNL     1      -0.189  10.847  21.441  0.00  0.00    +0.000 C 
ATOM      3  C   UNL     1       0.579   9.550  20.982  0.00  0.00    +0.000 C 
ATOM      4  C   UNL     1      -1.428  11.002  20.530  0.00  0.00    +0.000 C 
ATOM      5  C   UNL     1      -1.118  11.002  19.043  0.00  0.00    +0.000 C 
ATOM      6  C   UNL     1      -0.155  12.064  18.571  0.00  0.00    +0.000 C 
ATOM      7  O   UNL     1      -0.504  12.957  17.807  0.00  0.00    +0.000 OA
ATOM      8  N   UNL     1       1.176  11.817  18.931  0.00  0.00    +0.000 N 
ATOM      9  C   UNL     1       2.166  12.201  17.944  0.00  0.00    +0.000 C 
ATOM     10  C   UNL     1       2.920  13.400  18.510  0.00  0.00    +0.000 C 
ATOM     11  C   UNL     1       2.262  13.702  19.879  0.00  0.00    +0.000 C 
ATOM     12  C   UNL     1       1.231  14.794  19.781  0.00  0.00    +0.000 A 
ATOM     13  C   UNL     1       1.435  15.904  18.947  0.00  0.00    +0.000 A 
ATOM     14  C   UNL     1       0.404  16.791  18.654  0.00  0.00    +0.000 A 
ATOM     15  C   UNL     1       0.580  17.779  17.675  0.00  0.00    +0.000 A 
ATOM     16  C   UNL     1      -0.457  18.631  17.317  0.00  0.00    +0.000 A 
ATOM     17  C   UNL     1      -1.675  18.489  17.986  0.00  0.00    +0.000 A 
ATOM     18  C   UNL     1      -1.834  17.493  18.964  0.00  0.00    +0.000 A 
ATOM     19  C   UNL     1      -0.816  16.602  19.333  0.00  0.00    +0.000 A 
ATOM     20  N   UNL     1      -0.968  15.614  20.279  0.00  0.00    +0.000 NA
ATOM     21  C   UNL     1       0.034  14.700  20.478  0.00  0.00    +0.000 A 
ATOM     22  C   UNL     1      -0.105  13.621  21.572  0.00  0.00    +0.000 C 
ATOM     23  C   UNL     1       0.664  12.234  21.402  0.00  0.00    +0.000 C 
ATOM     24  C   UNL     1       1.653  12.315  20.223  0.00  0.00    +0.000 C 
ENDROOT
TORSDOF 0
ENDMDL
