MODEL 1
REMARK VINA RESULT:      -9.2      0.000      0.000
REMARK  Name = 
REMARK  4 active torsions:
REMARK  status: ('A' for Active; 'I' for Inactive)
REMARK    1  A    between atoms: S_2  and  N_4
REMARK    2  A    between atoms: S_2  and  C_11
REMARK    3  A    between atoms: C_15  and  C_16
REMARK    4  A    between atoms: C_19  and  C_20
REMARK                            x       y       z     vdW  Elec       q    Type
REMARK                         _______ _______ _______ _____ _____    ______ ____
ROOT
ATOM      1  C   UNL     1       1.130   9.840  19.406  0.00  0.00    +0.000 A 
ATOM      2  C   UNL     1       1.768   9.598  18.197  0.00  0.00    +0.000 A 
ATOM      3  C   UNL     1       2.326   8.340  17.961  0.00  0.00    +0.000 A 
ATOM      4  C   UNL     1       2.323   7.306  18.938  0.00  0.00    +0.000 A 
ATOM      5  C   UNL     1       2.968   6.034  18.818  0.00  0.00    +0.000 A 
ATOM      6  N   UNL     1       2.868   5.093  19.794  0.00  0.00    +0.000 NA
ATOM      7  C   UNL     1       2.115   5.353  20.877  0.00  0.00    +0.000 A 
ATOM      8  C   UNL     1       1.494   6.563  21.101  0.00  0.00    +0.000 A 
ATOM      9  C   UNL     1       1.615   7.569  20.140  0.00  0.00    +0.000 A 
ATOM     10  C   UNL     1       1.030   8.829  20.366  0.00  0.00    +0.000 A 
ENDROOT
BRANCH   5  11
ATOM     11  C   UNL     1       3.883   5.642  17.703  0.00  0.00    +0.000 A 
ATOM     12  C   UNL     1       4.975   6.473  17.362  0.00  0.00    +0.000 A 
ATOM     13  C   UNL     1       5.860   6.173  16.320  0.00  0.00    +0.000 A 
ATOM     14  C   UNL     1       5.750   4.969  15.627  0.00  0.00    +0.000 A 
ATOM     15  C   UNL     1       4.710   4.099  15.975  0.00  0.00    +0.000 A 
ATOM     16  C   UNL     1       3.778   4.434  16.976  0.00  0.00    +0.000 A 
ATOM     17 CL   UNL     1       2.503   3.280  17.209  0.00  0.00    +0.000 Cl
BRANCH  14  18
ATOM     18  C   UNL     1       6.745   4.591  14.560  0.00  0.00    +0.000 C 
ATOM     19  F   UNL     1       6.528   3.352  14.035  0.00  0.00    +0.000 F 
ATOM     20  F   UNL     1       6.723   5.451  13.506  0.00  0.00    +0.000 F 
ATOM     21  F   UNL     1       8.027   4.583  15.015  0.00  0.00    +0.000 F 
ENDBRANCH  14  18
ENDBRANCH   5  11
BRANCH   1  23
ATOM     22  O   UNL     1       1.419  12.369  19.954  0.00  0.00    +0.000 OA
ATOM     23  S   UNL     1       0.358  11.421  19.675  0.00  0.00    +0.000 S 
ATOM     24  O   UNL     1      -0.739  11.201  20.591  0.00  0.00    +0.000 OA
BRANCH  23  25
ATOM     25  N   UNL     1      -0.309  11.747  18.142  0.00  0.00    +0.000 N 
ATOM     26  C   UNL     1      -1.660  11.323  18.040  0.00  0.00    +0.000 A 
ATOM     27  C   UNL     1      -2.702  12.137  18.411  0.00  0.00    +0.000 A 
ATOM     28  C   UNL     1      -3.944  11.566  18.303  0.00  0.00    +0.000 A 
ATOM     29  N   UNL     1      -4.143  10.304  17.877  0.00  0.00    +0.000 NA
ATOM     30  C   UNL     1      -3.040   9.610  17.552  0.00  0.00    +0.000 A 
ATOM     31  N   UNL     1      -1.782  10.068  17.596  0.00  0.00    +0.000 NA
ATOM     32  H   UNL     1       0.203  11.147  17.490  0.00  0.00    +0.000 HD
ENDBRANCH  23  25
ENDBRANCH   1  23
TORSDOF 4
ENDMDL
MODEL 2
REMARK VINA RESULT:      -9.0      2.224      2.700
REMARK  Name = 
REMARK  4 active torsions:
REMARK  status: ('A' for Active; 'I' for Inactive)
REMARK    1  A    between atoms: S_2  and  N_4
REMARK    2  A    between atoms: S_2  and  C_11
REMARK    3  A    between atoms: C_15  and  C_16
REMARK    4  A    between atoms: C_19  and  C_20
REMARK                            x       y       z     vdW  Elec       q    Type
REMARK                         _______ _______ _______ _____ _____    ______ ____
ROOT
ATOM      1  C   UNL     1       1.109  10.337  19.157  0.00  0.00    +0.000 A 
ATOM      2  C   UNL     1       1.772   9.989  17.989  0.00  0.00    +0.000 A 
ATOM      3  C   UNL     1       2.277   8.693  17.851  0.00  0.00    +0.000 A 
ATOM      4  C   UNL     1       2.194   7.726  18.891  0.00  0.00    +0.000 A 
ATOM      5  C   UNL     1       2.780   6.421  18.874  0.00  0.00    +0.000 A 
ATOM      6  N   UNL     1       2.605   5.550  19.903  0.00  0.00    +0.000 NA
ATOM      7  C   UNL     1       1.830   5.913  20.940  0.00  0.00    +0.000 A 
ATOM      8  C   UNL     1       1.261   7.162  21.066  0.00  0.00    +0.000 A 
ATOM      9  C   UNL     1       1.461   8.098  20.048  0.00  0.00    +0.000 A 
ATOM     10  C   UNL     1       0.930   9.395  20.175  0.00  0.00    +0.000 A 
ENDROOT
BRANCH   5  11
ATOM     11  C   UNL     1       3.710   5.916  17.818  0.00  0.00    +0.000 A 
ATOM     12  C   UNL     1       4.835   6.686  17.443  0.00  0.00    +0.000 A 
ATOM     13  C   UNL     1       5.736   6.281  16.452  0.00  0.00    +0.000 A 
ATOM     14  C   UNL     1       5.607   5.029  15.852  0.00  0.00    +0.000 A 
ATOM     15  C   UNL     1       4.532   4.219  16.238  0.00  0.00    +0.000 A 
ATOM     16  C   UNL     1       3.586   4.658  17.184  0.00  0.00    +0.000 A 
ATOM     17 CL   UNL     1       2.272   3.563  17.472  0.00  0.00    +0.000 Cl
BRANCH  14  18
ATOM     18  C   UNL     1       6.616   4.540  14.845  0.00  0.00    +0.000 C 
ATOM     19  F   UNL     1       6.758   5.373  13.775  0.00  0.00    +0.000 F 
ATOM     20  F   UNL     1       7.859   4.410  15.383  0.00  0.00    +0.000 F 
ATOM     21  F   UNL     1       6.298   3.323  14.330  0.00  0.00    +0.000 F 
ENDBRANCH  14  18
ENDBRANCH   5  11
BRANCH   1  23
ATOM     22  O   UNL     1      -1.035  11.815  19.206  0.00  0.00    +0.000 OA
ATOM     23  S   UNL     1       0.405  11.965  19.299  0.00  0.00    +0.000 S 
ATOM     24  O   UNL     1       1.149  12.822  18.403  0.00  0.00    +0.000 OA
BRANCH  23  25
ATOM     25  N   UNL     1       0.833  12.391  20.892  0.00  0.00    +0.000 N 
ATOM     26  C   UNL     1      -0.301  12.576  21.725  0.00  0.00    +0.000 A 
ATOM     27  C   UNL     1      -0.876  11.531  22.405  0.00  0.00    +0.000 A 
ATOM     28  C   UNL     1      -1.995  11.860  23.125  0.00  0.00    +0.000 A 
ATOM     29  N   UNL     1      -2.509  13.105  23.166  0.00  0.00    +0.000 NA
ATOM     30  C   UNL     1      -1.857  14.035  22.451  0.00  0.00    +0.000 A 
ATOM     31  N   UNL     1      -0.745  13.837  21.729  0.00  0.00    +0.000 NA
ATOM     32  H   UNL     1       1.259  13.318  20.820  0.00  0.00    +0.000 HD
ENDBRANCH  23  25
ENDBRANCH   1  23
TORSDOF 4
ENDMDL
MODEL 3
REMARK VINA RESULT:      -9.0      1.966      3.068
REMARK  Name = 
REMARK  4 active torsions:
REMARK  status: ('A' for Active; 'I' for Inactive)
REMARK    1  A    between atoms: S_2  and  N_4
REMARK    2  A    between atoms: S_2  and  C_11
REMARK    3  A    between atoms: C_15  and  C_16
REMARK    4  A    between atoms: C_19  and  C_20
REMARK                            x       y       z     vdW  Elec       q    Type
REMARK                         _______ _______ _______ _____ _____    ______ ____
ROOT
ATOM      1  C   UNL     1       1.045   9.846  19.417  0.00  0.00    +0.000 A 
ATOM      2  C   UNL     1       1.660   9.585  18.201  0.00  0.00    +0.000 A 
ATOM      3  C   UNL     1       2.215   8.323  17.975  0.00  0.00    +0.000 A 
ATOM      4  C   UNL     1       2.232   7.306  18.969  0.00  0.00    +0.000 A 
ATOM      5  C   UNL     1       2.876   6.033  18.858  0.00  0.00    +0.000 A 
ATOM      6  N   UNL     1       2.796   5.108  19.851  0.00  0.00    +0.000 NA
ATOM      7  C   UNL     1       2.063   5.385  20.943  0.00  0.00    +0.000 A 
ATOM      8  C   UNL     1       1.445   6.598  21.159  0.00  0.00    +0.000 A 
ATOM      9  C   UNL     1       1.546   7.588  20.179  0.00  0.00    +0.000 A 
ATOM     10  C   UNL     1       0.964   8.851  20.396  0.00  0.00    +0.000 A 
ENDROOT
BRANCH   5  11
ATOM     11  C   UNL     1       3.771   5.623  17.732  0.00  0.00    +0.000 A 
ATOM     12  C   UNL     1       4.794   6.494  17.292  0.00  0.00    +0.000 A 
ATOM     13  C   UNL     1       5.656   6.179  16.235  0.00  0.00    +0.000 A 
ATOM     14  C   UNL     1       5.595   4.927  15.626  0.00  0.00    +0.000 A 
ATOM     15  C   UNL     1       4.625   4.021  16.073  0.00  0.00    +0.000 A 
ATOM     16  C   UNL     1       3.714   4.365  17.089  0.00  0.00    +0.000 A 
ATOM     17 CL   UNL     1       2.524   3.155  17.449  0.00  0.00    +0.000 Cl
BRANCH  14  18
ATOM     18  C   UNL     1       6.570   4.540  14.544  0.00  0.00    +0.000 C 
ATOM     19  F   UNL     1       6.661   5.461  13.544  0.00  0.00    +0.000 F 
ATOM     20  F   UNL     1       7.835   4.383  15.022  0.00  0.00    +0.000 F 
ATOM     21  F   UNL     1       6.246   3.365  13.940  0.00  0.00    +0.000 F 
ENDBRANCH  14  18
ENDBRANCH   5  11
BRANCH   1  23
ATOM     22  O   UNL     1       1.002  12.085  20.746  0.00  0.00    +0.000 OA
ATOM     23  S   UNL     1       0.276  11.431  19.675  0.00  0.00    +0.000 S 
ATOM     24  O   UNL     1      -1.150  11.198  19.740  0.00  0.00    +0.000 OA
BRANCH  23  25
ATOM     25  N   UNL     1       0.602  12.218  18.200  0.00  0.00    +0.000 N 
ATOM     26  C   UNL     1       1.471  13.328  18.361  0.00  0.00    +0.000 A 
ATOM     27  C   UNL     1       2.836  13.188  18.322  0.00  0.00    +0.000 A 
ATOM     28  C   UNL     1       3.540  14.344  18.546  0.00  0.00    +0.000 A 
ATOM     29  N   UNL     1       2.953  15.530  18.796  0.00  0.00    +0.000 NA
ATOM     30  C   UNL     1       1.610  15.531  18.814  0.00  0.00    +0.000 A 
ATOM     31  N   UNL     1       0.819  14.472  18.589  0.00  0.00    +0.000 NA
ATOM     32  H   UNL     1      -0.290  12.624  17.906  0.00  0.00    +0.000 HD
ENDBRANCH  23  25
ENDBRANCH   1  23
TORSDOF 4
ENDMDL
MODEL 4
REMARK VINA RESULT:      -8.9      2.405      3.354
REMARK  Name = 
REMARK  4 active torsions:
REMARK  status: ('A' for Active; 'I' for Inactive)
REMARK    1  A    between atoms: S_2  and  N_4
REMARK    2  A    between atoms: S_2  and  C_11
REMARK    3  A    between atoms: C_15  and  C_16
REMARK    4  A    between atoms: C_19  and  C_20
REMARK                            x       y       z     vdW  Elec       q    Type
REMARK                         _______ _______ _______ _____ _____    ______ ____
ROOT
ATOM      1  C   UNL     1       0.957  10.504  18.953  0.00  0.00    +0.000 A 
ATOM      2  C   UNL     1       1.619  10.083  17.808  0.00  0.00    +0.000 A 
ATOM      3  C   UNL     1       2.145   8.790  17.761  0.00  0.00    +0.000 A 
ATOM      4  C   UNL     1       2.086   7.899  18.868  0.00  0.00    +0.000 A 
ATOM      5  C   UNL     1       2.694   6.607  18.941  0.00  0.00    +0.000 A 
ATOM      6  N   UNL     1       2.540   5.810  20.031  0.00  0.00    +0.000 NA
ATOM      7  C   UNL     1       1.767   6.234  21.045  0.00  0.00    +0.000 A 
ATOM      8  C   UNL     1       1.177   7.479  21.085  0.00  0.00    +0.000 A 
ATOM      9  C   UNL     1       1.354   8.341  20.001  0.00  0.00    +0.000 A 
ATOM     10  C   UNL     1       0.801   9.635  20.037  0.00  0.00    +0.000 A 
ENDROOT
BRANCH   5  11
ATOM     11  C   UNL     1       3.627   6.042  17.917  0.00  0.00    +0.000 A 
ATOM     12  C   UNL     1       4.777   6.770  17.534  0.00  0.00    +0.000 A 
ATOM     13  C   UNL     1       5.682   6.308  16.572  0.00  0.00    +0.000 A 
ATOM     14  C   UNL     1       5.528   5.040  16.012  0.00  0.00    +0.000 A 
ATOM     15  C   UNL     1       4.426   4.272  16.408  0.00  0.00    +0.000 A 
ATOM     16  C   UNL     1       3.479   4.767  17.324  0.00  0.00    +0.000 A 
ATOM     17 CL   UNL     1       2.131   3.717  17.626  0.00  0.00    +0.000 Cl
BRANCH  14  18
ATOM     18  C   UNL     1       6.539   4.491  15.038  0.00  0.00    +0.000 C 
ATOM     19  F   UNL     1       6.189   3.279  14.524  0.00  0.00    +0.000 F 
ATOM     20  F   UNL     1       6.722   5.311  13.968  0.00  0.00    +0.000 F 
ATOM     21  F   UNL     1       7.767   4.319  15.597  0.00  0.00    +0.000 F 
ENDBRANCH  14  18
ENDBRANCH   5  11
BRANCH   1  23
ATOM     22  O   UNL     1       0.274  12.589  20.356  0.00  0.00    +0.000 OA
ATOM     23  S   UNL     1       0.226  12.126  18.982  0.00  0.00    +0.000 S 
ATOM     24  O   UNL     1      -1.013  12.040  18.241  0.00  0.00    +0.000 OA
BRANCH  23  25
ATOM     25  N   UNL     1       1.328  13.020  18.040  0.00  0.00    +0.000 N 
ATOM     26  C   UNL     1       1.942  14.067  18.775  0.00  0.00    +0.000 A 
ATOM     27  C   UNL     1       3.088  13.862  19.504  0.00  0.00    +0.000 A 
ATOM     28  C   UNL     1       3.529  14.958  20.202  0.00  0.00    +0.000 A 
ATOM     29  N   UNL     1       2.895  16.146  20.191  0.00  0.00    +0.000 NA
ATOM     30  C   UNL     1       1.781  16.213  19.444  0.00  0.00    +0.000 A 
ATOM     31  N   UNL     1       1.268  15.219  18.706  0.00  0.00    +0.000 NA
ATOM     32  H   UNL     1       0.760  13.495  17.335  0.00  0.00    +0.000 HD
ENDBRANCH  23  25
ENDBRANCH   1  23
TORSDOF 4
ENDMDL
MODEL 5
REMARK VINA RESULT:      -8.7      1.747      2.211
REMARK  Name = 
REMARK  4 active torsions:
REMARK  status: ('A' for Active; 'I' for Inactive)
REMARK    1  A    between atoms: S_2  and  N_4
REMARK    2  A    between atoms: S_2  and  C_11
REMARK    3  A    between atoms: C_15  and  C_16
REMARK    4  A    between atoms: C_19  and  C_20
REMARK                            x       y       z     vdW  Elec       q    Type
REMARK                         _______ _______ _______ _____ _____    ______ ____
ROOT
ATOM      1  C   UNL     1       1.508   7.833  20.562  0.00  0.00    +0.000 A 
ATOM      2  C   UNL     1       2.149   8.009  19.344  0.00  0.00    +0.000 A 
ATOM      3  C   UNL     1       2.768   6.914  18.735  0.00  0.00    +0.000 A 
ATOM      4  C   UNL     1       2.823   5.630  19.345  0.00  0.00    +0.000 A 
ATOM      5  C   UNL     1       3.528   4.491  18.844  0.00  0.00    +0.000 A 
ATOM      6  N   UNL     1       3.482   3.291  19.480  0.00  0.00    +0.000 NA
ATOM      7  C   UNL     1       2.723   3.165  20.583  0.00  0.00    +0.000 A 
ATOM      8  C   UNL     1       2.045   4.215  21.164  0.00  0.00    +0.000 A 
ATOM      9  C   UNL     1       2.110   5.473  20.562  0.00  0.00    +0.000 A 
ATOM     10  C   UNL     1       1.464   6.571  21.162  0.00  0.00    +0.000 A 
ENDROOT
BRANCH   5  11
ATOM     11  C   UNL     1       4.455   4.508  17.671  0.00  0.00    +0.000 A 
ATOM     12  C   UNL     1       3.993   4.094  16.400  0.00  0.00    +0.000 A 
ATOM     13  C   UNL     1       4.810   4.070  15.265  0.00  0.00    +0.000 A 
ATOM     14  C   UNL     1       6.115   4.557  15.328  0.00  0.00    +0.000 A 
ATOM     15  C   UNL     1       6.589   5.023  16.560  0.00  0.00    +0.000 A 
ATOM     16  C   UNL     1       5.787   4.980  17.717  0.00  0.00    +0.000 A 
ATOM     17 CL   UNL     1       6.569   5.512  19.172  0.00  0.00    +0.000 Cl
BRANCH  14  18
ATOM     18  C   UNL     1       6.983   4.619  14.097  0.00  0.00    +0.000 C 
ATOM     19  F   UNL     1       6.933   3.483  13.344  0.00  0.00    +0.000 F 
ATOM     20  F   UNL     1       6.624   5.633  13.263  0.00  0.00    +0.000 F 
ATOM     21  F   UNL     1       8.296   4.816  14.388  0.00  0.00    +0.000 F 
ENDBRANCH  14  18
ENDBRANCH   5  11
BRANCH   1  23
ATOM     22  O   UNL     1       1.401   9.579  22.492  0.00  0.00    +0.000 OA
ATOM     23  S   UNL     1       0.660   9.214  21.300  0.00  0.00    +0.000 S 
ATOM     24  O   UNL     1      -0.744   8.869  21.341  0.00  0.00    +0.000 OA
BRANCH  23  25
ATOM     25  N   UNL     1       0.860  10.418  20.112  0.00  0.00    +0.000 N 
ATOM     26  C   UNL     1      -0.368  10.785  19.503  0.00  0.00    +0.000 A 
ATOM     27  C   UNL     1      -1.172  11.765  20.032  0.00  0.00    +0.000 A 
ATOM     28  C   UNL     1      -2.350  11.968  19.359  0.00  0.00    +0.000 A 
ATOM     29  N   UNL     1      -2.709  11.263  18.269  0.00  0.00    +0.000 NA
ATOM     30  C   UNL     1      -1.838  10.328  17.857  0.00  0.00    +0.000 A 
ATOM     31  N   UNL     1      -0.652  10.056  18.419  0.00  0.00    +0.000 NA
ATOM     32  H   UNL     1       1.400   9.976  19.365  0.00  0.00    +0.000 HD
ENDBRANCH  23  25
ENDBRANCH   1  23
TORSDOF 4
ENDMDL
MODEL 6
REMARK VINA RESULT:      -8.6      2.526      3.437
REMARK  Name = 
REMARK  4 active torsions:
REMARK  status: ('A' for Active; 'I' for Inactive)
REMARK    1  A    between atoms: S_2  and  N_4
REMARK    2  A    between atoms: S_2  and  C_11
REMARK    3  A    between atoms: C_15  and  C_16
REMARK    4  A    between atoms: C_19  and  C_20
REMARK                            x       y       z     vdW  Elec       q    Type
REMARK                         _______ _______ _______ _____ _____    ______ ____
ROOT
ATOM      1  C   UNL     1       1.028  10.621  18.958  0.00  0.00    +0.000 A 
ATOM      2  C   UNL     1       1.694  10.185  17.822  0.00  0.00    +0.000 A 
ATOM      3  C   UNL     1       2.186   8.878  17.779  0.00  0.00    +0.000 A 
ATOM      4  C   UNL     1       2.088   7.988  18.884  0.00  0.00    +0.000 A 
ATOM      5  C   UNL     1       2.661   6.679  18.962  0.00  0.00    +0.000 A 
ATOM      6  N   UNL     1       2.471   5.885  20.049  0.00  0.00    +0.000 NA
ATOM      7  C   UNL     1       1.695   6.328  21.053  0.00  0.00    +0.000 A 
ATOM      8  C   UNL     1       1.138   7.588  21.087  0.00  0.00    +0.000 A 
ATOM      9  C   UNL     1       1.353   8.447  20.007  0.00  0.00    +0.000 A 
ATOM     10  C   UNL     1       0.834   9.755  20.039  0.00  0.00    +0.000 A 
ENDROOT
BRANCH   5  11
ATOM     11  C   UNL     1       3.592   6.092  17.950  0.00  0.00    +0.000 A 
ATOM     12  C   UNL     1       4.771   6.785  17.591  0.00  0.00    +0.000 A 
ATOM     13  C   UNL     1       5.677   6.301  16.641  0.00  0.00    +0.000 A 
ATOM     14  C   UNL     1       5.493   5.042  16.071  0.00  0.00    +0.000 A 
ATOM     15  C   UNL     1       4.361   4.306  16.443  0.00  0.00    +0.000 A 
ATOM     16  C   UNL     1       3.414   4.826  17.347  0.00  0.00    +0.000 A 
ATOM     17 CL   UNL     1       2.030   3.816  17.621  0.00  0.00    +0.000 Cl
BRANCH  14  18
ATOM     18  C   UNL     1       6.502   4.468  15.110  0.00  0.00    +0.000 C 
ATOM     19  F   UNL     1       6.181   3.217  14.673  0.00  0.00    +0.000 F 
ATOM     20  F   UNL     1       6.639   5.229  13.990  0.00  0.00    +0.000 F 
ATOM     21  F   UNL     1       7.745   4.365  15.652  0.00  0.00    +0.000 F 
ENDBRANCH  14  18
ENDBRANCH   5  11
BRANCH   1  23
ATOM     22  O   UNL     1      -1.041  12.150  18.551  0.00  0.00    +0.000 OA
ATOM     23  S   UNL     1       0.340  12.262  18.981  0.00  0.00    +0.000 S 
ATOM     24  O   UNL     1       1.288  13.123  18.308  0.00  0.00    +0.000 OA
BRANCH  23  25
ATOM     25  N   UNL     1       0.392  12.638  20.641  0.00  0.00    +0.000 N 
ATOM     26  C   UNL     1       1.291  13.698  20.928  0.00  0.00    +0.000 A 
ATOM     27  C   UNL     1       0.897  15.012  20.878  0.00  0.00    +0.000 A 
ATOM     28  C   UNL     1       1.894  15.921  21.129  0.00  0.00    +0.000 A 
ATOM     29  N   UNL     1       3.166  15.568  21.394  0.00  0.00    +0.000 NA
ATOM     30  C   UNL     1       3.423  14.250  21.405  0.00  0.00    +0.000 A 
ATOM     31  N   UNL     1       2.529  13.273  21.197  0.00  0.00    +0.000 NA
ATOM     32  H   UNL     1       0.803  11.817  21.092  0.00  0.00    +0.000 HD
ENDBRANCH  23  25
ENDBRANCH   1  23
TORSDOF 4
ENDMDL
MODEL 7
REMARK VINA RESULT:      -8.6      0.853      1.152
REMARK  Name = 
REMARK  4 active torsions:
REMARK  status: ('A' for Active; 'I' for Inactive)
REMARK    1  A    between atoms: S_2  and  N_4
REMARK    2  A    between atoms: S_2  and  C_11
REMARK    3  A    between atoms: C_15  and  C_16
REMARK    4  A    between atoms: C_19  and  C_20
REMARK                            x       y       z     vdW  Elec       q    Type
REMARK                         _______ _______ _______ _____ _____    ______ ____
ROOT
ATOM      1  C   UNL     1       1.019  10.137  19.214  0.00  0.00    +0.000 A 
ATOM      2  C   UNL     1       1.655   9.817  18.023  0.00  0.00    +0.000 A 
ATOM      3  C   UNL     1       2.220   8.549  17.871  0.00  0.00    +0.000 A 
ATOM      4  C   UNL     1       2.225   7.584  18.916  0.00  0.00    +0.000 A 
ATOM      5  C   UNL     1       2.876   6.310  18.881  0.00  0.00    +0.000 A 
ATOM      6  N   UNL     1       2.784   5.437  19.918  0.00  0.00    +0.000 NA
ATOM      7  C   UNL     1       2.032   5.766  20.983  0.00  0.00    +0.000 A 
ATOM      8  C   UNL     1       1.405   6.985  21.126  0.00  0.00    +0.000 A 
ATOM      9  C   UNL     1       1.518   7.924  20.099  0.00  0.00    +0.000 A 
ATOM     10  C   UNL     1       0.926   9.193  20.241  0.00  0.00    +0.000 A 
ENDROOT
BRANCH   5  11
ATOM     11  C   UNL     1       3.791   5.848  17.792  0.00  0.00    +0.000 A 
ATOM     12  C   UNL     1       4.898   6.643  17.417  0.00  0.00    +0.000 A 
ATOM     13  C   UNL     1       5.784   6.278  16.397  0.00  0.00    +0.000 A 
ATOM     14  C   UNL     1       5.658   5.042  15.764  0.00  0.00    +0.000 A 
ATOM     15  C   UNL     1       4.602   4.207  16.148  0.00  0.00    +0.000 A 
ATOM     16  C   UNL     1       3.670   4.607  17.126  0.00  0.00    +0.000 A 
ATOM     17 CL   UNL     1       2.376   3.487  17.408  0.00  0.00    +0.000 Cl
BRANCH  14  18
ATOM     18  C   UNL     1       6.653   4.595  14.724  0.00  0.00    +0.000 C 
ATOM     19  F   UNL     1       6.347   3.389  14.168  0.00  0.00    +0.000 F 
ATOM     20  F   UNL     1       6.742   5.471  13.686  0.00  0.00    +0.000 F 
ATOM     21  F   UNL     1       7.912   4.468  15.221  0.00  0.00    +0.000 F 
ENDBRANCH  14  18
ENDBRANCH   5  11
BRANCH   1  23
ATOM     22  O   UNL     1       0.219  12.329  18.057  0.00  0.00    +0.000 OA
ATOM     23  S   UNL     1       0.239  11.729  19.377  0.00  0.00    +0.000 S 
ATOM     24  O   UNL     1       0.855  12.382  20.511  0.00  0.00    +0.000 OA
BRANCH  23  25
ATOM     25  N   UNL     1      -1.344  11.295  19.831  0.00  0.00    +0.000 N 
ATOM     26  C   UNL     1      -2.152  10.956  18.715  0.00  0.00    +0.000 A 
ATOM     27  C   UNL     1      -2.193   9.678  18.214  0.00  0.00    +0.000 A 
ATOM     28  C   UNL     1      -2.980   9.521  17.101  0.00  0.00    +0.000 A 
ATOM     29  N   UNL     1      -3.658  10.532  16.527  0.00  0.00    +0.000 NA
ATOM     30  C   UNL     1      -3.528  11.735  17.110  0.00  0.00    +0.000 A 
ATOM     31  N   UNL     1      -2.808  12.004  18.207  0.00  0.00    +0.000 NA
ATOM     32  H   UNL     1      -1.763  12.149  20.207  0.00  0.00    +0.000 HD
ENDBRANCH  23  25
ENDBRANCH   1  23
TORSDOF 4
ENDMDL
MODEL 8
REMARK VINA RESULT:      -8.6      2.606      3.499
REMARK  Name = 
REMARK  4 active torsions:
REMARK  status: ('A' for Active; 'I' for Inactive)
REMARK    1  A    between atoms: S_2  and  N_4
REMARK    2  A    between atoms: S_2  and  C_11
REMARK    3  A    between atoms: C_15  and  C_16
REMARK    4  A    between atoms: C_19  and  C_20
REMARK                            x       y       z     vdW  Elec       q    Type
REMARK                         _______ _______ _______ _____ _____    ______ ____
ROOT
ATOM      1  C   UNL     1       1.192  10.717  19.152  0.00  0.00    +0.000 A 
ATOM      2  C   UNL     1       1.866  10.309  18.009  0.00  0.00    +0.000 A 
ATOM      3  C   UNL     1       2.296   8.985  17.907  0.00  0.00    +0.000 A 
ATOM      4  C   UNL     1       2.127   8.043  18.960  0.00  0.00    +0.000 A 
ATOM      5  C   UNL     1       2.635   6.705  18.981  0.00  0.00    +0.000 A 
ATOM      6  N   UNL     1       2.380   5.865  20.018  0.00  0.00    +0.000 NA
ATOM      7  C   UNL     1       1.600   6.291  21.027  0.00  0.00    +0.000 A 
ATOM      8  C   UNL     1       1.103   7.574  21.116  0.00  0.00    +0.000 A 
ATOM      9  C   UNL     1       1.386   8.478  20.089  0.00  0.00    +0.000 A 
ATOM     10  C   UNL     1       0.929   9.806  20.179  0.00  0.00    +0.000 A 
ENDROOT
BRANCH   5  11
ATOM     11  C   UNL     1       3.563   6.128  17.960  0.00  0.00    +0.000 A 
ATOM     12  C   UNL     1       4.726   6.837  17.583  0.00  0.00    +0.000 A 
ATOM     13  C   UNL     1       5.628   6.362  16.624  0.00  0.00    +0.000 A 
ATOM     14  C   UNL     1       5.456   5.098  16.063  0.00  0.00    +0.000 A 
ATOM     15  C   UNL     1       4.341   4.346  16.452  0.00  0.00    +0.000 A 
ATOM     16  C   UNL     1       3.397   4.856  17.365  0.00  0.00    +0.000 A 
ATOM     17 CL   UNL     1       2.032   3.826  17.661  0.00  0.00    +0.000 Cl
BRANCH  14  18
ATOM     18  C   UNL     1       6.463   4.534  15.092  0.00  0.00    +0.000 C 
ATOM     19  F   UNL     1       6.617   5.295  13.972  0.00  0.00    +0.000 F 
ATOM     20  F   UNL     1       7.703   4.425  15.641  0.00  0.00    +0.000 F 
ATOM     21  F   UNL     1       6.132   3.290  14.655  0.00  0.00    +0.000 F 
ENDBRANCH  14  18
ENDBRANCH   5  11
BRANCH   1  23
ATOM     22  O   UNL     1      -0.540  12.377  20.165  0.00  0.00    +0.000 OA
ATOM     23  S   UNL     1       0.583  12.387  19.247  0.00  0.00    +0.000 S 
ATOM     24  O   UNL     1       0.463  12.866  17.888  0.00  0.00    +0.000 OA
BRANCH  23  25
ATOM     25  N   UNL     1       1.899  13.196  19.964  0.00  0.00    +0.000 N 
ATOM     26  C   UNL     1       2.276  14.358  19.243  0.00  0.00    +0.000 A 
ATOM     27  C   UNL     1       1.693  15.578  19.483  0.00  0.00    +0.000 A 
ATOM     28  C   UNL     1       2.127  16.593  18.668  0.00  0.00    +0.000 A 
ATOM     29  N   UNL     1       3.045  16.421  17.698  0.00  0.00    +0.000 NA
ATOM     30  C   UNL     1       3.532  15.178  17.561  0.00  0.00    +0.000 A 
ATOM     31  N   UNL     1       3.201  14.116  18.309  0.00  0.00    +0.000 NA
ATOM     32  H   UNL     1       2.694  12.560  19.869  0.00  0.00    +0.000 HD
ENDBRANCH  23  25
ENDBRANCH   1  23
TORSDOF 4
ENDMDL
MODEL 9
REMARK VINA RESULT:      -8.5      1.960      2.288
REMARK  Name = 
REMARK  4 active torsions:
REMARK  status: ('A' for Active; 'I' for Inactive)
REMARK    1  A    between atoms: S_2  and  N_4
REMARK    2  A    between atoms: S_2  and  C_11
REMARK    3  A    between atoms: C_15  and  C_16
REMARK    4  A    between atoms: C_19  and  C_20
REMARK                            x       y       z     vdW  Elec       q    Type
REMARK                         _______ _______ _______ _____ _____    ______ ____
ROOT
ATOM      1  C   UNL     1       1.147  10.455  19.222  0.00  0.00    +0.000 A 
ATOM      2  C   UNL     1       1.815  10.101  18.057  0.00  0.00    +0.000 A 
ATOM      3  C   UNL     1       2.272   8.790  17.905  0.00  0.00    +0.000 A 
ATOM      4  C   UNL     1       2.137   7.810  18.926  0.00  0.00    +0.000 A 
ATOM      5  C   UNL     1       2.673   6.484  18.895  0.00  0.00    +0.000 A 
ATOM      6  N   UNL     1       2.450   5.603  19.906  0.00  0.00    +0.000 NA
ATOM      7  C   UNL     1       1.674   5.978  20.938  0.00  0.00    +0.000 A 
ATOM      8  C   UNL     1       1.151   7.246  21.077  0.00  0.00    +0.000 A 
ATOM      9  C   UNL     1       1.401   8.190  20.079  0.00  0.00    +0.000 A 
ATOM     10  C   UNL     1       0.918   9.504  20.220  0.00  0.00    +0.000 A 
ENDROOT
BRANCH   5  11
ATOM     11  C   UNL     1       3.600   5.962  17.844  0.00  0.00    +0.000 A 
ATOM     12  C   UNL     1       4.674   6.761  17.390  0.00  0.00    +0.000 A 
ATOM     13  C   UNL     1       5.568   6.341  16.399  0.00  0.00    +0.000 A 
ATOM     14  C   UNL     1       5.486   5.050  15.879  0.00  0.00    +0.000 A 
ATOM     15  C   UNL     1       4.464   4.213  16.344  0.00  0.00    +0.000 A 
ATOM     16  C   UNL     1       3.523   4.663  17.290  0.00  0.00    +0.000 A 
ATOM     17 CL   UNL     1       2.274   3.524  17.681  0.00  0.00    +0.000 Cl
BRANCH  14  18
ATOM     18  C   UNL     1       6.492   4.551  14.874  0.00  0.00    +0.000 C 
ATOM     19  F   UNL     1       6.101   3.408  14.242  0.00  0.00    +0.000 F 
ATOM     20  F   UNL     1       6.730   5.458  13.888  0.00  0.00    +0.000 F 
ATOM     21  F   UNL     1       7.700   4.272  15.433  0.00  0.00    +0.000 F 
ENDBRANCH  14  18
ENDBRANCH   5  11
BRANCH   1  23
ATOM     22  O   UNL     1       0.672  12.754  18.095  0.00  0.00    +0.000 OA
ATOM     23  S   UNL     1       0.504  12.107  19.382  0.00  0.00    +0.000 S 
ATOM     24  O   UNL     1       1.059  12.656  20.599  0.00  0.00    +0.000 OA
BRANCH  23  25
ATOM     25  N   UNL     1      -1.150  11.809  19.659  0.00  0.00    +0.000 N 
ATOM     26  C   UNL     1      -1.623  12.443  20.838  0.00  0.00    +0.000 A 
ATOM     27  C   UNL     1      -2.094  13.733  20.825  0.00  0.00    +0.000 A 
ATOM     28  C   UNL     1      -2.465  14.222  22.052  0.00  0.00    +0.000 A 
ATOM     29  N   UNL     1      -2.372  13.509  23.190  0.00  0.00    +0.000 NA
ATOM     30  C   UNL     1      -1.888  12.262  23.068  0.00  0.00    +0.000 A 
ATOM     31  N   UNL     1      -1.515  11.672  21.924  0.00  0.00    +0.000 NA
ATOM     32  H   UNL     1      -1.217  10.808  19.856  0.00  0.00    +0.000 HD
ENDBRANCH  23  25
ENDBRANCH   1  23
TORSDOF 4
ENDMDL
