MODEL 1
REMARK VINA RESULT:      -7.4      0.000      0.000
REMARK  Name = 
REMARK  6 active torsions:
REMARK  status: ('A' for Active; 'I' for Inactive)
REMARK    1  A    between atoms: N_5  and  C_6
REMARK    2  A    between atoms: C_6  and  C_7
REMARK    3  A    between atoms: N_9  and  C_10
REMARK    4  A    between atoms: N_13  and  C_14
REMARK    5  A    between atoms: C_20  and  C_21
REMARK    6  A    between atoms: C_22  and  C_23
REMARK                            x       y       z     vdW  Elec       q    Type
REMARK                         _______ _______ _______ _____ _____    ______ ____
ROOT
ATOM      1  C   UNL     1      -2.114  13.978  23.703  0.00  0.00    +0.000 C 
ATOM      2  C   UNL     1      -1.766  15.458  23.505  0.00  0.00    +0.000 C 
ATOM      3  O   UNL     1      -2.011  16.493  24.072  0.00  0.00    +0.000 OA
ATOM      4  N   UNL     1      -0.957  15.193  22.446  0.00  0.00    +0.000 N 
ATOM      5  C   UNL     1      -1.155  13.739  22.496  0.00  0.00    +0.000 C 
ENDROOT
BRANCH   4   6
ATOM      6  C   UNL     1       0.036  16.062  21.831  0.00  0.00    +0.000 C 
ATOM      7  C   UNL     1       1.418  15.420  21.590  0.00  0.00    +0.000 C 
ATOM      8  C   UNL     1       1.448  14.460  20.405  0.00  0.00    +0.000 C 
ATOM      9  C   UNL     1       0.925  15.102  19.124  0.00  0.00    +0.000 C 
ATOM     10  C   UNL     1      -0.404  15.824  19.321  0.00  0.00    +0.000 C 
ATOM     11  C   UNL     1      -0.434  16.745  20.540  0.00  0.00    +0.000 C 
ENDBRANCH   4   6
BRANCH   1  14
ATOM     12  C   UNL     1      -5.561  13.351  22.886  0.00  0.00    +0.000 A 
ATOM     13  C   UNL     1      -4.496  14.239  22.850  0.00  0.00    +0.000 A 
ATOM     14  N   UNL     1      -3.482  13.587  23.514  0.00  0.00    +0.000 N 
ATOM     15  N   UNL     1      -3.932  12.419  24.020  0.00  0.00    +0.000 NA
ATOM     16  N   UNL     1      -5.183  12.253  23.618  0.00  0.00    +0.000 NA
BRANCH  12  17
ATOM     17  C   UNL     1      -6.890  13.360  22.191  0.00  0.00    +0.000 C 
BRANCH  17  22
ATOM     18  O   UNL     1      -7.118   9.942  18.721  0.00  0.00    +0.000 OA
ATOM     19  C   UNL     1      -7.098  11.024  19.276  0.00  0.00    +0.000 C 
ATOM     20  C   UNL     1      -7.204  11.326  20.782  0.00  0.00    +0.000 C 
ATOM     21  O   UNL     1      -7.571  10.527  21.624  0.00  0.00    +0.000 OA
ATOM     22  N   UNL     1      -6.885  12.669  20.917  0.00  0.00    +0.000 N 
ATOM     23  C   UNL     1      -6.829  13.271  19.638  0.00  0.00    +0.000 A 
ATOM     24  C   UNL     1      -6.747  14.599  19.278  0.00  0.00    +0.000 A 
ATOM     25  C   UNL     1      -6.765  14.912  17.904  0.00  0.00    +0.000 A 
ATOM     26  C   UNL     1      -6.858  13.912  16.912  0.00  0.00    +0.000 A 
ATOM     27  C   UNL     1      -6.950  12.577  17.276  0.00  0.00    +0.000 A 
ATOM     28  C   UNL     1      -6.941  12.309  18.631  0.00  0.00    +0.000 A 
ENDBRANCH  17  22
ENDBRANCH  12  17
ENDBRANCH   1  14
BRANCH   5  29
ATOM     29  C   UNL     1      -1.677  13.208  21.209  0.00  0.00    +0.000 C 
ATOM     30  C   UNL     1      -1.434  11.941  20.837  0.00  0.00    +0.000 C 
BRANCH  30  31
ATOM     31  C   UNL     1      -1.754  11.400  19.503  0.00  0.00    +0.000 A 
ATOM     32  C   UNL     1      -2.920  11.840  18.859  0.00  0.00    +0.000 A 
ATOM     33  C   UNL     1      -3.249  11.386  17.578  0.00  0.00    +0.000 A 
ATOM     34  C   UNL     1      -2.408  10.495  16.916  0.00  0.00    +0.000 A 
ATOM     35  C   UNL     1      -1.245  10.051  17.540  0.00  0.00    +0.000 A 
ATOM     36  C   UNL     1      -0.921  10.499  18.823  0.00  0.00    +0.000 A 
ENDBRANCH  30  31
ENDBRANCH   5  29
TORSDOF 6
ENDMDL
MODEL 2
REMARK VINA RESULT:      -7.4      6.137      9.216
REMARK  Name = 
REMARK  6 active torsions:
REMARK  status: ('A' for Active; 'I' for Inactive)
REMARK    1  A    between atoms: N_5  and  C_6
REMARK    2  A    between atoms: C_6  and  C_7
REMARK    3  A    between atoms: N_9  and  C_10
REMARK    4  A    between atoms: N_13  and  C_14
REMARK    5  A    between atoms: C_20  and  C_21
REMARK    6  A    between atoms: C_22  and  C_23
REMARK                            x       y       z     vdW  Elec       q    Type
REMARK                         _______ _______ _______ _____ _____    ______ ____
ROOT
ATOM      1  C   UNL     1       1.041  10.354  21.165  0.00  0.00    +0.000 C 
ATOM      2  C   UNL     1       0.243  10.343  22.473  0.00  0.00    +0.000 C 
ATOM      3  O   UNL     1       0.419   9.943  23.596  0.00  0.00    +0.000 OA
ATOM      4  N   UNL     1      -0.776  11.062  21.932  0.00  0.00    +0.000 N 
ATOM      5  C   UNL     1      -0.151  11.196  20.612  0.00  0.00    +0.000 C 
ENDROOT
BRANCH   4   6
ATOM      6  C   UNL     1      -1.851  11.761  22.623  0.00  0.00    +0.000 C 
ATOM      7  C   UNL     1      -1.412  12.966  23.480  0.00  0.00    +0.000 C 
ATOM      8  C   UNL     1      -1.062  14.204  22.660  0.00  0.00    +0.000 C 
ATOM      9  C   UNL     1      -2.182  14.605  21.706  0.00  0.00    +0.000 C 
ATOM     10  C   UNL     1      -2.714  13.433  20.888  0.00  0.00    +0.000 C 
ATOM     11  C   UNL     1      -3.014  12.184  21.717  0.00  0.00    +0.000 C 
ENDBRANCH   4   6
BRANCH   1  14
ATOM     12  C   UNL     1       1.791   7.459  19.165  0.00  0.00    +0.000 A 
ATOM     13  C   UNL     1       1.512   8.817  19.193  0.00  0.00    +0.000 A 
ATOM     14  N   UNL     1       1.280   9.093  20.522  0.00  0.00    +0.000 N 
ATOM     15  N   UNL     1       1.306   7.954  21.246  0.00  0.00    +0.000 NA
ATOM     16  N   UNL     1       1.646   6.962  20.436  0.00  0.00    +0.000 NA
BRANCH  12  17
ATOM     17  C   UNL     1       2.310   6.571  18.074  0.00  0.00    +0.000 C 
BRANCH  17  22
ATOM     18  O   UNL     1       5.083   2.979  19.858  0.00  0.00    +0.000 OA
ATOM     19  C   UNL     1       4.730   3.972  19.250  0.00  0.00    +0.000 C 
ATOM     20  C   UNL     1       3.297   4.471  18.990  0.00  0.00    +0.000 C 
ATOM     21  O   UNL     1       2.292   3.804  19.150  0.00  0.00    +0.000 OA
ATOM     22  N   UNL     1       3.437   5.753  18.476  0.00  0.00    +0.000 N 
ATOM     23  C   UNL     1       4.797   5.994  18.174  0.00  0.00    +0.000 A 
ATOM     24  C   UNL     1       5.389   7.025  17.477  0.00  0.00    +0.000 A 
ATOM     25  C   UNL     1       6.784   6.974  17.281  0.00  0.00    +0.000 A 
ATOM     26  C   UNL     1       7.569   5.913  17.781  0.00  0.00    +0.000 A 
ATOM     27  C   UNL     1       6.971   4.872  18.476  0.00  0.00    +0.000 A 
ATOM     28  C   UNL     1       5.602   4.950  18.638  0.00  0.00    +0.000 A 
ENDBRANCH  17  22
ENDBRANCH  12  17
ENDBRANCH   1  14
BRANCH   5  29
ATOM     29  C   UNL     1      -1.019  10.657  19.531  0.00  0.00    +0.000 C 
ATOM     30  C   UNL     1      -1.241  11.361  18.410  0.00  0.00    +0.000 C 
BRANCH  30  31
ATOM     31  C   UNL     1      -2.231  10.983  17.384  0.00  0.00    +0.000 A 
ATOM     32  C   UNL     1      -3.489  11.605  17.399  0.00  0.00    +0.000 A 
ATOM     33  C   UNL     1      -4.450  11.308  16.427  0.00  0.00    +0.000 A 
ATOM     34  C   UNL     1      -4.161  10.393  15.417  0.00  0.00    +0.000 A 
ATOM     35  C   UNL     1      -2.917   9.769  15.387  0.00  0.00    +0.000 A 
ATOM     36  C   UNL     1      -1.960  10.061  16.363  0.00  0.00    +0.000 A 
ENDBRANCH  30  31
ENDBRANCH   5  29
TORSDOF 6
ENDMDL
MODEL 3
REMARK VINA RESULT:      -7.2      2.711      5.369
REMARK  Name = 
REMARK  6 active torsions:
REMARK  status: ('A' for Active; 'I' for Inactive)
REMARK    1  A    between atoms: N_5  and  C_6
REMARK    2  A    between atoms: C_6  and  C_7
REMARK    3  A    between atoms: N_9  and  C_10
REMARK    4  A    between atoms: N_13  and  C_14
REMARK    5  A    between atoms: C_20  and  C_21
REMARK    6  A    between atoms: C_22  and  C_23
REMARK                            x       y       z     vdW  Elec       q    Type
REMARK                         _______ _______ _______ _____ _____    ______ ____
ROOT
ATOM      1  C   UNL     1      -2.908  11.687  17.367  0.00  0.00    +0.000 C 
ATOM      2  C   UNL     1      -2.142  10.360  17.370  0.00  0.00    +0.000 C 
ATOM      3  O   UNL     1      -2.108   9.373  16.680  0.00  0.00    +0.000 OA
ATOM      4  N   UNL     1      -1.392  10.722  18.444  0.00  0.00    +0.000 N 
ATOM      5  C   UNL     1      -2.000  12.050  18.582  0.00  0.00    +0.000 C 
ENDROOT
BRANCH   4   6
ATOM      6  C   UNL     1      -0.163  10.112  18.931  0.00  0.00    +0.000 C 
ATOM      7  C   UNL     1       1.110  10.968  18.768  0.00  0.00    +0.000 C 
ATOM      8  C   UNL     1       1.213  12.108  19.777  0.00  0.00    +0.000 C 
ATOM      9  C   UNL     1       1.074  11.624  21.216  0.00  0.00    +0.000 C 
ATOM     10  C   UNL     1      -0.124  10.704  21.422  0.00  0.00    +0.000 C 
ATOM     11  C   UNL     1      -0.241   9.596  20.374  0.00  0.00    +0.000 C 
ENDBRANCH   4   6
BRANCH   1  14
ATOM     12  C   UNL     1      -6.325  11.438  18.465  0.00  0.00    +0.000 A 
ATOM     13  C   UNL     1      -5.001  11.089  18.684  0.00  0.00    +0.000 A 
ATOM     14  N   UNL     1      -4.320  11.639  17.621  0.00  0.00    +0.000 N 
ATOM     15  N   UNL     1      -5.188  12.194  16.749  0.00  0.00    +0.000 NA
ATOM     16  N   UNL     1      -6.404  12.104  17.267  0.00  0.00    +0.000 NA
BRANCH  12  17
ATOM     17  C   UNL     1      -7.543  11.320  19.333  0.00  0.00    +0.000 C 
BRANCH  17  22
ATOM     18  O   UNL     1      -7.628  12.530  24.056  0.00  0.00    +0.000 OA
ATOM     19  C   UNL     1      -7.395  12.553  22.862  0.00  0.00    +0.000 C 
ATOM     20  C   UNL     1      -7.630  11.441  21.823  0.00  0.00    +0.000 C 
ATOM     21  O   UNL     1      -7.861  10.278  22.094  0.00  0.00    +0.000 OA
ATOM     22  N   UNL     1      -7.436  12.040  20.586  0.00  0.00    +0.000 N 
ATOM     23  C   UNL     1      -6.879  13.328  20.767  0.00  0.00    +0.000 A 
ATOM     24  C   UNL     1      -6.339  14.205  19.852  0.00  0.00    +0.000 A 
ATOM     25  C   UNL     1      -5.799  15.414  20.336  0.00  0.00    +0.000 A 
ATOM     26  C   UNL     1      -5.808  15.737  21.710  0.00  0.00    +0.000 A 
ATOM     27  C   UNL     1      -6.344  14.850  22.631  0.00  0.00    +0.000 A 
ATOM     28  C   UNL     1      -6.853  13.671  22.122  0.00  0.00    +0.000 A 
ENDBRANCH  17  22
ENDBRANCH  12  17
ENDBRANCH   1  14
BRANCH   5  29
ATOM     29  C   UNL     1      -2.589  12.251  19.933  0.00  0.00    +0.000 C 
ATOM     30  C   UNL     1      -2.311  13.353  20.649  0.00  0.00    +0.000 C 
BRANCH  30  31
ATOM     31  C   UNL     1      -2.702  13.536  22.059  0.00  0.00    +0.000 A 
ATOM     32  C   UNL     1      -2.434  14.766  22.679  0.00  0.00    +0.000 A 
ATOM     33  C   UNL     1      -2.817  15.002  24.003  0.00  0.00    +0.000 A 
ATOM     34  C   UNL     1      -3.486  14.015  24.723  0.00  0.00    +0.000 A 
ATOM     35  C   UNL     1      -3.762  12.791  24.122  0.00  0.00    +0.000 A 
ATOM     36  C   UNL     1      -3.372  12.552  22.801  0.00  0.00    +0.000 A 
ENDBRANCH  30  31
ENDBRANCH   5  29
TORSDOF 6
ENDMDL
MODEL 4
REMARK VINA RESULT:      -6.9      6.088      9.026
REMARK  Name = 
REMARK  6 active torsions:
REMARK  status: ('A' for Active; 'I' for Inactive)
REMARK    1  A    between atoms: N_5  and  C_6
REMARK    2  A    between atoms: C_6  and  C_7
REMARK    3  A    between atoms: N_9  and  C_10
REMARK    4  A    between atoms: N_13  and  C_14
REMARK    5  A    between atoms: C_20  and  C_21
REMARK    6  A    between atoms: C_22  and  C_23
REMARK                            x       y       z     vdW  Elec       q    Type
REMARK                         _______ _______ _______ _____ _____    ______ ____
ROOT
ATOM      1  C   UNL     1       1.053  10.474  21.049  0.00  0.00    +0.000 C 
ATOM      2  C   UNL     1       0.297  10.377  22.378  0.00  0.00    +0.000 C 
ATOM      3  O   UNL     1       0.521   9.937  23.477  0.00  0.00    +0.000 OA
ATOM      4  N   UNL     1      -0.764  11.079  21.899  0.00  0.00    +0.000 N 
ATOM      5  C   UNL     1      -0.185  11.293  20.568  0.00  0.00    +0.000 C 
ENDROOT
BRANCH   4   6
ATOM      6  C   UNL     1      -1.841  11.708  22.650  0.00  0.00    +0.000 C 
ATOM      7  C   UNL     1      -1.425  12.908  23.525  0.00  0.00    +0.000 C 
ATOM      8  C   UNL     1      -1.165  14.183  22.729  0.00  0.00    +0.000 C 
ATOM      9  C   UNL     1      -2.340  14.557  21.831  0.00  0.00    +0.000 C 
ATOM     10  C   UNL     1      -2.849  13.385  21.000  0.00  0.00    +0.000 C 
ATOM     11  C   UNL     1      -3.058  12.101  21.803  0.00  0.00    +0.000 C 
ENDBRANCH   4   6
BRANCH   1  14
ATOM     12  C   UNL     1       1.856   7.697  18.907  0.00  0.00    +0.000 A 
ATOM     13  C   UNL     1       1.543   9.044  19.002  0.00  0.00    +0.000 A 
ATOM     14  N   UNL     1       1.318   9.251  20.345  0.00  0.00    +0.000 N 
ATOM     15  N   UNL     1       1.381   8.080  21.014  0.00  0.00    +0.000 NA
ATOM     16  N   UNL     1       1.738   7.137  20.155  0.00  0.00    +0.000 NA
BRANCH  12  17
ATOM     17  C   UNL     1       2.387   6.875  17.770  0.00  0.00    +0.000 C 
BRANCH  17  22
ATOM     18  O   UNL     1       5.841   3.754  19.223  0.00  0.00    +0.000 OA
ATOM     19  C   UNL     1       4.752   4.243  18.982  0.00  0.00    +0.000 C 
ATOM     20  C   UNL     1       4.423   5.697  18.600  0.00  0.00    +0.000 C 
ATOM     21  O   UNL     1       5.188   6.635  18.724  0.00  0.00    +0.000 OA
ATOM     22  N   UNL     1       3.096   5.684  18.194  0.00  0.00    +0.000 N 
ATOM     23  C   UNL     1       2.517   4.433  18.512  0.00  0.00    +0.000 A 
ATOM     24  C   UNL     1       1.202   4.024  18.484  0.00  0.00    +0.000 A 
ATOM     25  C   UNL     1       0.909   2.715  18.915  0.00  0.00    +0.000 A 
ATOM     26  C   UNL     1       1.918   1.832  19.358  0.00  0.00    +0.000 A 
ATOM     27  C   UNL     1       3.240   2.248  19.393  0.00  0.00    +0.000 A 
ATOM     28  C   UNL     1       3.488   3.541  18.975  0.00  0.00    +0.000 A 
ENDBRANCH  17  22
ENDBRANCH  12  17
ENDBRANCH   1  14
BRANCH   5  29
ATOM     29  C   UNL     1      -1.066  10.768  19.491  0.00  0.00    +0.000 C 
ATOM     30  C   UNL     1      -1.294  11.484  18.378  0.00  0.00    +0.000 C 
BRANCH  30  31
ATOM     31  C   UNL     1      -2.295  11.120  17.358  0.00  0.00    +0.000 A 
ATOM     32  C   UNL     1      -1.957  10.159  16.393  0.00  0.00    +0.000 A 
ATOM     33  C   UNL     1      -2.883   9.752  15.428  0.00  0.00    +0.000 A 
ATOM     34  C   UNL     1      -4.167  10.292  15.422  0.00  0.00    +0.000 A 
ATOM     35  C   UNL     1      -4.520  11.244  16.373  0.00  0.00    +0.000 A 
ATOM     36  C   UNL     1      -3.591  11.655  17.334  0.00  0.00    +0.000 A 
ENDBRANCH  30  31
ENDBRANCH   5  29
TORSDOF 6
ENDMDL
MODEL 5
REMARK VINA RESULT:      -6.7      7.496     11.520
REMARK  Name = 
REMARK  6 active torsions:
REMARK  status: ('A' for Active; 'I' for Inactive)
REMARK    1  A    between atoms: N_5  and  C_6
REMARK    2  A    between atoms: C_6  and  C_7
REMARK    3  A    between atoms: N_9  and  C_10
REMARK    4  A    between atoms: N_13  and  C_14
REMARK    5  A    between atoms: C_20  and  C_21
REMARK    6  A    between atoms: C_22  and  C_23
REMARK                            x       y       z     vdW  Elec       q    Type
REMARK                         _______ _______ _______ _____ _____    ______ ____
ROOT
ATOM      1  C   UNL     1       7.920  14.924  17.810  0.00  0.00    +0.000 C 
ATOM      2  C   UNL     1       7.774  13.418  17.562  0.00  0.00    +0.000 C 
ATOM      3  O   UNL     1       7.090  12.714  16.865  0.00  0.00    +0.000 OA
ATOM      4  N   UNL     1       8.809  13.116  18.391  0.00  0.00    +0.000 N 
ATOM      5  C   UNL     1       9.112  14.512  18.729  0.00  0.00    +0.000 C 
ENDROOT
BRANCH   4   6
ATOM      6  C   UNL     1       9.543  11.864  18.495  0.00  0.00    +0.000 C 
ATOM      7  C   UNL     1      10.961  11.875  17.887  0.00  0.00    +0.000 C 
ATOM      8  C   UNL     1      11.987  12.610  18.744  0.00  0.00    +0.000 C 
ATOM      9  C   UNL     1      12.024  12.091  20.177  0.00  0.00    +0.000 C 
ATOM     10  C   UNL     1      10.639  11.980  20.805  0.00  0.00    +0.000 C 
ATOM     11  C   UNL     1       9.609  11.285  19.914  0.00  0.00    +0.000 C 
ENDBRANCH   4   6
BRANCH   1  14
ATOM     12  C   UNL     1       5.072  16.180  19.613  0.00  0.00    +0.000 A 
ATOM     13  C   UNL     1       5.722  15.077  19.082  0.00  0.00    +0.000 A 
ATOM     14  N   UNL     1       6.828  15.600  18.452  0.00  0.00    +0.000 N 
ATOM     15  N   UNL     1       6.797  16.949  18.499  0.00  0.00    +0.000 NA
ATOM     16  N   UNL     1       5.752  17.309  19.228  0.00  0.00    +0.000 NA
BRANCH  12  17
ATOM     17  C   UNL     1       3.921  16.294  20.568  0.00  0.00    +0.000 C 
BRANCH  17  22
ATOM     18  O   UNL     1      -0.322  16.975  18.262  0.00  0.00    +0.000 OA
ATOM     19  C   UNL     1       0.652  16.436  18.754  0.00  0.00    +0.000 C 
ATOM     20  C   UNL     1       1.948  17.090  19.265  0.00  0.00    +0.000 C 
ATOM     21  O   UNL     1       2.289  18.233  19.022  0.00  0.00    +0.000 OA
ATOM     22  N   UNL     1       2.627  16.090  19.947  0.00  0.00    +0.000 N 
ATOM     23  C   UNL     1       2.001  14.845  19.705  0.00  0.00    +0.000 A 
ATOM     24  C   UNL     1       2.416  13.564  19.997  0.00  0.00    +0.000 A 
ATOM     25  C   UNL     1       1.599  12.494  19.580  0.00  0.00    +0.000 A 
ATOM     26  C   UNL     1       0.386  12.708  18.890  0.00  0.00    +0.000 A 
ATOM     27  C   UNL     1      -0.027  13.997  18.589  0.00  0.00    +0.000 A 
ATOM     28  C   UNL     1       0.805  15.019  19.003  0.00  0.00    +0.000 A 
ENDBRANCH  17  22
ENDBRANCH  12  17
ENDBRANCH   1  14
BRANCH   5  29
ATOM     29  C   UNL     1       9.053  14.750  20.196  0.00  0.00    +0.000 C 
ATOM     30  C   UNL     1       9.898  15.608  20.789  0.00  0.00    +0.000 C 
BRANCH  30  31
ATOM     31  C   UNL     1      10.027  15.756  22.251  0.00  0.00    +0.000 A 
ATOM     32  C   UNL     1      11.098  16.506  22.761  0.00  0.00    +0.000 A 
ATOM     33  C   UNL     1      11.244  16.708  24.137  0.00  0.00    +0.000 A 
ATOM     34  C   UNL     1      10.312  16.171  25.023  0.00  0.00    +0.000 A 
ATOM     35  C   UNL     1       9.243  15.427  24.533  0.00  0.00    +0.000 A 
ATOM     36  C   UNL     1       9.102  15.220  23.158  0.00  0.00    +0.000 A 
ENDBRANCH  30  31
ENDBRANCH   5  29
TORSDOF 6
ENDMDL
MODEL 6
REMARK VINA RESULT:      -6.6      2.229      2.994
REMARK  Name = 
REMARK  6 active torsions:
REMARK  status: ('A' for Active; 'I' for Inactive)
REMARK    1  A    between atoms: N_5  and  C_6
REMARK    2  A    between atoms: C_6  and  C_7
REMARK    3  A    between atoms: N_9  and  C_10
REMARK    4  A    between atoms: N_13  and  C_14
REMARK    5  A    between atoms: C_20  and  C_21
REMARK    6  A    between atoms: C_22  and  C_23
REMARK                            x       y       z     vdW  Elec       q    Type
REMARK                         _______ _______ _______ _____ _____    ______ ____
ROOT
ATOM      1  C   UNL     1      -1.625  12.728  23.218  0.00  0.00    +0.000 C 
ATOM      2  C   UNL     1      -0.849  14.046  23.131  0.00  0.00    +0.000 C 
ATOM      3  O   UNL     1      -0.610  14.966  23.872  0.00  0.00    +0.000 OA
ATOM      4  N   UNL     1      -0.413  13.781  21.871  0.00  0.00    +0.000 N 
ATOM      5  C   UNL     1      -1.072  12.473  21.781  0.00  0.00    +0.000 C 
ENDROOT
BRANCH   4   6
ATOM      6  C   UNL     1       0.665  14.427  21.136  0.00  0.00    +0.000 C 
ATOM      7  C   UNL     1       1.845  13.512  20.751  0.00  0.00    +0.000 C 
ATOM      8  C   UNL     1       1.538  12.578  19.584  0.00  0.00    +0.000 C 
ATOM      9  C   UNL     1       1.021  13.328  18.361  0.00  0.00    +0.000 C 
ATOM     10  C   UNL     1      -0.095  14.312  18.695  0.00  0.00    +0.000 C 
ATOM     11  C   UNL     1       0.207  15.207  19.896  0.00  0.00    +0.000 C 
ENDBRANCH   4   6
BRANCH   1  14
ATOM     12  C   UNL     1      -5.189  13.216  23.140  0.00  0.00    +0.000 A 
ATOM     13  C   UNL     1      -3.939  13.678  22.756  0.00  0.00    +0.000 A 
ATOM     14  N   UNL     1      -3.053  12.804  23.344  0.00  0.00    +0.000 N 
ATOM     15  N   UNL     1      -3.715  11.928  24.130  0.00  0.00    +0.000 NA
ATOM     16  N   UNL     1      -5.013  12.150  23.988  0.00  0.00    +0.000 NA
BRANCH  12  17
ATOM     17  C   UNL     1      -6.570  13.592  22.695  0.00  0.00    +0.000 C 
BRANCH  17  22
ATOM     18  O   UNL     1      -6.562  18.330  21.537  0.00  0.00    +0.000 OA
ATOM     19  C   UNL     1      -6.520  17.117  21.442  0.00  0.00    +0.000 C 
ATOM     20  C   UNL     1      -6.378  16.076  22.568  0.00  0.00    +0.000 C 
ATOM     21  O   UNL     1      -6.039  16.332  23.708  0.00  0.00    +0.000 OA
ATOM     22  N   UNL     1      -6.627  14.848  21.973  0.00  0.00    +0.000 N 
ATOM     23  C   UNL     1      -6.671  15.004  20.568  0.00  0.00    +0.000 A 
ATOM     24  C   UNL     1      -6.692  14.060  19.563  0.00  0.00    +0.000 A 
ATOM     25  C   UNL     1      -6.677  14.515  18.230  0.00  0.00    +0.000 A 
ATOM     26  C   UNL     1      -6.648  15.890  17.911  0.00  0.00    +0.000 A 
ATOM     27  C   UNL     1      -6.618  16.838  18.922  0.00  0.00    +0.000 A 
ATOM     28  C   UNL     1      -6.622  16.356  20.217  0.00  0.00    +0.000 A 
ENDBRANCH  17  22
ENDBRANCH  12  17
ENDBRANCH   1  14
BRANCH   5  29
ATOM     29  C   UNL     1      -1.996  12.399  20.618  0.00  0.00    +0.000 C 
ATOM     30  C   UNL     1      -1.925  11.380  19.746  0.00  0.00    +0.000 C 
BRANCH  30  31
ATOM     31  C   UNL     1      -2.673  11.334  18.475  0.00  0.00    +0.000 A 
ATOM     32  C   UNL     1      -1.994  10.957  17.306  0.00  0.00    +0.000 A 
ATOM     33  C   UNL     1      -2.665  10.861  16.083  0.00  0.00    +0.000 A 
ATOM     34  C   UNL     1      -4.030  11.129  16.014  0.00  0.00    +0.000 A 
ATOM     35  C   UNL     1      -4.719  11.501  17.165  0.00  0.00    +0.000 A 
ATOM     36  C   UNL     1      -4.046  11.604  18.385  0.00  0.00    +0.000 A 
ENDBRANCH  30  31
ENDBRANCH   5  29
TORSDOF 6
ENDMDL
MODEL 7
REMARK VINA RESULT:      -6.4      5.595      8.602
REMARK  Name = 
REMARK  6 active torsions:
REMARK  status: ('A' for Active; 'I' for Inactive)
REMARK    1  A    between atoms: N_5  and  C_6
REMARK    2  A    between atoms: C_6  and  C_7
REMARK    3  A    between atoms: N_9  and  C_10
REMARK    4  A    between atoms: N_13  and  C_14
REMARK    5  A    between atoms: C_20  and  C_21
REMARK    6  A    between atoms: C_22  and  C_23
REMARK                            x       y       z     vdW  Elec       q    Type
REMARK                         _______ _______ _______ _____ _____    ______ ____
ROOT
ATOM      1  C   UNL     1       1.160  11.395  20.704  0.00  0.00    +0.000 C 
ATOM      2  C   UNL     1       0.336  10.942  21.914  0.00  0.00    +0.000 C 
ATOM      3  O   UNL     1       0.496  10.192  22.844  0.00  0.00    +0.000 OA
ATOM      4  N   UNL     1      -0.682  11.792  21.621  0.00  0.00    +0.000 N 
ATOM      5  C   UNL     1      -0.033  12.364  20.435  0.00  0.00    +0.000 C 
ENDROOT
BRANCH   4   6
ATOM      6  C   UNL     1      -1.780  12.213  22.479  0.00  0.00    +0.000 C 
ATOM      7  C   UNL     1      -1.464  13.385  23.430  0.00  0.00    +0.000 C 
ATOM      8  C   UNL     1      -1.418  14.742  22.735  0.00  0.00    +0.000 C 
ATOM      9  C   UNL     1      -2.685  15.028  21.935  0.00  0.00    +0.000 C 
ATOM     10  C   UNL     1      -3.094  13.868  21.034  0.00  0.00    +0.000 C 
ATOM     11  C   UNL     1      -3.089  12.509  21.733  0.00  0.00    +0.000 C 
ENDBRANCH   4   6
BRANCH   1  14
ATOM     12  C   UNL     1       1.602   8.637  18.437  0.00  0.00    +0.000 A 
ATOM     13  C   UNL     1       1.336   9.050  19.733  0.00  0.00    +0.000 A 
ATOM     14  N   UNL     1       1.431  10.422  19.683  0.00  0.00    +0.000 N 
ATOM     15  N   UNL     1       1.838  10.817  18.458  0.00  0.00    +0.000 NA
ATOM     16  N   UNL     1       1.915   9.743  17.686  0.00  0.00    +0.000 NA
BRANCH  12  17
ATOM     17  C   UNL     1       1.475   7.299  17.772  0.00  0.00    +0.000 C 
BRANCH  17  22
ATOM     18  O   UNL     1       5.649   4.875  18.470  0.00  0.00    +0.000 OA
ATOM     19  C   UNL     1       4.501   5.260  18.597  0.00  0.00    +0.000 C 
ATOM     20  C   UNL     1       3.824   6.475  17.937  0.00  0.00    +0.000 C 
ATOM     21  O   UNL     1       4.417   7.377  17.376  0.00  0.00    +0.000 OA
ATOM     22  N   UNL     1       2.470   6.337  18.205  0.00  0.00    +0.000 N 
ATOM     23  C   UNL     1       2.278   5.304  19.152  0.00  0.00    +0.000 A 
ATOM     24  C   UNL     1       1.155   4.939  19.862  0.00  0.00    +0.000 A 
ATOM     25  C   UNL     1       1.276   3.888  20.793  0.00  0.00    +0.000 A 
ATOM     26  C   UNL     1       2.498   3.214  21.003  0.00  0.00    +0.000 A 
ATOM     27  C   UNL     1       3.630   3.588  20.295  0.00  0.00    +0.000 A 
ATOM     28  C   UNL     1       3.477   4.629  19.399  0.00  0.00    +0.000 A 
ENDBRANCH  17  22
ENDBRANCH  12  17
ENDBRANCH   1  14
BRANCH   5  29
ATOM     29  C   UNL     1      -0.871  12.210  19.217  0.00  0.00    +0.000 C 
ATOM     30  C   UNL     1      -1.681  11.149  19.067  0.00  0.00    +0.000 C 
BRANCH  30  31
ATOM     31  C   UNL     1      -2.396  10.831  17.817  0.00  0.00    +0.000 A 
ATOM     32  C   UNL     1      -3.608  11.485  17.547  0.00  0.00    +0.000 A 
ATOM     33  C   UNL     1      -4.305  11.246  16.359  0.00  0.00    +0.000 A 
ATOM     34  C   UNL     1      -3.792  10.358  15.416  0.00  0.00    +0.000 A 
ATOM     35  C   UNL     1      -2.590   9.703  15.667  0.00  0.00    +0.000 A 
ATOM     36  C   UNL     1      -1.898   9.937  16.858  0.00  0.00    +0.000 A 
ENDBRANCH  30  31
ENDBRANCH   5  29
TORSDOF 6
ENDMDL
MODEL 8
REMARK VINA RESULT:      -6.3      2.588      5.931
REMARK  Name = 
REMARK  6 active torsions:
REMARK  status: ('A' for Active; 'I' for Inactive)
REMARK    1  A    between atoms: N_5  and  C_6
REMARK    2  A    between atoms: C_6  and  C_7
REMARK    3  A    between atoms: N_9  and  C_10
REMARK    4  A    between atoms: N_13  and  C_14
REMARK    5  A    between atoms: C_20  and  C_21
REMARK    6  A    between atoms: C_22  and  C_23
REMARK                            x       y       z     vdW  Elec       q    Type
REMARK                         _______ _______ _______ _____ _____    ______ ____
ROOT
ATOM      1  C   UNL     1      -1.866  16.608  21.634  0.00  0.00    +0.000 C 
ATOM      2  C   UNL     1      -1.704  16.151  23.088  0.00  0.00    +0.000 C 
ATOM      3  O   UNL     1      -0.839  16.206  23.926  0.00  0.00    +0.000 OA
ATOM      4  N   UNL     1      -2.984  15.702  23.158  0.00  0.00    +0.000 N 
ATOM      5  C   UNL     1      -3.331  16.094  21.786  0.00  0.00    +0.000 C 
ENDROOT
BRANCH   4   6
ATOM      6  C   UNL     1      -3.758  15.367  24.344  0.00  0.00    +0.000 C 
ATOM      7  C   UNL     1      -5.077  16.147  24.516  0.00  0.00    +0.000 C 
ATOM      8  C   UNL     1      -6.193  15.672  23.590  0.00  0.00    +0.000 C 
ATOM      9  C   UNL     1      -6.440  14.172  23.701  0.00  0.00    +0.000 C 
ATOM     10  C   UNL     1      -5.158  13.350  23.621  0.00  0.00    +0.000 C 
ATOM     11  C   UNL     1      -4.034  13.867  24.518  0.00  0.00    +0.000 C 
ENDBRANCH   4   6
BRANCH   1  14
ATOM     12  C   UNL     1       0.190  14.603  19.467  0.00  0.00    +0.000 A 
ATOM     13  C   UNL     1      -0.227  14.869  20.762  0.00  0.00    +0.000 A 
ATOM     14  N   UNL     1      -1.064  15.954  20.639  0.00  0.00    +0.000 N 
ATOM     15  N   UNL     1      -1.071  16.394  19.362  0.00  0.00    +0.000 NA
ATOM     16  N   UNL     1      -0.338  15.563  18.638  0.00  0.00    +0.000 NA
BRANCH  12  17
ATOM     17  C   UNL     1       0.950  13.451  18.881  0.00  0.00    +0.000 C 
BRANCH  17  22
ATOM     18  O   UNL     1      -0.215   9.131  20.820  0.00  0.00    +0.000 OA
ATOM     19  C   UNL     1      -0.258  10.146  20.150  0.00  0.00    +0.000 C 
ATOM     20  C   UNL     1       0.614  11.408  20.273  0.00  0.00    +0.000 C 
ATOM     21  O   UNL     1       1.320  11.671  21.229  0.00  0.00    +0.000 OA
ATOM     22  N   UNL     1       0.342  12.161  19.139  0.00  0.00    +0.000 N 
ATOM     23  C   UNL     1      -0.771  11.610  18.463  0.00  0.00    +0.000 A 
ATOM     24  C   UNL     1      -1.522  12.110  17.421  0.00  0.00    +0.000 A 
ATOM     25  C   UNL     1      -2.627  11.354  16.981  0.00  0.00    +0.000 A 
ATOM     26  C   UNL     1      -2.966  10.117  17.571  0.00  0.00    +0.000 A 
ATOM     27  C   UNL     1      -2.216   9.619  18.624  0.00  0.00    +0.000 A 
ATOM     28  C   UNL     1      -1.148  10.392  19.037  0.00  0.00    +0.000 A 
ENDBRANCH  17  22
ENDBRANCH  12  17
ENDBRANCH   1  14
BRANCH   5  29
ATOM     29  C   UNL     1      -3.813  14.937  20.986  0.00  0.00    +0.000 C 
ATOM     30  C   UNL     1      -5.014  14.968  20.384  0.00  0.00    +0.000 C 
BRANCH  30  31
ATOM     31  C   UNL     1      -5.638  13.799  19.736  0.00  0.00    +0.000 A 
ATOM     32  C   UNL     1      -6.656  14.014  18.794  0.00  0.00    +0.000 A 
ATOM     33  C   UNL     1      -7.254  12.942  18.125  0.00  0.00    +0.000 A 
ATOM     34  C   UNL     1      -6.833  11.639  18.379  0.00  0.00    +0.000 A 
ATOM     35  C   UNL     1      -5.823  11.409  19.308  0.00  0.00    +0.000 A 
ATOM     36  C   UNL     1      -5.230  12.480  19.982  0.00  0.00    +0.000 A 
ENDBRANCH  30  31
ENDBRANCH   5  29
TORSDOF 6
ENDMDL
MODEL 9
REMARK VINA RESULT:      -6.2      6.060      9.090
REMARK  Name = 
REMARK  6 active torsions:
REMARK  status: ('A' for Active; 'I' for Inactive)
REMARK    1  A    between atoms: N_5  and  C_6
REMARK    2  A    between atoms: C_6  and  C_7
REMARK    3  A    between atoms: N_9  and  C_10
REMARK    4  A    between atoms: N_13  and  C_14
REMARK    5  A    between atoms: C_20  and  C_21
REMARK    6  A    between atoms: C_22  and  C_23
REMARK                            x       y       z     vdW  Elec       q    Type
REMARK                         _______ _______ _______ _____ _____    ______ ____
ROOT
ATOM      1  C   UNL     1       1.336  10.865  20.165  0.00  0.00    +0.000 C 
ATOM      2  C   UNL     1       0.759  10.540  21.547  0.00  0.00    +0.000 C 
ATOM      3  O   UNL     1       1.163  10.031  22.561  0.00  0.00    +0.000 OA
ATOM      4  N   UNL     1      -0.429  11.137  21.262  0.00  0.00    +0.000 N 
ATOM      5  C   UNL     1      -0.041  11.553  19.909  0.00  0.00    +0.000 C 
ENDROOT
BRANCH   4   6
ATOM      6  C   UNL     1      -1.479  11.541  22.186  0.00  0.00    +0.000 C 
ATOM      7  C   UNL     1      -1.058  12.567  23.258  0.00  0.00    +0.000 C 
ATOM      8  C   UNL     1      -0.912  13.987  22.721  0.00  0.00    +0.000 C 
ATOM      9  C   UNL     1      -2.162  14.461  21.987  0.00  0.00    +0.000 C 
ATOM     10  C   UNL     1      -2.674  13.448  20.969  0.00  0.00    +0.000 C 
ATOM     11  C   UNL     1      -2.768  12.021  21.508  0.00  0.00    +0.000 C 
ENDBRANCH   4   6
BRANCH   1  14
ATOM     12  C   UNL     1       1.881   7.827  18.317  0.00  0.00    +0.000 A 
ATOM     13  C   UNL     1       1.510   8.411  19.518  0.00  0.00    +0.000 A 
ATOM     14  N   UNL     1       1.664   9.762  19.306  0.00  0.00    +0.000 N 
ATOM     15  N   UNL     1       2.202   9.985  18.088  0.00  0.00    +0.000 NA
ATOM     16  N   UNL     1       2.308   8.819  17.468  0.00  0.00    +0.000 NA
BRANCH  12  17
ATOM     17  C   UNL     1       1.765   6.419  17.815  0.00  0.00    +0.000 C 
BRANCH  17  22
ATOM     18  O   UNL     1       5.816   4.087  19.208  0.00  0.00    +0.000 OA
ATOM     19  C   UNL     1       4.662   4.471  19.161  0.00  0.00    +0.000 C 
ATOM     20  C   UNL     1       4.074   5.628  18.333  0.00  0.00    +0.000 C 
ATOM     21  O   UNL     1       4.733   6.490  17.783  0.00  0.00    +0.000 OA
ATOM     22  N   UNL     1       2.696   5.500  18.440  0.00  0.00    +0.000 N 
ATOM     23  C   UNL     1       2.387   4.539  19.431  0.00  0.00    +0.000 A 
ATOM     24  C   UNL     1       1.183   4.219  20.021  0.00  0.00    +0.000 A 
ATOM     25  C   UNL     1       1.186   3.242  21.037  0.00  0.00    +0.000 A 
ATOM     26  C   UNL     1       2.371   2.596  21.447  0.00  0.00    +0.000 A 
ATOM     27  C   UNL     1       3.583   2.924  20.858  0.00  0.00    +0.000 A 
ATOM     28  C   UNL     1       3.544   3.894  19.875  0.00  0.00    +0.000 A 
ENDBRANCH  17  22
ENDBRANCH  12  17
ENDBRANCH   1  14
BRANCH   5  29
ATOM     29  C   UNL     1      -0.971  11.021  18.879  0.00  0.00    +0.000 C 
ATOM     30  C   UNL     1      -1.504  11.830  17.949  0.00  0.00    +0.000 C 
BRANCH  30  31
ATOM     31  C   UNL     1      -2.572  11.420  17.018  0.00  0.00    +0.000 A 
ATOM     32  C   UNL     1      -2.218  10.740  15.842  0.00  0.00    +0.000 A 
ATOM     33  C   UNL     1      -3.196  10.297  14.946  0.00  0.00    +0.000 A 
ATOM     34  C   UNL     1      -4.544  10.517  15.219  0.00  0.00    +0.000 A 
ATOM     35  C   UNL     1      -4.912  11.187  16.382  0.00  0.00    +0.000 A 
ATOM     36  C   UNL     1      -3.934  11.635  17.274  0.00  0.00    +0.000 A 
ENDBRANCH  30  31
ENDBRANCH   5  29
TORSDOF 6
ENDMDL
