MODEL 1
REMARK VINA RESULT:      -8.6      0.000      0.000
REMARK  Name = 
REMARK  5 active torsions:
REMARK  status: ('A' for Active; 'I' for Inactive)
REMARK    1  A    between atoms: C_1  and  C_2
REMARK    2  A    between atoms: C_6  and  N_7
REMARK    3  A    between atoms: C_12  and  N_13
REMARK    4  A    between atoms: C_24  and  C_25
REMARK    5  A    between atoms: C_25  and  O_27
REMARK                            x       y       z     vdW  Elec       q    Type
REMARK                         _______ _______ _______ _____ _____    ______ ____
ROOT
ATOM      1  C   UNL     1      -1.024  10.137  22.849  0.00  0.00    +0.000 C 
ATOM      2  C   UNL     1       0.476  10.245  22.543  0.00  0.00    +0.000 C 
ATOM      3  C   UNL     1       1.183   8.912  22.797  0.00  0.00    +0.000 C 
ATOM      4  O   UNL     1       1.310   8.035  21.685  0.00  0.00    +0.000 OA
ATOM      5  C   UNL     1       1.518   8.602  20.450  0.00  0.00    +0.000 A 
ATOM      6  C   UNL     1       1.994   7.746  19.413  0.00  0.00    +0.000 A 
ATOM      7  C   UNL     1       2.073   8.314  18.123  0.00  0.00    +0.000 A 
ATOM      8  F   UNL     1       2.510   7.593  17.080  0.00  0.00    +0.000 F 
ATOM      9  C   UNL     1       1.713   9.627  17.852  0.00  0.00    +0.000 A 
ATOM     10  C   UNL     1       1.260  10.443  18.885  0.00  0.00    +0.000 A 
ATOM     11  C   UNL     1       0.852  11.811  18.591  0.00  0.00    +0.000 A 
ATOM     12  C   UNL     1       0.437  12.624  19.574  0.00  0.00    +0.000 A 
ATOM     13  C   UNL     1       0.387  12.127  20.974  0.00  0.00    +0.000 A 
ATOM     14  O   UNL     1       0.037  12.909  21.854  0.00  0.00    +0.000 OA
ATOM     15  N   UNL     1       0.705  10.798  21.210  0.00  0.00    +0.000 N 
ATOM     16  C   UNL     1       1.168   9.937  20.189  0.00  0.00    +0.000 A 
ENDROOT
BRANCH   6  17
ATOM     17  N   UNL     1       2.384   6.436  19.644  0.00  0.00    +0.000 N 
ATOM     18  C   UNL     1       1.560   5.435  20.324  0.00  0.00    +0.000 C 
ATOM     19  C   UNL     1       2.579   4.402  20.793  0.00  0.00    +0.000 C 
ATOM     20  C   UNL     1       3.678   4.447  19.723  0.00  0.00    +0.000 C 
ATOM     21  C   UNL     1       3.760   5.956  19.447  0.00  0.00    +0.000 C 
ATOM     22  C   UNL     1       3.438   3.576  18.461  0.00  0.00    +0.000 C 
ATOM     23  C   UNL     1       2.870   2.196  18.828  0.00  0.00    +0.000 C 
ATOM     24  C   UNL     1       1.661   2.269  19.757  0.00  0.00    +0.000 C 
ATOM     25  C   UNL     1       2.005   3.028  21.024  0.00  0.00    +0.000 C 
ATOM     26  F   UNL     1       0.915   3.112  21.826  0.00  0.00    +0.000 F 
ATOM     27  F   UNL     1       2.926   2.297  21.715  0.00  0.00    +0.000 F 
BRANCH  22  28
ATOM     28  N   UNL     1       2.610   4.194  17.432  0.00  0.00    +0.000 NA
ATOM     29  H   UNL     1       1.831   4.728  17.810  0.00  0.00    +0.000 HD
ATOM     30  H   UNL     1       2.234   3.504  16.784  0.00  0.00    +0.000 HD
ENDBRANCH  22  28
ENDBRANCH   6  17
BRANCH  12  31
ATOM     31  C   UNL     1       0.013  13.993  19.196  0.00  0.00    +0.000 C 
ATOM     32  O   UNL     1       0.768  14.816  18.696  0.00  0.00    +0.000 OA
BRANCH  31  33
ATOM     33  O   UNL     1      -1.286  14.276  19.435  0.00  0.00    +0.000 OA
ATOM     34  H   UNL     1      -1.830  13.493  19.695  0.00  0.00    +0.000 HD
ENDBRANCH  31  33
ENDBRANCH  12  31
TORSDOF 4
ENDMDL
MODEL 2
REMARK VINA RESULT:      -7.6      2.224      4.212
REMARK  Name = 
REMARK  5 active torsions:
REMARK  status: ('A' for Active; 'I' for Inactive)
REMARK    1  A    between atoms: C_1  and  C_2
REMARK    2  A    between atoms: C_6  and  N_7
REMARK    3  A    between atoms: C_12  and  N_13
REMARK    4  A    between atoms: C_24  and  C_25
REMARK    5  A    between atoms: C_25  and  O_27
REMARK                            x       y       z     vdW  Elec       q    Type
REMARK                         _______ _______ _______ _____ _____    ______ ____
ROOT
ATOM      1  C   UNL     1       2.164  12.705  19.183  0.00  0.00    +0.000 C 
ATOM      2  C   UNL     1       1.129  11.660  18.746  0.00  0.00    +0.000 C 
ATOM      3  C   UNL     1       1.725  10.700  17.713  0.00  0.00    +0.000 C 
ATOM      4  O   UNL     1       2.303   9.501  18.214  0.00  0.00    +0.000 OA
ATOM      5  C   UNL     1       1.707   8.917  19.306  0.00  0.00    +0.000 A 
ATOM      6  C   UNL     1       2.050   7.561  19.587  0.00  0.00    +0.000 A 
ATOM      7  C   UNL     1       1.532   7.023  20.786  0.00  0.00    +0.000 A 
ATOM      8  F   UNL     1       1.796   5.757  21.140  0.00  0.00    +0.000 F 
ATOM      9  C   UNL     1       0.734   7.750  21.657  0.00  0.00    +0.000 A 
ATOM     10  C   UNL     1       0.406   9.068  21.354  0.00  0.00    +0.000 A 
ATOM     11  C   UNL     1      -0.405   9.839  22.287  0.00  0.00    +0.000 A 
ATOM     12  C   UNL     1      -0.755  11.103  22.003  0.00  0.00    +0.000 A 
ATOM     13  C   UNL     1      -0.309  11.726  20.730  0.00  0.00    +0.000 A 
ATOM     14  O   UNL     1      -0.677  12.872  20.485  0.00  0.00    +0.000 OA
ATOM     15  N   UNL     1       0.528  10.995  19.900  0.00  0.00    +0.000 N 
ATOM     16  C   UNL     1       0.884   9.655  20.174  0.00  0.00    +0.000 A 
ENDROOT
BRANCH   6  17
ATOM     17  N   UNL     1       2.827   6.794  18.734  0.00  0.00    +0.000 N 
ATOM     18  C   UNL     1       4.170   7.161  18.282  0.00  0.00    +0.000 C 
ATOM     19  C   UNL     1       4.352   6.334  17.014  0.00  0.00    +0.000 C 
ATOM     20  C   UNL     1       3.540   5.059  17.279  0.00  0.00    +0.000 C 
ATOM     21  C   UNL     1       2.307   5.635  17.991  0.00  0.00    +0.000 C 
ATOM     22  C   UNL     1       4.269   3.937  18.066  0.00  0.00    +0.000 C 
ATOM     23  C   UNL     1       5.718   3.761  17.585  0.00  0.00    +0.000 C 
ATOM     24  C   UNL     1       6.499   5.072  17.528  0.00  0.00    +0.000 C 
ATOM     25  C   UNL     1       5.790   6.078  16.643  0.00  0.00    +0.000 C 
ATOM     26  F   UNL     1       6.477   7.247  16.626  0.00  0.00    +0.000 F 
ATOM     27  F   UNL     1       5.818   5.607  15.364  0.00  0.00    +0.000 F 
BRANCH  22  28
ATOM     28  N   UNL     1       4.245   4.083  19.516  0.00  0.00    +0.000 NA
ATOM     29  H   UNL     1       4.214   3.194  20.010  0.00  0.00    +0.000 HD
ATOM     30  H   UNL     1       3.455   4.645  19.828  0.00  0.00    +0.000 HD
ENDBRANCH  22  28
ENDBRANCH   6  17
BRANCH  12  31
ATOM     31  C   UNL     1      -1.560  11.833  23.012  0.00  0.00    +0.000 C 
ATOM     32  O   UNL     1      -2.627  11.421  23.445  0.00  0.00    +0.000 OA
BRANCH  31  33
ATOM     33  O   UNL     1      -1.024  12.998  23.437  0.00  0.00    +0.000 OA
ATOM     34  H   UNL     1      -0.085  13.136  23.163  0.00  0.00    +0.000 HD
ENDBRANCH  31  33
ENDBRANCH  12  31
TORSDOF 4
ENDMDL
MODEL 3
REMARK VINA RESULT:      -7.1      1.470      1.909
REMARK  Name = 
REMARK  5 active torsions:
REMARK  status: ('A' for Active; 'I' for Inactive)
REMARK    1  A    between atoms: C_1  and  C_2
REMARK    2  A    between atoms: C_6  and  N_7
REMARK    3  A    between atoms: C_12  and  N_13
REMARK    4  A    between atoms: C_24  and  C_25
REMARK    5  A    between atoms: C_25  and  O_27
REMARK                            x       y       z     vdW  Elec       q    Type
REMARK                         _______ _______ _______ _____ _____    ______ ____
ROOT
ATOM      1  C   UNL     1      -1.052   9.964  22.194  0.00  0.00    +0.000 C 
ATOM      2  C   UNL     1       0.478   9.876  22.113  0.00  0.00    +0.000 C 
ATOM      3  C   UNL     1       0.946   8.421  22.188  0.00  0.00    +0.000 C 
ATOM      4  O   UNL     1       1.127   7.743  20.950  0.00  0.00    +0.000 OA
ATOM      5  C   UNL     1       1.604   8.477  19.890  0.00  0.00    +0.000 A 
ATOM      6  C   UNL     1       2.117   7.750  18.774  0.00  0.00    +0.000 A 
ATOM      7  C   UNL     1       2.477   8.516  17.643  0.00  0.00    +0.000 A 
ATOM      8  F   UNL     1       2.970   7.926  16.545  0.00  0.00    +0.000 F 
ATOM      9  C   UNL     1       2.347   9.896  17.594  0.00  0.00    +0.000 A 
ATOM     10  C   UNL     1       1.853  10.582  18.700  0.00  0.00    +0.000 A 
ATOM     11  C   UNL     1       1.688  12.028  18.632  0.00  0.00    +0.000 A 
ATOM     12  C   UNL     1       1.238  12.713  19.694  0.00  0.00    +0.000 A 
ATOM     13  C   UNL     1       0.898  11.993  20.950  0.00  0.00    +0.000 A 
ATOM     14  O   UNL     1       0.524  12.654  21.914  0.00  0.00    +0.000 OA
ATOM     15  N   UNL     1       0.990  10.609  20.957  0.00  0.00    +0.000 N 
ATOM     16  C   UNL     1       1.486   9.877  19.855  0.00  0.00    +0.000 A 
ENDROOT
BRANCH   6  17
ATOM     17  N   UNL     1       2.281   6.374  18.790  0.00  0.00    +0.000 N 
ATOM     18  C   UNL     1       3.429   5.684  19.380  0.00  0.00    +0.000 C 
ATOM     19  C   UNL     1       3.412   4.323  18.692  0.00  0.00    +0.000 C 
ATOM     20  C   UNL     1       1.924   4.054  18.429  0.00  0.00    +0.000 C 
ATOM     21  C   UNL     1       1.440   5.451  18.011  0.00  0.00    +0.000 C 
ATOM     22  C   UNL     1       1.127   3.424  19.603  0.00  0.00    +0.000 C 
ATOM     23  C   UNL     1       1.931   2.314  20.298  0.00  0.00    +0.000 C 
ATOM     24  C   UNL     1       3.345   2.742  20.682  0.00  0.00    +0.000 C 
ATOM     25  C   UNL     1       4.105   3.230  19.464  0.00  0.00    +0.000 C 
ATOM     26  F   UNL     1       5.347   3.636  19.824  0.00  0.00    +0.000 F 
ATOM     27  F   UNL     1       4.283   2.170  18.626  0.00  0.00    +0.000 F 
BRANCH  22  28
ATOM     28  N   UNL     1       0.635   4.372  20.595  0.00  0.00    +0.000 NA
ATOM     29  H   UNL     1      -0.362   4.284  20.775  0.00  0.00    +0.000 HD
ATOM     30  H   UNL     1       0.823   5.336  20.325  0.00  0.00    +0.000 HD
ENDBRANCH  22  28
ENDBRANCH   6  17
BRANCH  12  31
ATOM     31  C   UNL     1       1.071  14.178  19.543  0.00  0.00    +0.000 C 
ATOM     32  O   UNL     1       0.230  14.686  18.814  0.00  0.00    +0.000 OA
BRANCH  31  33
ATOM     33  O   UNL     1       1.917  14.929  20.282  0.00  0.00    +0.000 OA
ATOM     34  H   UNL     1       1.760  14.877  21.256  0.00  0.00    +0.000 HD
ENDBRANCH  31  33
ENDBRANCH  12  31
TORSDOF 4
ENDMDL
MODEL 4
REMARK VINA RESULT:      -7.1      3.670      7.730
REMARK  Name = 
REMARK  5 active torsions:
REMARK  status: ('A' for Active; 'I' for Inactive)
REMARK    1  A    between atoms: C_1  and  C_2
REMARK    2  A    between atoms: C_6  and  N_7
REMARK    3  A    between atoms: C_12  and  N_13
REMARK    4  A    between atoms: C_24  and  C_25
REMARK    5  A    between atoms: C_25  and  O_27
REMARK                            x       y       z     vdW  Elec       q    Type
REMARK                         _______ _______ _______ _____ _____    ______ ____
ROOT
ATOM      1  C   UNL     1       3.571   3.602  20.755  0.00  0.00    +0.000 C 
ATOM      2  C   UNL     1       2.625   3.995  19.613  0.00  0.00    +0.000 C 
ATOM      3  C   UNL     1       1.403   4.743  20.150  0.00  0.00    +0.000 C 
ATOM      4  O   UNL     1       1.488   6.163  20.185  0.00  0.00    +0.000 OA
ATOM      5  C   UNL     1       2.177   6.782  19.170  0.00  0.00    +0.000 A 
ATOM      6  C   UNL     1       1.968   8.184  19.003  0.00  0.00    +0.000 A 
ATOM      7  C   UNL     1       2.783   8.826  18.045  0.00  0.00    +0.000 A 
ATOM      8  F   UNL     1       2.663  10.141  17.812  0.00  0.00    +0.000 F 
ATOM      9  C   UNL     1       3.740   8.155  17.297  0.00  0.00    +0.000 A 
ATOM     10  C   UNL     1       3.917   6.786  17.473  0.00  0.00    +0.000 A 
ATOM     11  C   UNL     1       4.945   6.092  16.709  0.00  0.00    +0.000 A 
ATOM     12  C   UNL     1       5.116   4.767  16.843  0.00  0.00    +0.000 A 
ATOM     13  C   UNL     1       4.255   4.001  17.782  0.00  0.00    +0.000 A 
ATOM     14  O   UNL     1       4.414   2.785  17.853  0.00  0.00    +0.000 OA
ATOM     15  N   UNL     1       3.340   4.702  18.553  0.00  0.00    +0.000 N 
ATOM     16  C   UNL     1       3.131   6.092  18.404  0.00  0.00    +0.000 A 
ENDROOT
BRANCH   6  17
ATOM     17  N   UNL     1       1.009   8.887  19.715  0.00  0.00    +0.000 N 
ATOM     18  C   UNL     1       1.095   9.189  21.145  0.00  0.00    +0.000 C 
ATOM     19  C   UNL     1      -0.354   9.462  21.533  0.00  0.00    +0.000 C 
ATOM     20  C   UNL     1      -0.973  10.071  20.268  0.00  0.00    +0.000 C 
ATOM     21  C   UNL     1      -0.321   9.211  19.176  0.00  0.00    +0.000 C 
ATOM     22  C   UNL     1      -0.778  11.600  20.082  0.00  0.00    +0.000 C 
ATOM     23  C   UNL     1      -0.984  12.360  21.402  0.00  0.00    +0.000 C 
ATOM     24  C   UNL     1      -0.180  11.780  22.564  0.00  0.00    +0.000 C 
ATOM     25  C   UNL     1      -0.514  10.315  22.766  0.00  0.00    +0.000 C 
ATOM     26  F   UNL     1       0.229   9.805  23.779  0.00  0.00    +0.000 F 
ATOM     27  F   UNL     1      -1.813  10.231  23.171  0.00  0.00    +0.000 F 
BRANCH  22  28
ATOM     28  N   UNL     1       0.490  11.993  19.479  0.00  0.00    +0.000 NA
ATOM     29  H   UNL     1       0.630  13.000  19.458  0.00  0.00    +0.000 HD
ATOM     30  H   UNL     1       0.583  11.641  18.528  0.00  0.00    +0.000 HD
ENDBRANCH  22  28
ENDBRANCH   6  17
BRANCH  12  31
ATOM     31  C   UNL     1       6.199   4.134  16.053  0.00  0.00    +0.000 C 
ATOM     32  O   UNL     1       7.301   4.641  15.897  0.00  0.00    +0.000 OA
BRANCH  31  33
ATOM     33  O   UNL     1       5.888   2.935  15.515  0.00  0.00    +0.000 OA
ATOM     34  H   UNL     1       6.038   2.168  16.120  0.00  0.00    +0.000 HD
ENDBRANCH  31  33
ENDBRANCH  12  31
TORSDOF 4
ENDMDL
MODEL 5
REMARK VINA RESULT:      -7.1      3.528      8.402
REMARK  Name = 
REMARK  5 active torsions:
REMARK  status: ('A' for Active; 'I' for Inactive)
REMARK    1  A    between atoms: C_1  and  C_2
REMARK    2  A    between atoms: C_6  and  N_7
REMARK    3  A    between atoms: C_12  and  N_13
REMARK    4  A    between atoms: C_24  and  C_25
REMARK    5  A    between atoms: C_25  and  O_27
REMARK                            x       y       z     vdW  Elec       q    Type
REMARK                         _______ _______ _______ _____ _____    ______ ____
ROOT
ATOM      1  C   UNL     1       4.624   5.880  16.130  0.00  0.00    +0.000 C 
ATOM      2  C   UNL     1       4.926   6.470  17.514  0.00  0.00    +0.000 C 
ATOM      3  C   UNL     1       4.528   7.947  17.577  0.00  0.00    +0.000 C 
ATOM      4  O   UNL     1       3.220   8.236  18.055  0.00  0.00    +0.000 OA
ATOM      5  C   UNL     1       2.716   7.433  19.050  0.00  0.00    +0.000 A 
ATOM      6  C   UNL     1       1.584   7.920  19.768  0.00  0.00    +0.000 A 
ATOM      7  C   UNL     1       1.000   7.025  20.692  0.00  0.00    +0.000 A 
ATOM      8  F   UNL     1      -0.067   7.388  21.418  0.00  0.00    +0.000 F 
ATOM      9  C   UNL     1       1.480   5.742  20.907  0.00  0.00    +0.000 A 
ATOM     10  C   UNL     1       2.592   5.295  20.200  0.00  0.00    +0.000 A 
ATOM     11  C   UNL     1       3.074   3.935  20.404  0.00  0.00    +0.000 A 
ATOM     12  C   UNL     1       4.160   3.491  19.753  0.00  0.00    +0.000 A 
ATOM     13  C   UNL     1       4.876   4.390  18.810  0.00  0.00    +0.000 A 
ATOM     14  O   UNL     1       5.887   3.964  18.258  0.00  0.00    +0.000 OA
ATOM     15  N   UNL     1       4.347   5.651  18.576  0.00  0.00    +0.000 N 
ATOM     16  C   UNL     1       3.220   6.140  19.274  0.00  0.00    +0.000 A 
ENDROOT
BRANCH   6  17
ATOM     17  N   UNL     1       1.085   9.202  19.598  0.00  0.00    +0.000 N 
ATOM     18  C   UNL     1       1.029  10.215  20.653  0.00  0.00    +0.000 C 
ATOM     19  C   UNL     1      -0.036  11.184  20.153  0.00  0.00    +0.000 C 
ATOM     20  C   UNL     1       0.092  11.126  18.625  0.00  0.00    +0.000 C 
ATOM     21  C   UNL     1       0.336   9.626  18.405  0.00  0.00    +0.000 C 
ATOM     22  C   UNL     1       1.169  12.050  17.995  0.00  0.00    +0.000 C 
ATOM     23  C   UNL     1       1.171  13.441  18.649  0.00  0.00    +0.000 C 
ATOM     24  C   UNL     1       1.227  13.391  20.174  0.00  0.00    +0.000 C 
ATOM     25  C   UNL     1       0.074  12.574  20.724  0.00  0.00    +0.000 C 
ATOM     26  F   UNL     1       0.153  12.512  22.076  0.00  0.00    +0.000 F 
ATOM     27  F   UNL     1      -1.084  13.238  20.445  0.00  0.00    +0.000 F 
BRANCH  22  28
ATOM     28  N   UNL     1       2.522  11.507  17.987  0.00  0.00    +0.000 NA
ATOM     29  H   UNL     1       2.585  10.592  17.546  0.00  0.00    +0.000 HD
ATOM     30  H   UNL     1       2.905  11.431  18.927  0.00  0.00    +0.000 HD
ENDBRANCH  22  28
ENDBRANCH   6  17
BRANCH  12  31
ATOM     31  C   UNL     1       4.575   2.088  19.992  0.00  0.00    +0.000 C 
ATOM     32  O   UNL     1       5.056   1.701  21.048  0.00  0.00    +0.000 OA
BRANCH  31  33
ATOM     33  O   UNL     1       4.376   1.248  18.953  0.00  0.00    +0.000 OA
ATOM     34  H   UNL     1       4.986   1.395  18.190  0.00  0.00    +0.000 HD
ENDBRANCH  31  33
ENDBRANCH  12  31
TORSDOF 4
ENDMDL
MODEL 6
REMARK VINA RESULT:      -7.0      4.564      8.909
REMARK  Name = 
REMARK  5 active torsions:
REMARK  status: ('A' for Active; 'I' for Inactive)
REMARK    1  A    between atoms: C_1  and  C_2
REMARK    2  A    between atoms: C_6  and  N_7
REMARK    3  A    between atoms: C_12  and  N_13
REMARK    4  A    between atoms: C_24  and  C_25
REMARK    5  A    between atoms: C_25  and  O_27
REMARK                            x       y       z     vdW  Elec       q    Type
REMARK                         _______ _______ _______ _____ _____    ______ ____
ROOT
ATOM      1  C   UNL     1      -1.279  10.022  17.181  0.00  0.00    +0.000 C 
ATOM      2  C   UNL     1      -0.205  10.780  17.974  0.00  0.00    +0.000 C 
ATOM      3  C   UNL     1      -0.806  11.995  18.683  0.00  0.00    +0.000 C 
ATOM      4  O   UNL     1      -1.249  11.800  20.021  0.00  0.00    +0.000 OA
ATOM      5  C   UNL     1      -0.523  10.939  20.810  0.00  0.00    +0.000 A 
ATOM      6  C   UNL     1      -0.738  11.009  22.218  0.00  0.00    +0.000 A 
ATOM      7  C   UNL     1      -0.085  10.028  22.998  0.00  0.00    +0.000 A 
ATOM      8  F   UNL     1      -0.222  10.010  24.332  0.00  0.00    +0.000 F 
ATOM      9  C   UNL     1       0.722   9.042  22.450  0.00  0.00    +0.000 A 
ATOM     10  C   UNL     1       0.922   9.002  21.073  0.00  0.00    +0.000 A 
ATOM     11  C   UNL     1       1.744   7.945  20.499  0.00  0.00    +0.000 A 
ATOM     12  C   UNL     1       1.972   7.901  19.177  0.00  0.00    +0.000 A 
ATOM     13  C   UNL     1       1.378   8.935  18.289  0.00  0.00    +0.000 A 
ATOM     14  O   UNL     1       1.637   8.886  17.089  0.00  0.00    +0.000 OA
ATOM     15  N   UNL     1       0.536   9.880  18.855  0.00  0.00    +0.000 N 
ATOM     16  C   UNL     1       0.307   9.954  20.248  0.00  0.00    +0.000 A 
ENDROOT
BRANCH   6  17
ATOM     17  N   UNL     1      -1.519  11.990  22.807  0.00  0.00    +0.000 N 
ATOM     18  C   UNL     1      -1.048  13.335  23.141  0.00  0.00    +0.000 C 
ATOM     19  C   UNL     1      -2.041  13.802  24.199  0.00  0.00    +0.000 C 
ATOM     20  C   UNL     1      -3.355  13.112  23.812  0.00  0.00    +0.000 C 
ATOM     21  C   UNL     1      -2.847  11.726  23.385  0.00  0.00    +0.000 C 
ATOM     22  C   UNL     1      -4.217  13.836  22.743  0.00  0.00    +0.000 C 
ATOM     23  C   UNL     1      -4.266  15.351  22.991  0.00  0.00    +0.000 C 
ATOM     24  C   UNL     1      -2.886  15.976  23.186  0.00  0.00    +0.000 C 
ATOM     25  C   UNL     1      -2.151  15.300  24.327  0.00  0.00    +0.000 C 
ATOM     26  F   UNL     1      -0.917  15.842  24.469  0.00  0.00    +0.000 F 
ATOM     27  F   UNL     1      -2.820  15.577  25.482  0.00  0.00    +0.000 F 
BRANCH  22  28
ATOM     28  N   UNL     1      -3.837  13.574  21.360  0.00  0.00    +0.000 NA
ATOM     29  H   UNL     1      -4.572  13.793  20.692  0.00  0.00    +0.000 HD
ATOM     30  H   UNL     1      -3.563  12.603  21.220  0.00  0.00    +0.000 HD
ENDBRANCH  22  28
ENDBRANCH   6  17
BRANCH  12  31
ATOM     31  C   UNL     1       2.796   6.782  18.661  0.00  0.00    +0.000 C 
ATOM     32  O   UNL     1       2.624   5.616  18.988  0.00  0.00    +0.000 OA
BRANCH  31  33
ATOM     33  O   UNL     1       3.761   7.138  17.785  0.00  0.00    +0.000 OA
ATOM     34  H   UNL     1       4.463   6.455  17.656  0.00  0.00    +0.000 HD
ENDBRANCH  31  33
ENDBRANCH  12  31
TORSDOF 4
ENDMDL
MODEL 7
REMARK VINA RESULT:      -7.0      2.118      3.644
REMARK  Name = 
REMARK  5 active torsions:
REMARK  status: ('A' for Active; 'I' for Inactive)
REMARK    1  A    between atoms: C_1  and  C_2
REMARK    2  A    between atoms: C_6  and  N_7
REMARK    3  A    between atoms: C_12  and  N_13
REMARK    4  A    between atoms: C_24  and  C_25
REMARK    5  A    between atoms: C_25  and  O_27
REMARK                            x       y       z     vdW  Elec       q    Type
REMARK                         _______ _______ _______ _____ _____    ______ ____
ROOT
ATOM      1  C   UNL     1       2.347  12.797  19.187  0.00  0.00    +0.000 C 
ATOM      2  C   UNL     1       1.257  11.806  18.757  0.00  0.00    +0.000 C 
ATOM      3  C   UNL     1       1.827  10.738  17.821  0.00  0.00    +0.000 C 
ATOM      4  O   UNL     1       2.281   9.534  18.428  0.00  0.00    +0.000 OA
ATOM      5  C   UNL     1       1.582   9.071  19.518  0.00  0.00    +0.000 A 
ATOM      6  C   UNL     1       1.801   7.715  19.903  0.00  0.00    +0.000 A 
ATOM      7  C   UNL     1       1.179   7.298  21.100  0.00  0.00    +0.000 A 
ATOM      8  F   UNL     1       1.321   6.042  21.547  0.00  0.00    +0.000 F 
ATOM      9  C   UNL     1       0.397   8.141  21.877  0.00  0.00    +0.000 A 
ATOM     10  C   UNL     1       0.192   9.457  21.474  0.00  0.00    +0.000 A 
ATOM     11  C   UNL     1      -0.604  10.347  22.310  0.00  0.00    +0.000 A 
ATOM     12  C   UNL     1      -0.836  11.612  21.928  0.00  0.00    +0.000 A 
ATOM     13  C   UNL     1      -0.274  12.114  20.646  0.00  0.00    +0.000 A 
ATOM     14  O   UNL     1      -0.537  13.266  20.310  0.00  0.00    +0.000 OA
ATOM     15  N   UNL     1       0.544  11.268  19.913  0.00  0.00    +0.000 N 
ATOM     16  C   UNL     1       0.777   9.926  20.289  0.00  0.00    +0.000 A 
ENDROOT
BRANCH   6  17
ATOM     17  N   UNL     1       2.558   6.835  19.145  0.00  0.00    +0.000 N 
ATOM     18  C   UNL     1       3.834   6.260  19.573  0.00  0.00    +0.000 C 
ATOM     19  C   UNL     1       4.487   5.840  18.261  0.00  0.00    +0.000 C 
ATOM     20  C   UNL     1       3.306   5.464  17.357  0.00  0.00    +0.000 C 
ATOM     21  C   UNL     1       2.292   6.557  17.725  0.00  0.00    +0.000 C 
ATOM     22  C   UNL     1       2.769   4.015  17.505  0.00  0.00    +0.000 C 
ATOM     23  C   UNL     1       3.915   2.998  17.624  0.00  0.00    +0.000 C 
ATOM     24  C   UNL     1       4.949   3.376  18.682  0.00  0.00    +0.000 C 
ATOM     25  C   UNL     1       5.520   4.753  18.404  0.00  0.00    +0.000 C 
ATOM     26  F   UNL     1       6.413   5.088  19.367  0.00  0.00    +0.000 F 
ATOM     27  F   UNL     1       6.228   4.687  17.240  0.00  0.00    +0.000 F 
BRANCH  22  28
ATOM     28  N   UNL     1       1.817   3.816  18.591  0.00  0.00    +0.000 NA
ATOM     29  H   UNL     1       1.010   4.432  18.536  0.00  0.00    +0.000 HD
ATOM     30  H   UNL     1       2.251   3.945  19.503  0.00  0.00    +0.000 HD
ENDBRANCH  22  28
ENDBRANCH   6  17
BRANCH  12  31
ATOM     31  C   UNL     1      -1.632  12.467  22.841  0.00  0.00    +0.000 C 
ATOM     32  O   UNL     1      -2.769  12.191  23.198  0.00  0.00    +0.000 OA
BRANCH  31  33
ATOM     33  O   UNL     1      -1.006  13.585  23.269  0.00  0.00    +0.000 OA
ATOM     34  H   UNL     1      -0.022  13.510  23.306  0.00  0.00    +0.000 HD
ENDBRANCH  31  33
ENDBRANCH  12  31
TORSDOF 4
ENDMDL
MODEL 8
REMARK VINA RESULT:      -6.9      2.317      3.735
REMARK  Name = 
REMARK  5 active torsions:
REMARK  status: ('A' for Active; 'I' for Inactive)
REMARK    1  A    between atoms: C_1  and  C_2
REMARK    2  A    between atoms: C_6  and  N_7
REMARK    3  A    between atoms: C_12  and  N_13
REMARK    4  A    between atoms: C_24  and  C_25
REMARK    5  A    between atoms: C_25  and  O_27
REMARK                            x       y       z     vdW  Elec       q    Type
REMARK                         _______ _______ _______ _____ _____    ______ ____
ROOT
ATOM      1  C   UNL     1       2.499  12.162  18.644  0.00  0.00    +0.000 C 
ATOM      2  C   UNL     1       1.477  11.079  18.275  0.00  0.00    +0.000 C 
ATOM      3  C   UNL     1       2.131   9.971  17.446  0.00  0.00    +0.000 C 
ATOM      4  O   UNL     1       2.634   8.849  18.163  0.00  0.00    +0.000 OA
ATOM      5  C   UNL     1       1.933   8.439  19.271  0.00  0.00    +0.000 A 
ATOM      6  C   UNL     1       2.215   7.134  19.774  0.00  0.00    +0.000 A 
ATOM      7  C   UNL     1       1.585   6.784  20.988  0.00  0.00    +0.000 A 
ATOM      8  F   UNL     1       1.784   5.579  21.542  0.00  0.00    +0.000 F 
ATOM      9  C   UNL     1       0.736   7.641  21.674  0.00  0.00    +0.000 A 
ATOM     10  C   UNL     1       0.470   8.906  21.156  0.00  0.00    +0.000 A 
ATOM     11  C   UNL     1      -0.396   9.815  21.895  0.00  0.00    +0.000 A 
ATOM     12  C   UNL     1      -0.687  11.029  21.403  0.00  0.00    +0.000 A 
ATOM     13  C   UNL     1      -0.119  11.454  20.097  0.00  0.00    +0.000 A 
ATOM     14  O   UNL     1      -0.436  12.557  19.659  0.00  0.00    +0.000 OA
ATOM     15  N   UNL     1       0.764  10.598  19.456  0.00  0.00    +0.000 N 
ATOM     16  C   UNL     1       1.060   9.307  19.950  0.00  0.00    +0.000 A 
ENDROOT
BRANCH   6  17
ATOM     17  N   UNL     1       3.040   6.240  19.110  0.00  0.00    +0.000 N 
ATOM     18  C   UNL     1       2.587   5.304  18.080  0.00  0.00    +0.000 C 
ATOM     19  C   UNL     1       3.677   4.238  18.071  0.00  0.00    +0.000 C 
ATOM     20  C   UNL     1       4.954   5.003  18.444  0.00  0.00    +0.000 C 
ATOM     21  C   UNL     1       4.423   5.956  19.525  0.00  0.00    +0.000 C 
ATOM     22  C   UNL     1       5.693   5.708  17.275  0.00  0.00    +0.000 C 
ATOM     23  C   UNL     1       5.747   4.818  16.024  0.00  0.00    +0.000 C 
ATOM     24  C   UNL     1       4.386   4.247  15.629  0.00  0.00    +0.000 C 
ATOM     25  C   UNL     1       3.780   3.468  16.779  0.00  0.00    +0.000 C 
ATOM     26  F   UNL     1       2.560   2.994  16.427  0.00  0.00    +0.000 F 
ATOM     27  F   UNL     1       4.559   2.372  17.003  0.00  0.00    +0.000 F 
BRANCH  22  28
ATOM     28  N   UNL     1       5.176   7.025  16.922  0.00  0.00    +0.000 NA
ATOM     29  H   UNL     1       4.470   6.997  16.190  0.00  0.00    +0.000 HD
ATOM     30  H   UNL     1       5.918   7.654  16.620  0.00  0.00    +0.000 HD
ENDBRANCH  22  28
ENDBRANCH   6  17
BRANCH  12  31
ATOM     31  C   UNL     1      -1.553  11.910  22.223  0.00  0.00    +0.000 C 
ATOM     32  O   UNL     1      -1.278  12.246  23.367  0.00  0.00    +0.000 OA
BRANCH  31  33
ATOM     33  O   UNL     1      -2.682  12.332  21.612  0.00  0.00    +0.000 OA
ATOM     34  H   UNL     1      -3.282  12.862  22.191  0.00  0.00    +0.000 HD
ENDBRANCH  31  33
ENDBRANCH  12  31
TORSDOF 4
ENDMDL
MODEL 9
REMARK VINA RESULT:      -6.9      6.178     10.278
REMARK  Name = 
REMARK  5 active torsions:
REMARK  status: ('A' for Active; 'I' for Inactive)
REMARK    1  A    between atoms: C_1  and  C_2
REMARK    2  A    between atoms: C_6  and  N_7
REMARK    3  A    between atoms: C_12  and  N_13
REMARK    4  A    between atoms: C_24  and  C_25
REMARK    5  A    between atoms: C_25  and  O_27
REMARK                            x       y       z     vdW  Elec       q    Type
REMARK                         _______ _______ _______ _____ _____    ______ ____
ROOT
ATOM      1  C   UNL     1      -3.958   9.805  18.188  0.00  0.00    +0.000 C 
ATOM      2  C   UNL     1      -3.274  11.179  18.173  0.00  0.00    +0.000 C 
ATOM      3  C   UNL     1      -4.211  12.261  18.716  0.00  0.00    +0.000 C 
ATOM      4  O   UNL     1      -4.119  12.547  20.106  0.00  0.00    +0.000 OA
ATOM      5  C   UNL     1      -2.875  12.481  20.686  0.00  0.00    +0.000 A 
ATOM      6  C   UNL     1      -2.717  13.100  21.962  0.00  0.00    +0.000 A 
ATOM      7  C   UNL     1      -1.472  12.906  22.599  0.00  0.00    +0.000 A 
ATOM      8  F   UNL     1      -1.224  13.448  23.801  0.00  0.00    +0.000 F 
ATOM      9  C   UNL     1      -0.445  12.160  22.040  0.00  0.00    +0.000 A 
ATOM     10  C   UNL     1      -0.621  11.575  20.789  0.00  0.00    +0.000 A 
ATOM     11  C   UNL     1       0.448  10.765  20.219  0.00  0.00    +0.000 A 
ATOM     12  C   UNL     1       0.310  10.213  19.004  0.00  0.00    +0.000 A 
ATOM     13  C   UNL     1      -0.944  10.422  18.233  0.00  0.00    +0.000 A 
ATOM     14  O   UNL     1      -1.022   9.932  17.110  0.00  0.00    +0.000 OA
ATOM     15  N   UNL     1      -1.973  11.130  18.836  0.00  0.00    +0.000 N 
ATOM     16  C   UNL     1      -1.833  11.739  20.103  0.00  0.00    +0.000 A 
ENDROOT
BRANCH   6  17
ATOM     17  N   UNL     1      -3.710  13.870  22.546  0.00  0.00    +0.000 N 
ATOM     18  C   UNL     1      -3.743  15.333  22.526  0.00  0.00    +0.000 C 
ATOM     19  C   UNL     1      -4.657  15.680  23.697  0.00  0.00    +0.000 C 
ATOM     20  C   UNL     1      -5.649  14.511  23.757  0.00  0.00    +0.000 C 
ATOM     21  C   UNL     1      -4.724  13.321  23.460  0.00  0.00    +0.000 C 
ATOM     22  C   UNL     1      -6.882  14.615  22.819  0.00  0.00    +0.000 C 
ATOM     23  C   UNL     1      -7.468  16.035  22.812  0.00  0.00    +0.000 C 
ATOM     24  C   UNL     1      -6.420  17.119  22.564  0.00  0.00    +0.000 C 
ATOM     25  C   UNL     1      -5.310  17.034  23.592  0.00  0.00    +0.000 C 
ATOM     26  F   UNL     1      -4.372  17.980  23.342  0.00  0.00    +0.000 F 
ATOM     27  F   UNL     1      -5.840  17.341  24.811  0.00  0.00    +0.000 F 
BRANCH  22  28
ATOM     28  N   UNL     1      -6.657  14.167  21.450  0.00  0.00    +0.000 NA
ATOM     29  H   UNL     1      -5.915  13.475  21.370  0.00  0.00    +0.000 HD
ATOM     30  H   UNL     1      -6.432  14.942  20.829  0.00  0.00    +0.000 HD
ENDBRANCH  22  28
ENDBRANCH   6  17
BRANCH  12  31
ATOM     31  C   UNL     1       1.429   9.381  18.500  0.00  0.00    +0.000 C 
ATOM     32  O   UNL     1       1.853   8.397  19.091  0.00  0.00    +0.000 OA
BRANCH  31  33
ATOM     33  O   UNL     1       1.953   9.780  17.321  0.00  0.00    +0.000 OA
ATOM     34  H   UNL     1       2.693   9.212  16.994  0.00  0.00    +0.000 HD
ENDBRANCH  31  33
ENDBRANCH  12  31
TORSDOF 4
ENDMDL
