MODEL 1
REMARK VINA RESULT:      -6.9      0.000      0.000
REMARK  Name = 
REMARK  9 active torsions:
REMARK  status: ('A' for Active; 'I' for Inactive)
REMARK    1  A    between atoms: C_1  and  O_2
REMARK    2  A    between atoms: O_2  and  C_3
REMARK    3  A    between atoms: C_5  and  C_6
REMARK    4  A    between atoms: N_13  and  C_14
REMARK    5  A    between atoms: C_17  and  C_18
REMARK    6  A    between atoms: C_24  and  O_25
REMARK    7  A    between atoms: O_25  and  C_26
REMARK    8  A    between atoms: C_27  and  O_28
REMARK    9  A    between atoms: O_28  and  C_29
REMARK                            x       y       z     vdW  Elec       q    Type
REMARK                         _______ _______ _______ _____ _____    ______ ____
ROOT
ATOM      1  C   UNL     1      -0.497  10.983  22.646  0.00  0.00    +0.000 A 
ATOM      2  N   UNL     1       0.247  10.210  23.420  0.00  0.00    +0.000 NA
ATOM      3  N   UNL     1       0.927   9.311  22.623  0.00  0.00    +0.000 NA
ATOM      4  C   UNL     1       0.571   9.553  21.388  0.00  0.00    +0.000 A 
ATOM      5  N   UNL     1      -0.346  10.569  21.328  0.00  0.00    +0.000 N 
ATOM      6  N   UNL     1      -1.017  11.058  20.235  0.00  0.00    +0.000 NA
ATOM      7  C   UNL     1      -0.492  10.850  19.057  0.00  0.00    +0.000 C 
ATOM      8  N   UNL     1      -1.096  11.353  17.916  0.00  0.00    +0.000 N 
ATOM      9  C   UNL     1       0.882  10.200  18.854  0.00  0.00    +0.000 C 
ATOM     10  S   UNL     1       1.098   8.774  19.945  0.00  0.00    +0.000 S 
ATOM     11  H   UNL     1      -0.558  11.391  17.057  0.00  0.00    +0.000 HD
ENDROOT
BRANCH   8  12
ATOM     12  C   UNL     1      -2.481  11.497  17.687  0.00  0.00    +0.000 A 
ATOM     13  C   UNL     1      -3.298  11.947  18.734  0.00  0.00    +0.000 A 
ATOM     14  C   UNL     1      -4.676  12.123  18.550  0.00  0.00    +0.000 A 
ATOM     15  C   UNL     1      -5.264  11.857  17.311  0.00  0.00    +0.000 A 
ATOM     16  C   UNL     1      -6.724  12.112  17.074  0.00  0.00    +0.000 C 
ATOM     17  C   UNL     1      -4.460  11.375  16.273  0.00  0.00    +0.000 A 
ATOM     18  C   UNL     1      -3.087  11.179  16.468  0.00  0.00    +0.000 A 
ENDBRANCH   8  12
BRANCH   1  21
ATOM     19  C   UNL     1      -3.513  12.758  24.062  0.00  0.00    +0.000 A 
ATOM     20  C   UNL     1      -2.722  11.813  23.397  0.00  0.00    +0.000 A 
ATOM     21  C   UNL     1      -1.391  12.067  23.073  0.00  0.00    +0.000 A 
ATOM     22  C   UNL     1      -0.923  13.367  23.234  0.00  0.00    +0.000 A 
ATOM     23  C   UNL     1      -1.736  14.376  23.788  0.00  0.00    +0.000 A 
ATOM     24  C   UNL     1      -3.043  14.073  24.236  0.00  0.00    +0.000 A 
BRANCH  19  26
ATOM     25  C   UNL     1      -5.838  12.698  23.630  0.00  0.00    +0.000 C 
ATOM     26  O   UNL     1      -4.754  12.382  24.514  0.00  0.00    +0.000 OA
ENDBRANCH  19  26
BRANCH  23  27
ATOM     27  O   UNL     1      -1.064  15.575  23.845  0.00  0.00    +0.000 OA
ATOM     28  C   UNL     1      -0.201  15.946  22.783  0.00  0.00    +0.000 C 
ENDBRANCH  23  27
BRANCH  24  29
ATOM     29  O   UNL     1      -3.751  15.102  24.798  0.00  0.00    +0.000 OA
ATOM     30  C   UNL     1      -4.496  15.989  23.980  0.00  0.00    +0.000 C 
ENDBRANCH  24  29
ENDBRANCH   1  21
TORSDOF 5
ENDMDL
MODEL 2
REMARK VINA RESULT:      -6.7      0.506      2.348
REMARK  Name = 
REMARK  9 active torsions:
REMARK  status: ('A' for Active; 'I' for Inactive)
REMARK    1  A    between atoms: C_1  and  O_2
REMARK    2  A    between atoms: O_2  and  C_3
REMARK    3  A    between atoms: C_5  and  C_6
REMARK    4  A    between atoms: N_13  and  C_14
REMARK    5  A    between atoms: C_17  and  C_18
REMARK    6  A    between atoms: C_24  and  O_25
REMARK    7  A    between atoms: O_25  and  C_26
REMARK    8  A    between atoms: C_27  and  O_28
REMARK    9  A    between atoms: O_28  and  C_29
REMARK                            x       y       z     vdW  Elec       q    Type
REMARK                         _______ _______ _______ _____ _____    ______ ____
ROOT
ATOM      1  C   UNL     1      -0.430  10.939  22.649  0.00  0.00    +0.000 A 
ATOM      2  N   UNL     1       0.286  10.163  23.447  0.00  0.00    +0.000 NA
ATOM      3  N   UNL     1       0.944   9.225  22.676  0.00  0.00    +0.000 NA
ATOM      4  C   UNL     1       0.603   9.447  21.434  0.00  0.00    +0.000 A 
ATOM      5  N   UNL     1      -0.283  10.489  21.343  0.00  0.00    +0.000 N 
ATOM      6  N   UNL     1      -0.932  10.971  20.233  0.00  0.00    +0.000 NA
ATOM      7  C   UNL     1      -0.406  10.719  19.065  0.00  0.00    +0.000 C 
ATOM      8  N   UNL     1      -0.988  11.211  17.908  0.00  0.00    +0.000 N 
ATOM      9  C   UNL     1       0.949  10.024  18.887  0.00  0.00    +0.000 C 
ATOM     10  S   UNL     1       1.116   8.619  20.013  0.00  0.00    +0.000 S 
ATOM     11  H   UNL     1      -0.444  11.213  17.052  0.00  0.00    +0.000 HD
ENDROOT
BRANCH   8  12
ATOM     12  C   UNL     1      -2.366  11.391  17.666  0.00  0.00    +0.000 A 
ATOM     13  C   UNL     1      -3.183  11.855  18.707  0.00  0.00    +0.000 A 
ATOM     14  C   UNL     1      -4.554  12.066  18.510  0.00  0.00    +0.000 A 
ATOM     15  C   UNL     1      -5.136  11.822  17.264  0.00  0.00    +0.000 A 
ATOM     16  C   UNL     1      -6.586  12.114  17.014  0.00  0.00    +0.000 C 
ATOM     17  C   UNL     1      -4.333  11.326  16.232  0.00  0.00    +0.000 A 
ATOM     18  C   UNL     1      -2.967  11.095  16.439  0.00  0.00    +0.000 A 
ENDBRANCH   8  12
BRANCH   1  21
ATOM     19  C   UNL     1      -1.696  14.465  23.109  0.00  0.00    +0.000 A 
ATOM     20  C   UNL     1      -0.828  13.371  23.006  0.00  0.00    +0.000 A 
ATOM     21  C   UNL     1      -1.294  12.058  23.044  0.00  0.00    +0.000 A 
ATOM     22  C   UNL     1      -2.622  11.853  23.403  0.00  0.00    +0.000 A 
ATOM     23  C   UNL     1      -3.495  12.935  23.635  0.00  0.00    +0.000 A 
ATOM     24  C   UNL     1      -3.044  14.265  23.463  0.00  0.00    +0.000 A 
BRANCH  19  26
ATOM     25  C   UNL     1      -0.689  15.941  21.559  0.00  0.00    +0.000 C 
ATOM     26  O   UNL     1      -1.202  15.726  22.881  0.00  0.00    +0.000 OA
ENDBRANCH  19  26
BRANCH  23  27
ATOM     27  O   UNL     1      -4.750  12.491  23.978  0.00  0.00    +0.000 OA
ATOM     28  C   UNL     1      -5.859  12.821  23.160  0.00  0.00    +0.000 C 
ENDBRANCH  23  27
BRANCH  24  29
ATOM     29  O   UNL     1      -3.966  15.256  23.669  0.00  0.00    +0.000 OA
ATOM     30  C   UNL     1      -3.944  16.016  24.867  0.00  0.00    +0.000 C 
ENDBRANCH  24  29
ENDBRANCH   1  21
TORSDOF 5
ENDMDL
MODEL 3
REMARK VINA RESULT:      -6.6      2.433      4.704
REMARK  Name = 
REMARK  9 active torsions:
REMARK  status: ('A' for Active; 'I' for Inactive)
REMARK    1  A    between atoms: C_1  and  O_2
REMARK    2  A    between atoms: O_2  and  C_3
REMARK    3  A    between atoms: C_5  and  C_6
REMARK    4  A    between atoms: N_13  and  C_14
REMARK    5  A    between atoms: C_17  and  C_18
REMARK    6  A    between atoms: C_24  and  O_25
REMARK    7  A    between atoms: O_25  and  C_26
REMARK    8  A    between atoms: C_27  and  O_28
REMARK    9  A    between atoms: O_28  and  C_29
REMARK                            x       y       z     vdW  Elec       q    Type
REMARK                         _______ _______ _______ _____ _____    ______ ____
ROOT
ATOM      1  C   UNL     1      -0.642  11.104  19.013  0.00  0.00    +0.000 A 
ATOM      2  N   UNL     1       0.217  10.264  18.458  0.00  0.00    +0.000 NA
ATOM      3  N   UNL     1      -0.417   9.604  17.424  0.00  0.00    +0.000 NA
ATOM      4  C   UNL     1      -1.645  10.049  17.385  0.00  0.00    +0.000 A 
ATOM      5  N   UNL     1      -1.868  10.971  18.374  0.00  0.00    +0.000 N 
ATOM      6  N   UNL     1      -3.039  11.603  18.712  0.00  0.00    +0.000 NA
ATOM      7  C   UNL     1      -3.974  11.677  17.802  0.00  0.00    +0.000 C 
ATOM      8  N   UNL     1      -5.163  12.337  18.065  0.00  0.00    +0.000 N 
ATOM      9  C   UNL     1      -3.777  11.206  16.356  0.00  0.00    +0.000 C 
ATOM     10  S   UNL     1      -2.911   9.619  16.299  0.00  0.00    +0.000 S 
ATOM     11  H   UNL     1      -5.762  12.591  17.286  0.00  0.00    +0.000 HD
ENDROOT
BRANCH   8  12
ATOM     12  C   UNL     1      -5.841  12.397  19.301  0.00  0.00    +0.000 A 
ATOM     13  C   UNL     1      -6.915  11.525  19.529  0.00  0.00    +0.000 A 
ATOM     14  C   UNL     1      -7.607  11.536  20.747  0.00  0.00    +0.000 A 
ATOM     15  C   UNL     1      -7.235  12.416  21.765  0.00  0.00    +0.000 A 
ATOM     16  C   UNL     1      -7.916  12.389  23.103  0.00  0.00    +0.000 C 
ATOM     17  C   UNL     1      -6.187  13.312  21.531  0.00  0.00    +0.000 A 
ATOM     18  C   UNL     1      -5.512  13.314  20.304  0.00  0.00    +0.000 A 
ENDBRANCH   8  12
BRANCH   1  21
ATOM     19  C   UNL     1       0.375  14.160  20.982  0.00  0.00    +0.000 A 
ATOM     20  C   UNL     1       0.355  13.162  20.000  0.00  0.00    +0.000 A 
ATOM     21  C   UNL     1      -0.397  11.998  20.151  0.00  0.00    +0.000 A 
ATOM     22  C   UNL     1      -0.962  11.750  21.398  0.00  0.00    +0.000 A 
ATOM     23  C   UNL     1      -0.855  12.682  22.451  0.00  0.00    +0.000 A 
ATOM     24  C   UNL     1      -0.203  13.920  22.244  0.00  0.00    +0.000 A 
BRANCH  19  26
ATOM     25  C   UNL     1       1.712  15.382  19.462  0.00  0.00    +0.000 C 
ATOM     26  O   UNL     1       0.984  15.357  20.696  0.00  0.00    +0.000 OA
ENDBRANCH  19  26
BRANCH  23  27
ATOM     27  O   UNL     1      -1.484  12.221  23.583  0.00  0.00    +0.000 OA
ATOM     28  C   UNL     1      -2.891  12.048  23.582  0.00  0.00    +0.000 C 
ENDBRANCH  23  27
BRANCH  24  29
ATOM     29  O   UNL     1      -0.178  14.784  23.305  0.00  0.00    +0.000 OA
ATOM     30  C   UNL     1      -1.220  15.730  23.482  0.00  0.00    +0.000 C 
ENDBRANCH  24  29
ENDBRANCH   1  21
TORSDOF 5
ENDMDL
MODEL 4
REMARK VINA RESULT:      -6.4      2.711      5.500
REMARK  Name = 
REMARK  9 active torsions:
REMARK  status: ('A' for Active; 'I' for Inactive)
REMARK    1  A    between atoms: C_1  and  O_2
REMARK    2  A    between atoms: O_2  and  C_3
REMARK    3  A    between atoms: C_5  and  C_6
REMARK    4  A    between atoms: N_13  and  C_14
REMARK    5  A    between atoms: C_17  and  C_18
REMARK    6  A    between atoms: C_24  and  O_25
REMARK    7  A    between atoms: O_25  and  C_26
REMARK    8  A    between atoms: C_27  and  O_28
REMARK    9  A    between atoms: O_28  and  C_29
REMARK                            x       y       z     vdW  Elec       q    Type
REMARK                         _______ _______ _______ _____ _____    ______ ____
ROOT
ATOM      1  C   UNL     1      -4.144  12.404  19.382  0.00  0.00    +0.000 A 
ATOM      2  N   UNL     1      -5.255  12.316  18.667  0.00  0.00    +0.000 NA
ATOM      3  N   UNL     1      -4.964  11.678  17.477  0.00  0.00    +0.000 NA
ATOM      4  C   UNL     1      -3.686  11.405  17.495  0.00  0.00    +0.000 A 
ATOM      5  N   UNL     1      -3.099  11.860  18.647  0.00  0.00    +0.000 N 
ATOM      6  N   UNL     1      -1.773  11.839  19.002  0.00  0.00    +0.000 NA
ATOM      7  C   UNL     1      -0.999  10.969  18.411  0.00  0.00    +0.000 C 
ATOM      8  N   UNL     1       0.340  10.869  18.753  0.00  0.00    +0.000 N 
ATOM      9  C   UNL     1      -1.523   9.902  17.443  0.00  0.00    +0.000 C 
ATOM     10  S   UNL     1      -2.742  10.597  16.302  0.00  0.00    +0.000 S 
ATOM     11  H   UNL     1       0.855  10.042  18.467  0.00  0.00    +0.000 HD
ENDROOT
BRANCH   8  12
ATOM     12  C   UNL     1       1.194  11.921  19.143  0.00  0.00    +0.000 A 
ATOM     13  C   UNL     1       2.032  12.507  18.183  0.00  0.00    +0.000 A 
ATOM     14  C   UNL     1       2.884  13.566  18.518  0.00  0.00    +0.000 A 
ATOM     15  C   UNL     1       2.911  14.067  19.821  0.00  0.00    +0.000 A 
ATOM     16  C   UNL     1       3.761  15.251  20.181  0.00  0.00    +0.000 C 
ATOM     17  C   UNL     1       2.103  13.466  20.791  0.00  0.00    +0.000 A 
ATOM     18  C   UNL     1       1.269  12.392  20.457  0.00  0.00    +0.000 A 
ENDBRANCH   8  12
BRANCH   1  21
ATOM     19  C   UNL     1      -3.256  14.913  22.059  0.00  0.00    +0.000 A 
ATOM     20  C   UNL     1      -3.203  14.154  20.883  0.00  0.00    +0.000 A 
ATOM     21  C   UNL     1      -3.990  13.018  20.706  0.00  0.00    +0.000 A 
ATOM     22  C   UNL     1      -4.677  12.528  21.813  0.00  0.00    +0.000 A 
ATOM     23  C   UNL     1      -4.652  13.203  23.050  0.00  0.00    +0.000 A 
ATOM     24  C   UNL     1      -3.957  14.428  23.180  0.00  0.00    +0.000 A 
BRANCH  19  26
ATOM     25  C   UNL     1      -1.168  16.020  22.148  0.00  0.00    +0.000 C 
ATOM     26  O   UNL     1      -2.598  16.117  22.099  0.00  0.00    +0.000 OA
ENDBRANCH  19  26
BRANCH  23  27
ATOM     27  O   UNL     1      -5.396  12.534  23.992  0.00  0.00    +0.000 OA
ATOM     28  C   UNL     1      -6.811  12.605  23.949  0.00  0.00    +0.000 C 
ENDBRANCH  23  27
BRANCH  24  29
ATOM     29  O   UNL     1      -4.016  15.039  24.404  0.00  0.00    +0.000 OA
ATOM     30  C   UNL     1      -2.945  14.904  25.324  0.00  0.00    +0.000 C 
ENDBRANCH  24  29
ENDBRANCH   1  21
TORSDOF 5
ENDMDL
MODEL 5
REMARK VINA RESULT:      -6.3      2.681      5.509
REMARK  Name = 
REMARK  9 active torsions:
REMARK  status: ('A' for Active; 'I' for Inactive)
REMARK    1  A    between atoms: C_1  and  O_2
REMARK    2  A    between atoms: O_2  and  C_3
REMARK    3  A    between atoms: C_5  and  C_6
REMARK    4  A    between atoms: N_13  and  C_14
REMARK    5  A    between atoms: C_17  and  C_18
REMARK    6  A    between atoms: C_24  and  O_25
REMARK    7  A    between atoms: O_25  and  C_26
REMARK    8  A    between atoms: C_27  and  O_28
REMARK    9  A    between atoms: O_28  and  C_29
REMARK                            x       y       z     vdW  Elec       q    Type
REMARK                         _______ _______ _______ _____ _____    ______ ____
ROOT
ATOM      1  C   UNL     1      -4.415  12.370  19.090  0.00  0.00    +0.000 A 
ATOM      2  N   UNL     1      -5.515  12.367  18.355  0.00  0.00    +0.000 NA
ATOM      3  N   UNL     1      -5.229  11.784  17.136  0.00  0.00    +0.000 NA
ATOM      4  C   UNL     1      -3.963  11.459  17.157  0.00  0.00    +0.000 A 
ATOM      5  N   UNL     1      -3.379  11.825  18.342  0.00  0.00    +0.000 N 
ATOM      6  N   UNL     1      -2.061  11.732  18.715  0.00  0.00    +0.000 NA
ATOM      7  C   UNL     1      -1.312  10.865  18.088  0.00  0.00    +0.000 C 
ATOM      8  N   UNL     1       0.016  10.692  18.444  0.00  0.00    +0.000 N 
ATOM      9  C   UNL     1      -1.861   9.874  17.054  0.00  0.00    +0.000 C 
ATOM     10  S   UNL     1      -3.032  10.681  15.936  0.00  0.00    +0.000 S 
ATOM     11  H   UNL     1       0.502   9.862  18.121  0.00  0.00    +0.000 HD
ENDROOT
BRANCH   8  12
ATOM     12  C   UNL     1       0.903  11.686  18.905  0.00  0.00    +0.000 A 
ATOM     13  C   UNL     1       0.841  12.080  20.250  0.00  0.00    +0.000 A 
ATOM     14  C   UNL     1       1.713  13.050  20.759  0.00  0.00    +0.000 A 
ATOM     15  C   UNL     1       2.672  13.643  19.934  0.00  0.00    +0.000 A 
ATOM     16  C   UNL     1       3.664  14.628  20.481  0.00  0.00    +0.000 C 
ATOM     17  C   UNL     1       2.716  13.280  18.585  0.00  0.00    +0.000 A 
ATOM     18  C   UNL     1       1.827  12.325  18.074  0.00  0.00    +0.000 A 
ENDBRANCH   8  12
BRANCH   1  21
ATOM     19  C   UNL     1      -3.351  14.618  21.930  0.00  0.00    +0.000 A 
ATOM     20  C   UNL     1      -3.331  13.905  20.725  0.00  0.00    +0.000 A 
ATOM     21  C   UNL     1      -4.259  12.903  20.449  0.00  0.00    +0.000 A 
ATOM     22  C   UNL     1      -5.078  12.476  21.490  0.00  0.00    +0.000 A 
ATOM     23  C   UNL     1      -5.036  13.091  22.757  0.00  0.00    +0.000 A 
ATOM     24  C   UNL     1      -4.183  14.196  22.985  0.00  0.00    +0.000 A 
BRANCH  19  26
ATOM     25  C   UNL     1      -1.128  15.420  22.031  0.00  0.00    +0.000 C 
ATOM     26  O   UNL     1      -2.531  15.711  22.066  0.00  0.00    +0.000 OA
ENDBRANCH  19  26
BRANCH  23  27
ATOM     27  O   UNL     1      -5.925  12.500  23.623  0.00  0.00    +0.000 OA
ATOM     28  C   UNL     1      -7.297  12.422  23.273  0.00  0.00    +0.000 C 
ENDBRANCH  23  27
BRANCH  24  29
ATOM     29  O   UNL     1      -4.232  14.761  24.231  0.00  0.00    +0.000 OA
ATOM     30  C   UNL     1      -3.161  14.578  25.143  0.00  0.00    +0.000 C 
ENDBRANCH  24  29
ENDBRANCH   1  21
TORSDOF 5
ENDMDL
MODEL 6
REMARK VINA RESULT:      -6.3      2.684      4.970
REMARK  Name = 
REMARK  9 active torsions:
REMARK  status: ('A' for Active; 'I' for Inactive)
REMARK    1  A    between atoms: C_1  and  O_2
REMARK    2  A    between atoms: O_2  and  C_3
REMARK    3  A    between atoms: C_5  and  C_6
REMARK    4  A    between atoms: N_13  and  C_14
REMARK    5  A    between atoms: C_17  and  C_18
REMARK    6  A    between atoms: C_24  and  O_25
REMARK    7  A    between atoms: O_25  and  C_26
REMARK    8  A    between atoms: C_27  and  O_28
REMARK    9  A    between atoms: O_28  and  C_29
REMARK                            x       y       z     vdW  Elec       q    Type
REMARK                         _______ _______ _______ _____ _____    ______ ____
ROOT
ATOM      1  C   UNL     1      -4.133  12.383  19.301  0.00  0.00    +0.000 A 
ATOM      2  N   UNL     1      -5.240  12.302  18.580  0.00  0.00    +0.000 NA
ATOM      3  N   UNL     1      -4.949  11.654  17.396  0.00  0.00    +0.000 NA
ATOM      4  C   UNL     1      -3.674  11.368  17.422  0.00  0.00    +0.000 A 
ATOM      5  N   UNL     1      -3.089  11.825  18.575  0.00  0.00    +0.000 N 
ATOM      6  N   UNL     1      -1.765  11.794  18.937  0.00  0.00    +0.000 NA
ATOM      7  C   UNL     1      -0.996  10.913  18.355  0.00  0.00    +0.000 C 
ATOM      8  N   UNL     1       0.340  10.802  18.705  0.00  0.00    +0.000 N 
ATOM      9  C   UNL     1      -1.525   9.844  17.391  0.00  0.00    +0.000 C 
ATOM     10  S   UNL     1      -2.732  10.545  16.239  0.00  0.00    +0.000 S 
ATOM     11  H   UNL     1       0.848   9.969  18.427  0.00  0.00    +0.000 HD
ENDROOT
BRANCH   8  12
ATOM     12  C   UNL     1       1.201  11.848  19.093  0.00  0.00    +0.000 A 
ATOM     13  C   UNL     1       2.031  12.438  18.128  0.00  0.00    +0.000 A 
ATOM     14  C   UNL     1       2.891  13.492  18.462  0.00  0.00    +0.000 A 
ATOM     15  C   UNL     1       2.935  13.983  19.768  0.00  0.00    +0.000 A 
ATOM     16  C   UNL     1       3.793  15.162  20.126  0.00  0.00    +0.000 C 
ATOM     17  C   UNL     1       2.135  13.378  20.742  0.00  0.00    +0.000 A 
ATOM     18  C   UNL     1       1.293  12.309  20.410  0.00  0.00    +0.000 A 
ENDBRANCH   8  12
BRANCH   1  21
ATOM     19  C   UNL     1      -4.473  12.978  23.014  0.00  0.00    +0.000 A 
ATOM     20  C   UNL     1      -4.775  12.609  21.697  0.00  0.00    +0.000 A 
ATOM     21  C   UNL     1      -3.980  13.004  20.623  0.00  0.00    +0.000 A 
ATOM     22  C   UNL     1      -2.993  13.955  20.864  0.00  0.00    +0.000 A 
ATOM     23  C   UNL     1      -2.743  14.440  22.163  0.00  0.00    +0.000 A 
ATOM     24  C   UNL     1      -3.469  13.932  23.266  0.00  0.00    +0.000 A 
BRANCH  19  26
ATOM     25  C   UNL     1      -6.592  12.682  24.020  0.00  0.00    +0.000 C 
ATOM     26  O   UNL     1      -5.185  12.408  24.040  0.00  0.00    +0.000 OA
ENDBRANCH  19  26
BRANCH  23  27
ATOM     27  O   UNL     1      -1.731  15.370  22.156  0.00  0.00    +0.000 OA
ATOM     28  C   UNL     1      -1.985  16.679  21.675  0.00  0.00    +0.000 C 
ENDBRANCH  23  27
BRANCH  24  29
ATOM     29  O   UNL     1      -3.138  14.428  24.498  0.00  0.00    +0.000 OA
ATOM     30  C   UNL     1      -3.657  15.675  24.932  0.00  0.00    +0.000 C 
ENDBRANCH  24  29
ENDBRANCH   1  21
TORSDOF 5
ENDMDL
MODEL 7
REMARK VINA RESULT:      -6.3      2.749      5.084
REMARK  Name = 
REMARK  9 active torsions:
REMARK  status: ('A' for Active; 'I' for Inactive)
REMARK    1  A    between atoms: C_1  and  O_2
REMARK    2  A    between atoms: O_2  and  C_3
REMARK    3  A    between atoms: C_5  and  C_6
REMARK    4  A    between atoms: N_13  and  C_14
REMARK    5  A    between atoms: C_17  and  C_18
REMARK    6  A    between atoms: C_24  and  O_25
REMARK    7  A    between atoms: O_25  and  C_26
REMARK    8  A    between atoms: C_27  and  O_28
REMARK    9  A    between atoms: O_28  and  C_29
REMARK                            x       y       z     vdW  Elec       q    Type
REMARK                         _______ _______ _______ _____ _____    ______ ____
ROOT
ATOM      1  C   UNL     1      -4.200  12.286  19.410  0.00  0.00    +0.000 A 
ATOM      2  N   UNL     1      -5.342  12.256  18.741  0.00  0.00    +0.000 NA
ATOM      3  N   UNL     1      -5.106  11.720  17.491  0.00  0.00    +0.000 NA
ATOM      4  C   UNL     1      -3.829  11.449  17.427  0.00  0.00    +0.000 A 
ATOM      5  N   UNL     1      -3.190  11.807  18.586  0.00  0.00    +0.000 N 
ATOM      6  N   UNL     1      -1.849  11.760  18.878  0.00  0.00    +0.000 NA
ATOM      7  C   UNL     1      -1.104  10.944  18.182  0.00  0.00    +0.000 C 
ATOM      8  N   UNL     1       0.248  10.818  18.453  0.00  0.00    +0.000 N 
ATOM      9  C   UNL     1      -1.673   9.960  17.152  0.00  0.00    +0.000 C 
ATOM     10  S   UNL     1      -2.941  10.746  16.130  0.00  0.00    +0.000 S 
ATOM     11  H   UNL     1       0.748  10.019  18.077  0.00  0.00    +0.000 HD
ENDROOT
BRANCH   8  12
ATOM     12  C   UNL     1       1.121  11.836  18.891  0.00  0.00    +0.000 A 
ATOM     13  C   UNL     1       1.137  12.176  20.252  0.00  0.00    +0.000 A 
ATOM     14  C   UNL     1       1.999  13.168  20.738  0.00  0.00    +0.000 A 
ATOM     15  C   UNL     1       2.867  13.837  19.873  0.00  0.00    +0.000 A 
ATOM     16  C   UNL     1       3.850  14.847  20.388  0.00  0.00    +0.000 C 
ATOM     17  C   UNL     1       2.831  13.527  18.510  0.00  0.00    +0.000 A 
ATOM     18  C   UNL     1       1.952  12.550  18.024  0.00  0.00    +0.000 A 
ENDBRANCH   8  12
BRANCH   1  21
ATOM     19  C   UNL     1      -4.883  13.878  22.765  0.00  0.00    +0.000 A 
ATOM     20  C   UNL     1      -4.923  13.613  21.390  0.00  0.00    +0.000 A 
ATOM     21  C   UNL     1      -3.985  12.787  20.773  0.00  0.00    +0.000 A 
ATOM     22  C   UNL     1      -2.875  12.401  21.518  0.00  0.00    +0.000 A 
ATOM     23  C   UNL     1      -2.742  12.756  22.875  0.00  0.00    +0.000 A 
ATOM     24  C   UNL     1      -3.766  13.483  23.526  0.00  0.00    +0.000 A 
BRANCH  19  26
ATOM     25  C   UNL     1      -5.915  15.968  23.166  0.00  0.00    +0.000 C 
ATOM     26  O   UNL     1      -5.935  14.545  23.341  0.00  0.00    +0.000 OA
ENDBRANCH  19  26
BRANCH  23  27
ATOM     27  O   UNL     1      -1.568  12.270  23.399  0.00  0.00    +0.000 OA
ATOM     28  C   UNL     1      -1.087  11.002  22.985  0.00  0.00    +0.000 C 
ENDBRANCH  23  27
BRANCH  24  29
ATOM     29  O   UNL     1      -3.577  13.752  24.854  0.00  0.00    +0.000 OA
ATOM     30  C   UNL     1      -2.935  14.952  25.257  0.00  0.00    +0.000 C 
ENDBRANCH  24  29
ENDBRANCH   1  21
TORSDOF 5
ENDMDL
MODEL 8
REMARK VINA RESULT:      -6.3      2.760      6.246
REMARK  Name = 
REMARK  9 active torsions:
REMARK  status: ('A' for Active; 'I' for Inactive)
REMARK    1  A    between atoms: C_1  and  O_2
REMARK    2  A    between atoms: O_2  and  C_3
REMARK    3  A    between atoms: C_5  and  C_6
REMARK    4  A    between atoms: N_13  and  C_14
REMARK    5  A    between atoms: C_17  and  C_18
REMARK    6  A    between atoms: C_24  and  O_25
REMARK    7  A    between atoms: O_25  and  C_26
REMARK    8  A    between atoms: C_27  and  O_28
REMARK    9  A    between atoms: O_28  and  C_29
REMARK                            x       y       z     vdW  Elec       q    Type
REMARK                         _______ _______ _______ _____ _____    ______ ____
ROOT
ATOM      1  C   UNL     1      -0.804  10.341  18.659  0.00  0.00    +0.000 A 
ATOM      2  N   UNL     1       0.181   9.824  17.942  0.00  0.00    +0.000 NA
ATOM      3  N   UNL     1       1.201   9.455  18.796  0.00  0.00    +0.000 NA
ATOM      4  C   UNL     1       0.816   9.767  20.005  0.00  0.00    +0.000 A 
ATOM      5  N   UNL     1      -0.421  10.357  19.994  0.00  0.00    +0.000 N 
ATOM      6  N   UNL     1      -1.127  10.894  21.042  0.00  0.00    +0.000 NA
ATOM      7  C   UNL     1      -0.828  10.489  22.247  0.00  0.00    +0.000 C 
ATOM      8  N   UNL     1      -1.529  10.961  23.344  0.00  0.00    +0.000 N 
ATOM      9  C   UNL     1       0.177   9.366  22.529  0.00  0.00    +0.000 C 
ATOM     10  S   UNL     1       1.650   9.532  21.494  0.00  0.00    +0.000 S 
ATOM     11  H   UNL     1      -1.450  10.463  24.224  0.00  0.00    +0.000 HD
ENDROOT
BRANCH   8  12
ATOM     12  C   UNL     1      -2.071  12.253  23.509  0.00  0.00    +0.000 A 
ATOM     13  C   UNL     1      -3.413  12.382  23.895  0.00  0.00    +0.000 A 
ATOM     14  C   UNL     1      -3.991  13.643  24.088  0.00  0.00    +0.000 A 
ATOM     15  C   UNL     1      -3.236  14.803  23.905  0.00  0.00    +0.000 A 
ATOM     16  C   UNL     1      -3.816  16.160  24.182  0.00  0.00    +0.000 C 
ATOM     17  C   UNL     1      -1.907  14.683  23.487  0.00  0.00    +0.000 A 
ATOM     18  C   UNL     1      -1.339  13.420  23.273  0.00  0.00    +0.000 A 
ENDBRANCH   8  12
BRANCH   1  21
ATOM     19  C   UNL     1      -3.780  10.923  16.410  0.00  0.00    +0.000 A 
ATOM     20  C   UNL     1      -2.470  10.673  16.837  0.00  0.00    +0.000 A 
ATOM     21  C   UNL     1      -2.078  10.873  18.159  0.00  0.00    +0.000 A 
ATOM     22  C   UNL     1      -2.966  11.533  19.004  0.00  0.00    +0.000 A 
ATOM     23  C   UNL     1      -4.251  11.910  18.568  0.00  0.00    +0.000 A 
ATOM     24  C   UNL     1      -4.686  11.582  17.262  0.00  0.00    +0.000 A 
BRANCH  19  26
ATOM     25  C   UNL     1      -3.069  10.093  14.312  0.00  0.00    +0.000 C 
ATOM     26  O   UNL     1      -4.149  10.534  15.145  0.00  0.00    +0.000 OA
ENDBRANCH  19  26
BRANCH  23  27
ATOM     27  O   UNL     1      -4.944  12.549  19.569  0.00  0.00    +0.000 OA
ATOM     28  C   UNL     1      -4.250  13.385  20.479  0.00  0.00    +0.000 C 
ENDBRANCH  23  27
BRANCH  24  29
ATOM     29  O   UNL     1      -5.962  11.950  16.931  0.00  0.00    +0.000 OA
ATOM     30  C   UNL     1      -6.310  13.322  16.834  0.00  0.00    +0.000 C 
ENDBRANCH  24  29
ENDBRANCH   1  21
TORSDOF 5
ENDMDL
MODEL 9
REMARK VINA RESULT:      -6.3      2.662      5.540
REMARK  Name = 
REMARK  9 active torsions:
REMARK  status: ('A' for Active; 'I' for Inactive)
REMARK    1  A    between atoms: C_1  and  O_2
REMARK    2  A    between atoms: O_2  and  C_3
REMARK    3  A    between atoms: C_5  and  C_6
REMARK    4  A    between atoms: N_13  and  C_14
REMARK    5  A    between atoms: C_17  and  C_18
REMARK    6  A    between atoms: C_24  and  O_25
REMARK    7  A    between atoms: O_25  and  C_26
REMARK    8  A    between atoms: C_27  and  O_28
REMARK    9  A    between atoms: O_28  and  C_29
REMARK                            x       y       z     vdW  Elec       q    Type
REMARK                         _______ _______ _______ _____ _____    ______ ____
ROOT
ATOM      1  C   UNL     1      -4.569  12.229  18.921  0.00  0.00    +0.000 A 
ATOM      2  N   UNL     1      -5.627  12.243  18.126  0.00  0.00    +0.000 NA
ATOM      3  N   UNL     1      -5.266  11.716  16.902  0.00  0.00    +0.000 NA
ATOM      4  C   UNL     1      -3.999  11.407  16.980  0.00  0.00    +0.000 A 
ATOM      5  N   UNL     1      -3.486  11.731  18.209  0.00  0.00    +0.000 N 
ATOM      6  N   UNL     1      -2.189  11.638  18.651  0.00  0.00    +0.000 NA
ATOM      7  C   UNL     1      -1.394  10.808  18.031  0.00  0.00    +0.000 C 
ATOM      8  N   UNL     1      -0.085  10.637  18.452  0.00  0.00    +0.000 N 
ATOM      9  C   UNL     1      -1.870   9.856  16.927  0.00  0.00    +0.000 C 
ATOM     10  S   UNL     1      -2.990  10.694  15.780  0.00  0.00    +0.000 S 
ATOM     11  H   UNL     1       0.431   9.829  18.122  0.00  0.00    +0.000 HD
ENDROOT
BRANCH   8  12
ATOM     12  C   UNL     1       0.761  11.622  19.003  0.00  0.00    +0.000 A 
ATOM     13  C   UNL     1       1.735  12.215  18.186  0.00  0.00    +0.000 A 
ATOM     14  C   UNL     1       2.586  13.210  18.683  0.00  0.00    +0.000 A 
ATOM     15  C   UNL     1       2.477  13.638  20.008  0.00  0.00    +0.000 A 
ATOM     16  C   UNL     1       3.329  14.755  20.535  0.00  0.00    +0.000 C 
ATOM     17  C   UNL     1       1.531  13.027  20.837  0.00  0.00    +0.000 A 
ATOM     18  C   UNL     1       0.697  12.016  20.343  0.00  0.00    +0.000 A 
ENDBRANCH   8  12
BRANCH   1  21
ATOM     19  C   UNL     1      -3.228  13.819  22.072  0.00  0.00    +0.000 A 
ATOM     20  C   UNL     1      -3.286  13.111  20.865  0.00  0.00    +0.000 A 
ATOM     21  C   UNL     1      -4.497  12.706  20.308  0.00  0.00    +0.000 A 
ATOM     22  C   UNL     1      -5.642  12.834  21.088  0.00  0.00    +0.000 A 
ATOM     23  C   UNL     1      -5.599  13.432  22.363  0.00  0.00    +0.000 A 
ATOM     24  C   UNL     1      -4.385  13.960  22.862  0.00  0.00    +0.000 A 
BRANCH  19  26
ATOM     25  C   UNL     1      -1.224  13.476  23.280  0.00  0.00    +0.000 C 
ATOM     26  O   UNL     1      -2.026  14.348  22.472  0.00  0.00    +0.000 OA
ENDBRANCH  19  26
BRANCH  23  27
ATOM     27  O   UNL     1      -6.844  13.443  22.945  0.00  0.00    +0.000 OA
ATOM     28  C   UNL     1      -7.237  12.369  23.782  0.00  0.00    +0.000 C 
ENDBRANCH  23  27
BRANCH  24  29
ATOM     29  O   UNL     1      -4.438  14.560  24.091  0.00  0.00    +0.000 OA
ATOM     30  C   UNL     1      -4.682  15.953  24.198  0.00  0.00    +0.000 C 
ENDBRANCH  24  29
ENDBRANCH   1  21
TORSDOF 5
ENDMDL
