MODEL 1
REMARK VINA RESULT:      -7.0      0.000      0.000
REMARK  Name = 
REMARK  6 active torsions:
REMARK  status: ('A' for Active; 'I' for Inactive)
REMARK    1  A    between atoms: C_2  and  C_3
REMARK    2  A    between atoms: C_2  and  C_17
REMARK    3  A    between atoms: C_3  and  C_4
REMARK    4  A    between atoms: C_4  and  C_5
REMARK    5  A    between atoms: C_4  and  C_12
REMARK    6  A    between atoms: C_5  and  C_7
REMARK                            x       y       z     vdW  Elec       q    Type
REMARK                         _______ _______ _______ _____ _____    ______ ____
ROOT
ATOM      1  C   UNL     1       3.092   5.835  18.261  0.00  0.00    +0.000 C 
ENDROOT
BRANCH   1   2
ATOM      2  C   UNL     1       2.468   7.196  18.526  0.00  0.00    +0.000 A 
ATOM      3  C   UNL     1       1.928   7.666  19.772  0.00  0.00    +0.000 A 
ATOM      4  C   UNL     1       1.457   8.958  19.700  0.00  0.00    +0.000 A 
ATOM      5  S   UNL     1       1.661   9.628  18.143  0.00  0.00    +0.000 S 
ATOM      6  C   UNL     1       2.373   8.189  17.562  0.00  0.00    +0.000 A 
ENDBRANCH   1   2
BRANCH   1   7
ATOM      7  C   UNL     1       2.055   4.697  18.267  0.00  0.00    +0.000 C 
ATOM      8  O   UNL     1       1.288   4.569  17.302  0.00  0.00    +0.000 OA
BRANCH   7   9
ATOM      9  C   UNL     1       1.910   3.861  19.455  0.00  0.00    +0.000 A 
ATOM     10  C   UNL     1       1.362   4.253  20.665  0.00  0.00    +0.000 A 
ATOM     11  C   UNL     1       1.442   3.235  21.657  0.00  0.00    +0.000 A 
ATOM     12  C   UNL     1       1.996   2.078  21.161  0.00  0.00    +0.000 A 
ATOM     13  S   UNL     1       2.403   2.224  19.507  0.00  0.00    +0.000 S 
ENDBRANCH   7   9
ENDBRANCH   1   7
BRANCH   1  14
ATOM     14  C   UNL     1       4.185   5.511  19.300  0.00  0.00    +0.000 C 
BRANCH  14  16
ATOM     15  O   UNL     1       5.669   3.653  19.429  0.00  0.00    +0.000 OA
ATOM     16  C   UNL     1       5.210   4.547  18.711  0.00  0.00    +0.000 C 
BRANCH  16  17
ATOM     17  C   UNL     1       5.601   4.654  17.310  0.00  0.00    +0.000 A 
ATOM     18  C   UNL     1       5.091   3.901  16.266  0.00  0.00    +0.000 A 
ATOM     19  C   UNL     1       5.684   4.217  15.012  0.00  0.00    +0.000 A 
ATOM     20  C   UNL     1       6.633   5.206  15.133  0.00  0.00    +0.000 A 
ATOM     21  S   UNL     1       6.783   5.755  16.745  0.00  0.00    +0.000 S 
ENDBRANCH  16  17
ENDBRANCH  14  16
ENDBRANCH   1  14
TORSDOF 6
ENDMDL
MODEL 2
REMARK VINA RESULT:      -6.8      1.985      6.073
REMARK  Name = 
REMARK  6 active torsions:
REMARK  status: ('A' for Active; 'I' for Inactive)
REMARK    1  A    between atoms: C_2  and  C_3
REMARK    2  A    between atoms: C_2  and  C_17
REMARK    3  A    between atoms: C_3  and  C_4
REMARK    4  A    between atoms: C_4  and  C_5
REMARK    5  A    between atoms: C_4  and  C_12
REMARK    6  A    between atoms: C_5  and  C_7
REMARK                            x       y       z     vdW  Elec       q    Type
REMARK                         _______ _______ _______ _____ _____    ______ ____
ROOT
ATOM      1  C   UNL     1       2.869   5.727  18.098  0.00  0.00    +0.000 C 
ENDROOT
BRANCH   1   2
ATOM      2  C   UNL     1       2.231   4.690  19.009  0.00  0.00    +0.000 A 
ATOM      3  C   UNL     1       1.267   3.694  18.634  0.00  0.00    +0.000 A 
ATOM      4  C   UNL     1       0.898   2.881  19.683  0.00  0.00    +0.000 A 
ATOM      5  S   UNL     1       1.707   3.295  21.129  0.00  0.00    +0.000 S 
ATOM      6  C   UNL     1       2.546   4.566  20.354  0.00  0.00    +0.000 A 
ENDBRANCH   1   2
BRANCH   1   7
ATOM      7  C   UNL     1       4.123   5.194  17.381  0.00  0.00    +0.000 C 
ATOM      8  O   UNL     1       4.021   4.220  16.622  0.00  0.00    +0.000 OA
BRANCH   7   9
ATOM      9  C   UNL     1       5.429   5.764  17.696  0.00  0.00    +0.000 A 
ATOM     10  C   UNL     1       6.074   6.766  16.990  0.00  0.00    +0.000 A 
ATOM     11  C   UNL     1       7.376   7.043  17.496  0.00  0.00    +0.000 A 
ATOM     12  C   UNL     1       7.664   6.286  18.607  0.00  0.00    +0.000 A 
ATOM     13  S   UNL     1       6.366   5.260  19.036  0.00  0.00    +0.000 S 
ENDBRANCH   7   9
ENDBRANCH   1   7
BRANCH   1  14
ATOM     14  C   UNL     1       3.254   6.998  18.883  0.00  0.00    +0.000 C 
BRANCH  14  16
ATOM     15  O   UNL     1       2.311   8.563  17.356  0.00  0.00    +0.000 OA
ATOM     16  C   UNL     1       2.324   8.150  18.520  0.00  0.00    +0.000 C 
BRANCH  16  17
ATOM     17  C   UNL     1       1.431   8.720  19.523  0.00  0.00    +0.000 A 
ATOM     18  C   UNL     1       1.293   8.279  20.828  0.00  0.00    +0.000 A 
ATOM     19  C   UNL     1       0.328   9.020  21.565  0.00  0.00    +0.000 A 
ATOM     20  C   UNL     1      -0.245  10.010  20.801  0.00  0.00    +0.000 A 
ATOM     21  S   UNL     1       0.399  10.050  19.217  0.00  0.00    +0.000 S 
ENDBRANCH  16  17
ENDBRANCH  14  16
ENDBRANCH   1  14
TORSDOF 6
ENDMDL
MODEL 3
REMARK VINA RESULT:      -6.8      0.753      1.059
REMARK  Name = 
REMARK  6 active torsions:
REMARK  status: ('A' for Active; 'I' for Inactive)
REMARK    1  A    between atoms: C_2  and  C_3
REMARK    2  A    between atoms: C_2  and  C_17
REMARK    3  A    between atoms: C_3  and  C_4
REMARK    4  A    between atoms: C_4  and  C_5
REMARK    5  A    between atoms: C_4  and  C_12
REMARK    6  A    between atoms: C_5  and  C_7
REMARK                            x       y       z     vdW  Elec       q    Type
REMARK                         _______ _______ _______ _____ _____    ______ ____
ROOT
ATOM      1  C   UNL     1       3.254   5.800  18.401  0.00  0.00    +0.000 C 
ENDROOT
BRANCH   1   2
ATOM      2  C   UNL     1       2.603   7.165  18.561  0.00  0.00    +0.000 A 
ATOM      3  C   UNL     1       2.504   8.192  17.561  0.00  0.00    +0.000 A 
ATOM      4  C   UNL     1       1.830   9.309  18.003  0.00  0.00    +0.000 A 
ATOM      5  S   UNL     1       1.301   9.140  19.617  0.00  0.00    +0.000 S 
ATOM      6  C   UNL     1       1.978   7.576  19.729  0.00  0.00    +0.000 A 
ENDBRANCH   1   2
BRANCH   1   7
ATOM      7  C   UNL     1       2.226   4.653  18.373  0.00  0.00    +0.000 C 
ATOM      8  O   UNL     1       1.469   4.539  17.399  0.00  0.00    +0.000 OA
BRANCH   7   9
ATOM      9  C   UNL     1       2.077   3.792  19.542  0.00  0.00    +0.000 A 
ATOM     10  C   UNL     1       1.098   3.901  20.516  0.00  0.00    +0.000 A 
ATOM     11  C   UNL     1       1.273   2.966  21.576  0.00  0.00    +0.000 A 
ATOM     12  C   UNL     1       2.345   2.134  21.352  0.00  0.00    +0.000 A 
ATOM     13  S   UNL     1       3.121   2.476  19.868  0.00  0.00    +0.000 S 
ENDBRANCH   7   9
ENDBRANCH   1   7
BRANCH   1  14
ATOM     14  C   UNL     1       4.264   5.528  19.534  0.00  0.00    +0.000 C 
BRANCH  14  16
ATOM     15  O   UNL     1       6.624   5.273  19.726  0.00  0.00    +0.000 OA
ATOM     16  C   UNL     1       5.655   5.284  18.960  0.00  0.00    +0.000 C 
BRANCH  16  17
ATOM     17  C   UNL     1       5.828   5.019  17.536  0.00  0.00    +0.000 A 
ATOM     18  C   UNL     1       5.381   3.896  16.861  0.00  0.00    +0.000 A 
ATOM     19  C   UNL     1       5.717   3.909  15.478  0.00  0.00    +0.000 A 
ATOM     20  C   UNL     1       6.413   5.045  15.135  0.00  0.00    +0.000 A 
ATOM     21  S   UNL     1       6.634   6.089  16.471  0.00  0.00    +0.000 S 
ENDBRANCH  16  17
ENDBRANCH  14  16
ENDBRANCH   1  14
TORSDOF 6
ENDMDL
MODEL 4
REMARK VINA RESULT:      -6.8      1.911      5.040
REMARK  Name = 
REMARK  6 active torsions:
REMARK  status: ('A' for Active; 'I' for Inactive)
REMARK    1  A    between atoms: C_2  and  C_3
REMARK    2  A    between atoms: C_2  and  C_17
REMARK    3  A    between atoms: C_3  and  C_4
REMARK    4  A    between atoms: C_4  and  C_5
REMARK    5  A    between atoms: C_4  and  C_12
REMARK    6  A    between atoms: C_5  and  C_7
REMARK                            x       y       z     vdW  Elec       q    Type
REMARK                         _______ _______ _______ _____ _____    ______ ____
ROOT
ATOM      1  C   UNL     1       3.642   5.117  18.027  0.00  0.00    +0.000 C 
ENDROOT
BRANCH   1   2
ATOM      2  C   UNL     1       2.985   6.408  18.487  0.00  0.00    +0.000 A 
ATOM      3  C   UNL     1       2.840   7.617  17.724  0.00  0.00    +0.000 A 
ATOM      4  C   UNL     1       2.172   8.608  18.410  0.00  0.00    +0.000 A 
ATOM      5  S   UNL     1       1.705   8.102  19.972  0.00  0.00    +0.000 S 
ATOM      6  C   UNL     1       2.400   6.560  19.735  0.00  0.00    +0.000 A 
ENDBRANCH   1   2
BRANCH   1   7
ATOM      7  C   UNL     1       4.889   5.363  17.157  0.00  0.00    +0.000 C 
ATOM      8  O   UNL     1       4.851   5.088  15.950  0.00  0.00    +0.000 OA
BRANCH   7   9
ATOM      9  C   UNL     1       6.130   5.803  17.786  0.00  0.00    +0.000 A 
ATOM     10  C   UNL     1       6.808   5.147  18.800  0.00  0.00    +0.000 A 
ATOM     11  C   UNL     1       7.942   5.875  19.261  0.00  0.00    +0.000 A 
ATOM     12  C   UNL     1       8.129   7.036  18.549  0.00  0.00    +0.000 A 
ATOM     13  S   UNL     1       6.949   7.234  17.328  0.00  0.00    +0.000 S 
ENDBRANCH   7   9
ENDBRANCH   1   7
BRANCH   1  14
ATOM     14  C   UNL     1       2.653   4.239  17.232  0.00  0.00    +0.000 C 
BRANCH  14  16
ATOM     15  O   UNL     1       2.512   1.863  17.251  0.00  0.00    +0.000 OA
ATOM     16  C   UNL     1       2.458   2.896  17.925  0.00  0.00    +0.000 C 
BRANCH  16  17
ATOM     17  C   UNL     1       2.258   2.834  19.370  0.00  0.00    +0.000 A 
ATOM     18  C   UNL     1       1.052   3.002  20.029  0.00  0.00    +0.000 A 
ATOM     19  C   UNL     1       1.175   2.909  21.443  0.00  0.00    +0.000 A 
ATOM     20  C   UNL     1       2.474   2.670  21.826  0.00  0.00    +0.000 A 
ATOM     21  S   UNL     1       3.524   2.541  20.482  0.00  0.00    +0.000 S 
ENDBRANCH  16  17
ENDBRANCH  14  16
ENDBRANCH   1  14
TORSDOF 6
ENDMDL
MODEL 5
REMARK VINA RESULT:      -6.7      1.288      4.882
REMARK  Name = 
REMARK  6 active torsions:
REMARK  status: ('A' for Active; 'I' for Inactive)
REMARK    1  A    between atoms: C_2  and  C_3
REMARK    2  A    between atoms: C_2  and  C_17
REMARK    3  A    between atoms: C_3  and  C_4
REMARK    4  A    between atoms: C_4  and  C_5
REMARK    5  A    between atoms: C_4  and  C_12
REMARK    6  A    between atoms: C_5  and  C_7
REMARK                            x       y       z     vdW  Elec       q    Type
REMARK                         _______ _______ _______ _____ _____    ______ ____
ROOT
ATOM      1  C   UNL     1       2.766   5.855  18.817  0.00  0.00    +0.000 C 
ENDROOT
BRANCH   1   2
ATOM      2  C   UNL     1       2.309   7.305  18.821  0.00  0.00    +0.000 A 
ATOM      3  C   UNL     1       2.318   8.212  17.707  0.00  0.00    +0.000 A 
ATOM      4  C   UNL     1       1.814   9.455  18.022  0.00  0.00    +0.000 A 
ATOM      5  S   UNL     1       1.316   9.549  19.652  0.00  0.00    +0.000 S 
ATOM      6  C   UNL     1       1.781   7.931  19.941  0.00  0.00    +0.000 A 
ENDBRANCH   1   2
BRANCH   1   7
ATOM      7  C   UNL     1       4.288   5.714  18.630  0.00  0.00    +0.000 C 
ATOM      8  O   UNL     1       5.034   5.836  19.612  0.00  0.00    +0.000 OA
BRANCH   7   9
ATOM      9  C   UNL     1       4.838   5.561  17.287  0.00  0.00    +0.000 A 
ATOM     10  C   UNL     1       4.993   6.568  16.349  0.00  0.00    +0.000 A 
ATOM     11  C   UNL     1       5.477   6.084  15.100  0.00  0.00    +0.000 A 
ATOM     12  C   UNL     1       5.730   4.732  15.138  0.00  0.00    +0.000 A 
ATOM     13  S   UNL     1       5.396   4.063  16.676  0.00  0.00    +0.000 S 
ENDBRANCH   7   9
ENDBRANCH   1   7
BRANCH   1  14
ATOM     14  C   UNL     1       2.058   5.050  17.707  0.00  0.00    +0.000 C 
BRANCH  14  16
ATOM     15  O   UNL     1       2.033   2.736  17.148  0.00  0.00    +0.000 OA
ATOM     16  C   UNL     1       2.031   3.567  18.061  0.00  0.00    +0.000 C 
BRANCH  16  17
ATOM     17  C   UNL     1       2.050   3.142  19.456  0.00  0.00    +0.000 A 
ATOM     18  C   UNL     1       0.977   3.181  20.330  0.00  0.00    +0.000 A 
ATOM     19  C   UNL     1       1.306   2.721  21.635  0.00  0.00    +0.000 A 
ATOM     20  C   UNL     1       2.625   2.340  21.722  0.00  0.00    +0.000 A 
ATOM     21  S   UNL     1       3.443   2.522  20.231  0.00  0.00    +0.000 S 
ENDBRANCH  16  17
ENDBRANCH  14  16
ENDBRANCH   1  14
TORSDOF 6
ENDMDL
MODEL 6
REMARK VINA RESULT:      -6.7      1.581      6.102
REMARK  Name = 
REMARK  6 active torsions:
REMARK  status: ('A' for Active; 'I' for Inactive)
REMARK    1  A    between atoms: C_2  and  C_3
REMARK    2  A    between atoms: C_2  and  C_17
REMARK    3  A    between atoms: C_3  and  C_4
REMARK    4  A    between atoms: C_4  and  C_5
REMARK    5  A    between atoms: C_4  and  C_12
REMARK    6  A    between atoms: C_5  and  C_7
REMARK                            x       y       z     vdW  Elec       q    Type
REMARK                         _______ _______ _______ _____ _____    ______ ____
ROOT
ATOM      1  C   UNL     1       3.093   5.620  18.529  0.00  0.00    +0.000 C 
ENDROOT
BRANCH   1   2
ATOM      2  C   UNL     1       2.257   4.436  18.989  0.00  0.00    +0.000 A 
ATOM      3  C   UNL     1       1.866   4.133  20.338  0.00  0.00    +0.000 A 
ATOM      4  C   UNL     1       1.083   3.003  20.429  0.00  0.00    +0.000 A 
ATOM      5  S   UNL     1       0.801   2.295  18.902  0.00  0.00    +0.000 S 
ATOM      6  C   UNL     1       1.731   3.495  18.118  0.00  0.00    +0.000 A 
ENDBRANCH   1   2
BRANCH   1   7
ATOM      7  C   UNL     1       4.605   5.331  18.576  0.00  0.00    +0.000 C 
ATOM      8  O   UNL     1       5.215   5.455  19.647  0.00  0.00    +0.000 OA
BRANCH   7   9
ATOM      9  C   UNL     1       5.320   5.032  17.339  0.00  0.00    +0.000 A 
ATOM     10  C   UNL     1       4.841   4.274  16.283  0.00  0.00    +0.000 A 
ATOM     11  C   UNL     1       5.810   4.092  15.256  0.00  0.00    +0.000 A 
ATOM     12  C   UNL     1       6.979   4.762  15.530  0.00  0.00    +0.000 A 
ATOM     13  S   UNL     1       6.895   5.612  17.011  0.00  0.00    +0.000 S 
ENDBRANCH   7   9
ENDBRANCH   1   7
BRANCH   1  14
ATOM     14  C   UNL     1       2.806   6.872  19.383  0.00  0.00    +0.000 C 
BRANCH  14  16
ATOM     15  O   UNL     1       2.864   8.144  17.371  0.00  0.00    +0.000 OA
ATOM     16  C   UNL     1       2.368   8.032  18.496  0.00  0.00    +0.000 C 
BRANCH  16  17
ATOM     17  C   UNL     1       1.344   8.965  18.956  0.00  0.00    +0.000 A 
ATOM     18  C   UNL     1       0.607   9.819  18.154  0.00  0.00    +0.000 A 
ATOM     19  C   UNL     1      -0.303  10.626  18.891  0.00  0.00    +0.000 A 
ATOM     20  C   UNL     1      -0.237  10.364  20.240  0.00  0.00    +0.000 A 
ATOM     21  S   UNL     1       0.901   9.140  20.599  0.00  0.00    +0.000 S 
ENDBRANCH  16  17
ENDBRANCH  14  16
ENDBRANCH   1  14
TORSDOF 6
ENDMDL
MODEL 7
REMARK VINA RESULT:      -6.6      1.725      4.751
REMARK  Name = 
REMARK  6 active torsions:
REMARK  status: ('A' for Active; 'I' for Inactive)
REMARK    1  A    between atoms: C_2  and  C_3
REMARK    2  A    between atoms: C_2  and  C_17
REMARK    3  A    between atoms: C_3  and  C_4
REMARK    4  A    between atoms: C_4  and  C_5
REMARK    5  A    between atoms: C_4  and  C_12
REMARK    6  A    between atoms: C_5  and  C_7
REMARK                            x       y       z     vdW  Elec       q    Type
REMARK                         _______ _______ _______ _____ _____    ______ ____
ROOT
ATOM      1  C   UNL     1       2.930   6.150  18.553  0.00  0.00    +0.000 C 
ENDROOT
BRANCH   1   2
ATOM      2  C   UNL     1       2.220   7.300  19.250  0.00  0.00    +0.000 A 
ATOM      3  C   UNL     1       1.795   8.535  18.653  0.00  0.00    +0.000 A 
ATOM      4  C   UNL     1       1.153   9.369  19.543  0.00  0.00    +0.000 A 
ATOM      5  S   UNL     1       1.045   8.680  21.101  0.00  0.00    +0.000 S 
ATOM      6  C   UNL     1       1.862   7.270  20.590  0.00  0.00    +0.000 A 
ENDBRANCH   1   2
BRANCH   1   7
ATOM      7  C   UNL     1       4.087   6.625  17.655  0.00  0.00    +0.000 C 
ATOM      8  O   UNL     1       3.928   7.622  16.937  0.00  0.00    +0.000 OA
BRANCH   7   9
ATOM      9  C   UNL     1       5.308   5.830  17.572  0.00  0.00    +0.000 A 
ATOM     10  C   UNL     1       6.204   5.600  18.603  0.00  0.00    +0.000 A 
ATOM     11  C   UNL     1       7.343   4.856  18.183  0.00  0.00    +0.000 A 
ATOM     12  C   UNL     1       7.257   4.490  16.860  0.00  0.00    +0.000 A 
ATOM     13  S   UNL     1       5.805   5.034  16.141  0.00  0.00    +0.000 S 
ENDBRANCH   7   9
ENDBRANCH   1   7
BRANCH   1  14
ATOM     14  C   UNL     1       1.948   5.326  17.695  0.00  0.00    +0.000 C 
BRANCH  14  16
ATOM     15  O   UNL     1       2.269   3.061  17.035  0.00  0.00    +0.000 OA
ATOM     16  C   UNL     1       2.110   3.837  17.981  0.00  0.00    +0.000 C 
BRANCH  16  17
ATOM     17  C   UNL     1       2.124   3.350  19.356  0.00  0.00    +0.000 A 
ATOM     18  C   UNL     1       1.045   3.341  20.224  0.00  0.00    +0.000 A 
ATOM     19  C   UNL     1       1.370   2.823  21.509  0.00  0.00    +0.000 A 
ATOM     20  C   UNL     1       2.691   2.450  21.587  0.00  0.00    +0.000 A 
ATOM     21  S   UNL     1       3.517   2.706  20.112  0.00  0.00    +0.000 S 
ENDBRANCH  16  17
ENDBRANCH  14  16
ENDBRANCH   1  14
TORSDOF 6
ENDMDL
MODEL 8
REMARK VINA RESULT:      -6.6      1.815      5.919
REMARK  Name = 
REMARK  6 active torsions:
REMARK  status: ('A' for Active; 'I' for Inactive)
REMARK    1  A    between atoms: C_2  and  C_3
REMARK    2  A    between atoms: C_2  and  C_17
REMARK    3  A    between atoms: C_3  and  C_4
REMARK    4  A    between atoms: C_4  and  C_5
REMARK    5  A    between atoms: C_4  and  C_12
REMARK    6  A    between atoms: C_5  and  C_7
REMARK                            x       y       z     vdW  Elec       q    Type
REMARK                         _______ _______ _______ _____ _____    ______ ____
ROOT
ATOM      1  C   UNL     1       3.027   5.722  17.859  0.00  0.00    +0.000 C 
ENDROOT
BRANCH   1   2
ATOM      2  C   UNL     1       2.255   4.677  18.649  0.00  0.00    +0.000 A 
ATOM      3  C   UNL     1       2.068   4.641  20.073  0.00  0.00    +0.000 A 
ATOM      4  C   UNL     1       1.294   3.579  20.486  0.00  0.00    +0.000 A 
ATOM      5  S   UNL     1       0.777   2.615  19.175  0.00  0.00    +0.000 S 
ATOM      6  C   UNL     1       1.593   3.613  18.054  0.00  0.00    +0.000 A 
ENDBRANCH   1   2
BRANCH   1   7
ATOM      7  C   UNL     1       4.339   5.171  17.271  0.00  0.00    +0.000 C 
ATOM      8  O   UNL     1       4.291   4.339  16.354  0.00  0.00    +0.000 OA
BRANCH   7   9
ATOM      9  C   UNL     1       5.613   5.542  17.879  0.00  0.00    +0.000 A 
ATOM     10  C   UNL     1       6.123   5.049  19.069  0.00  0.00    +0.000 A 
ATOM     11  C   UNL     1       7.349   5.672  19.439  0.00  0.00    +0.000 A 
ATOM     12  C   UNL     1       7.767   6.580  18.494  0.00  0.00    +0.000 A 
ATOM     13  S   UNL     1       6.690   6.665  17.169  0.00  0.00    +0.000 S 
ENDBRANCH   7   9
ENDBRANCH   1   7
BRANCH   1  14
ATOM     14  C   UNL     1       3.358   6.950  18.733  0.00  0.00    +0.000 C 
BRANCH  14  16
ATOM     15  O   UNL     1       2.344   8.531  17.271  0.00  0.00    +0.000 OA
ATOM     16  C   UNL     1       2.402   8.096  18.425  0.00  0.00    +0.000 C 
BRANCH  16  17
ATOM     17  C   UNL     1       1.537   8.635  19.469  0.00  0.00    +0.000 A 
ATOM     18  C   UNL     1       1.415   8.139  20.756  0.00  0.00    +0.000 A 
ATOM     19  C   UNL     1       0.475   8.861  21.543  0.00  0.00    +0.000 A 
ATOM     20  C   UNL     1      -0.096   9.892  20.833  0.00  0.00    +0.000 A 
ATOM     21  S   UNL     1       0.519   9.991  19.241  0.00  0.00    +0.000 S 
ENDBRANCH  16  17
ENDBRANCH  14  16
ENDBRANCH   1  14
TORSDOF 6
ENDMDL
MODEL 9
REMARK VINA RESULT:      -6.6      1.906      5.019
REMARK  Name = 
REMARK  6 active torsions:
REMARK  status: ('A' for Active; 'I' for Inactive)
REMARK    1  A    between atoms: C_2  and  C_3
REMARK    2  A    between atoms: C_2  and  C_17
REMARK    3  A    between atoms: C_3  and  C_4
REMARK    4  A    between atoms: C_4  and  C_5
REMARK    5  A    between atoms: C_4  and  C_12
REMARK    6  A    between atoms: C_5  and  C_7
REMARK                            x       y       z     vdW  Elec       q    Type
REMARK                         _______ _______ _______ _____ _____    ______ ____
ROOT
ATOM      1  C   UNL     1       3.710   5.218  18.016  0.00  0.00    +0.000 C 
ENDROOT
BRANCH   1   2
ATOM      2  C   UNL     1       2.997   6.511  18.377  0.00  0.00    +0.000 A 
ATOM      3  C   UNL     1       2.385   6.832  19.637  0.00  0.00    +0.000 A 
ATOM      4  C   UNL     1       1.840   8.097  19.663  0.00  0.00    +0.000 A 
ATOM      5  S   UNL     1       2.061   8.919  18.183  0.00  0.00    +0.000 S 
ATOM      6  C   UNL     1       2.878   7.582  17.504  0.00  0.00    +0.000 A 
ENDBRANCH   1   2
BRANCH   1   7
ATOM      7  C   UNL     1       4.961   5.454  17.148  0.00  0.00    +0.000 C 
ATOM      8  O   UNL     1       4.930   5.156  15.946  0.00  0.00    +0.000 OA
BRANCH   7   9
ATOM      9  C   UNL     1       6.197   5.910  17.776  0.00  0.00    +0.000 A 
ATOM     10  C   UNL     1       6.856   5.291  18.825  0.00  0.00    +0.000 A 
ATOM     11  C   UNL     1       7.989   6.029  19.272  0.00  0.00    +0.000 A 
ATOM     12  C   UNL     1       8.195   7.159  18.515  0.00  0.00    +0.000 A 
ATOM     13  S   UNL     1       7.033   7.315  17.271  0.00  0.00    +0.000 S 
ENDBRANCH   7   9
ENDBRANCH   1   7
BRANCH   1  14
ATOM     14  C   UNL     1       2.769   4.251  17.269  0.00  0.00    +0.000 C 
BRANCH  14  16
ATOM     15  O   UNL     1       2.930   1.878  17.378  0.00  0.00    +0.000 OA
ATOM     16  C   UNL     1       2.688   2.915  18.001  0.00  0.00    +0.000 C 
BRANCH  16  17
ATOM     17  C   UNL     1       2.375   2.875  19.426  0.00  0.00    +0.000 A 
ATOM     18  C   UNL     1       3.259   2.544  20.440  0.00  0.00    +0.000 A 
ATOM     19  C   UNL     1       2.658   2.571  21.730  0.00  0.00    +0.000 A 
ATOM     20  C   UNL     1       1.330   2.923  21.665  0.00  0.00    +0.000 A 
ATOM     21  S   UNL     1       0.828   3.236  20.061  0.00  0.00    +0.000 S 
ENDBRANCH  16  17
ENDBRANCH  14  16
ENDBRANCH   1  14
TORSDOF 6
ENDMDL
