MODEL 1
REMARK VINA RESULT:      -9.0      0.000      0.000
REMARK  Name = 
REMARK  7 active torsions:
REMARK  status: ('A' for Active; 'I' for Inactive)
REMARK    1  A    between atoms: C_1  and  N_2
REMARK    2  A    between atoms: N_2  and  C_3
REMARK    3  A    between atoms: C_4  and  C_6
REMARK    4  A    between atoms: N_20  and  C_21
REMARK    5  A    between atoms: C_21  and  C_22
REMARK    6  A    between atoms: C_22  and  O_23
REMARK    7  A    between atoms: N_30  and  C_31
REMARK                            x       y       z     vdW  Elec       q    Type
REMARK                         _______ _______ _______ _____ _____    ______ ____
ROOT
ATOM      1  C   UNL     1       3.692   6.056  17.768  0.00  0.00    +0.000 A 
ATOM      2  C   UNL     1       3.394   7.345  17.347  0.00  0.00    +0.000 A 
ATOM      3  C   UNL     1       2.613   7.972  18.328  0.00  0.00    +0.000 A 
ATOM      4  C   UNL     1       2.093   9.238  18.504  0.00  0.00    +0.000 A 
ATOM      5  N   UNL     1       1.333   9.488  19.578  0.00  0.00    +0.000 NA
ATOM      6  C   UNL     1       1.076   8.514  20.475  0.00  0.00    +0.000 A 
ATOM      7  N   UNL     1       0.247   8.823  21.554  0.00  0.00    +0.000 N 
ATOM      8  C   UNL     1      -0.374  10.033  21.861  0.00  0.00    +0.000 A 
ATOM      9  C   UNL     1      -0.708  10.971  20.894  0.00  0.00    +0.000 A 
ATOM     10  C   UNL     1      -1.255  12.203  21.246  0.00  0.00    +0.000 A 
ATOM     11  C   UNL     1      -1.520  12.500  22.568  0.00  0.00    +0.000 A 
ATOM     12  N   UNL     1      -2.079  13.720  22.903  0.00  0.00    +0.000 N 
ATOM     13  C   UNL     1      -2.933  13.817  24.086  0.00  0.00    +0.000 C 
ATOM     14  C   UNL     1      -2.416  14.867  25.089  0.00  0.00    +0.000 C 
ATOM     15  N   UNL     1      -2.086  16.194  24.509  0.00  0.00    +0.000 NA
ATOM     16  C   UNL     1      -1.091  15.954  23.430  0.00  0.00    +0.000 C 
ATOM     17  C   UNL     1      -1.535  14.957  22.329  0.00  0.00    +0.000 C 
ATOM     18  N   UNL     1      -1.265  11.551  23.489  0.00  0.00    +0.000 NA
ATOM     19  N   UNL     1      -0.682  10.318  23.138  0.00  0.00    +0.000 NA
ATOM     20  N   UNL     1       1.576   7.265  20.406  0.00  0.00    +0.000 NA
ATOM     21  C   UNL     1       2.333   7.039  19.310  0.00  0.00    +0.000 A 
ATOM     22  N   UNL     1       2.953   5.853  18.944  0.00  0.00    +0.000 N 
ATOM     23  H   UNL     1       0.381   8.204  22.333  0.00  0.00    +0.000 HD
ENDROOT
BRANCH   1  27
ATOM     24  C   UNL     1       6.707   4.287  16.330  0.00  0.00    +0.000 C 
ATOM     25  N   UNL     1       5.920   5.245  17.086  0.00  0.00    +0.000 N 
ATOM     26  C   UNL     1       6.670   6.235  17.846  0.00  0.00    +0.000 C 
ATOM     27  C   UNL     1       4.527   5.074  17.082  0.00  0.00    +0.000 C 
ATOM     28  O   UNL     1       4.030   4.114  16.490  0.00  0.00    +0.000 OA
ENDBRANCH   1  27
BRANCH  22  29
ATOM     29  C   UNL     1       2.846   4.603  19.678  0.00  0.00    +0.000 C 
ATOM     30  C   UNL     1       2.508   4.724  21.164  0.00  0.00    +0.000 C 
ATOM     31  C   UNL     1       2.147   3.295  21.560  0.00  0.00    +0.000 C 
ATOM     32  C   UNL     1       1.599   2.626  20.297  0.00  0.00    +0.000 C 
ATOM     33  C   UNL     1       1.785   3.628  19.159  0.00  0.00    +0.000 C 
ENDBRANCH  22  29
BRANCH  15  34
ATOM     34  C   UNL     1      -3.263  16.911  23.963  0.00  0.00    +0.000 C 
BRANCH  34  35
ATOM     35  C   UNL     1      -4.399  17.116  24.977  0.00  0.00    +0.000 C 
BRANCH  35  36
ATOM     36  O   UNL     1      -5.521  16.305  24.647  0.00  0.00    +0.000 OA
ATOM     37  H   UNL     1      -5.167  15.590  24.083  0.00  0.00    +0.000 HD
ENDBRANCH  35  36
ENDBRANCH  34  35
ENDBRANCH  15  34
TORSDOF 5
ENDMDL
MODEL 2
REMARK VINA RESULT:      -8.2      1.956      3.518
REMARK  Name = 
REMARK  7 active torsions:
REMARK  status: ('A' for Active; 'I' for Inactive)
REMARK    1  A    between atoms: C_1  and  N_2
REMARK    2  A    between atoms: N_2  and  C_3
REMARK    3  A    between atoms: C_4  and  C_6
REMARK    4  A    between atoms: N_20  and  C_21
REMARK    5  A    between atoms: C_21  and  C_22
REMARK    6  A    between atoms: C_22  and  O_23
REMARK    7  A    between atoms: N_30  and  C_31
REMARK                            x       y       z     vdW  Elec       q    Type
REMARK                         _______ _______ _______ _____ _____    ______ ____
ROOT
ATOM      1  C   UNL     1       3.339   4.567  19.524  0.00  0.00    +0.000 A 
ATOM      2  C   UNL     1       2.523   4.825  20.617  0.00  0.00    +0.000 A 
ATOM      3  C   UNL     1       1.993   6.116  20.490  0.00  0.00    +0.000 A 
ATOM      4  C   UNL     1       1.088   6.877  21.201  0.00  0.00    +0.000 A 
ATOM      5  N   UNL     1       0.834   8.131  20.804  0.00  0.00    +0.000 NA
ATOM      6  C   UNL     1       1.458   8.645  19.724  0.00  0.00    +0.000 A 
ATOM      7  N   UNL     1       1.183   9.969  19.379  0.00  0.00    +0.000 N 
ATOM      8  C   UNL     1       0.323  10.874  20.002  0.00  0.00    +0.000 A 
ATOM      9  C   UNL     1       0.002  10.797  21.349  0.00  0.00    +0.000 A 
ATOM     10  C   UNL     1      -0.923  11.669  21.920  0.00  0.00    +0.000 A 
ATOM     11  C   UNL     1      -1.508  12.663  21.160  0.00  0.00    +0.000 A 
ATOM     12  N   UNL     1      -2.412  13.534  21.742  0.00  0.00    +0.000 N 
ATOM     13  C   UNL     1      -2.534  14.895  21.220  0.00  0.00    +0.000 C 
ATOM     14  C   UNL     1      -3.975  15.218  20.778  0.00  0.00    +0.000 C 
ATOM     15  N   UNL     1      -5.034  14.885  21.765  0.00  0.00    +0.000 NA
ATOM     16  C   UNL     1      -4.886  13.439  22.079  0.00  0.00    +0.000 C 
ATOM     17  C   UNL     1      -3.488  13.012  22.593  0.00  0.00    +0.000 C 
ATOM     18  N   UNL     1      -1.129  12.777  19.873  0.00  0.00    +0.000 NA
ATOM     19  N   UNL     1      -0.220  11.875  19.288  0.00  0.00    +0.000 NA
ATOM     20  N   UNL     1       2.322   7.961  18.947  0.00  0.00    +0.000 NA
ATOM     21  C   UNL     1       2.563   6.704  19.375  0.00  0.00    +0.000 A 
ATOM     22  N   UNL     1       3.424   5.772  18.810  0.00  0.00    +0.000 N 
ATOM     23  H   UNL     1       1.383  10.167  18.416  0.00  0.00    +0.000 HD
ENDROOT
BRANCH   1  27
ATOM     24  C   UNL     1       4.059   1.023  18.420  0.00  0.00    +0.000 C 
ATOM     25  N   UNL     1       3.337   2.265  18.634  0.00  0.00    +0.000 N 
ATOM     26  C   UNL     1       1.972   2.309  18.130  0.00  0.00    +0.000 C 
ATOM     27  C   UNL     1       4.045   3.324  19.224  0.00  0.00    +0.000 C 
ATOM     28  O   UNL     1       5.240   3.186  19.493  0.00  0.00    +0.000 OA
ENDBRANCH   1  27
BRANCH  22  29
ATOM     29  C   UNL     1       4.272   6.023  17.657  0.00  0.00    +0.000 C 
ATOM     30  C   UNL     1       5.753   6.260  17.952  0.00  0.00    +0.000 C 
ATOM     31  C   UNL     1       6.406   6.159  16.576  0.00  0.00    +0.000 C 
ATOM     32  C   UNL     1       5.524   5.219  15.752  0.00  0.00    +0.000 C 
ATOM     33  C   UNL     1       4.301   4.905  16.611  0.00  0.00    +0.000 C 
ENDBRANCH  22  29
BRANCH  15  34
ATOM     34  C   UNL     1      -4.956  15.685  23.011  0.00  0.00    +0.000 C 
BRANCH  34  35
ATOM     35  C   UNL     1      -6.317  15.962  23.666  0.00  0.00    +0.000 C 
BRANCH  35  36
ATOM     36  O   UNL     1      -6.746  14.841  24.431  0.00  0.00    +0.000 OA
ATOM     37  H   UNL     1      -7.709  14.777  24.279  0.00  0.00    +0.000 HD
ENDBRANCH  35  36
ENDBRANCH  34  35
ENDBRANCH  15  34
TORSDOF 5
ENDMDL
MODEL 3
REMARK VINA RESULT:      -7.9      1.166      1.241
REMARK  Name = 
REMARK  7 active torsions:
REMARK  status: ('A' for Active; 'I' for Inactive)
REMARK    1  A    between atoms: C_1  and  N_2
REMARK    2  A    between atoms: N_2  and  C_3
REMARK    3  A    between atoms: C_4  and  C_6
REMARK    4  A    between atoms: N_20  and  C_21
REMARK    5  A    between atoms: C_21  and  C_22
REMARK    6  A    between atoms: C_22  and  O_23
REMARK    7  A    between atoms: N_30  and  C_31
REMARK                            x       y       z     vdW  Elec       q    Type
REMARK                         _______ _______ _______ _____ _____    ______ ____
ROOT
ATOM      1  C   UNL     1       3.584   5.670  17.825  0.00  0.00    +0.000 A 
ATOM      2  C   UNL     1       3.401   6.969  17.371  0.00  0.00    +0.000 A 
ATOM      3  C   UNL     1       2.680   7.687  18.336  0.00  0.00    +0.000 A 
ATOM      4  C   UNL     1       2.274   8.998  18.479  0.00  0.00    +0.000 A 
ATOM      5  N   UNL     1       1.541   9.341  19.547  0.00  0.00    +0.000 NA
ATOM      6  C   UNL     1       1.201   8.417  20.468  0.00  0.00    +0.000 A 
ATOM      7  N   UNL     1       0.406   8.824  21.540  0.00  0.00    +0.000 N 
ATOM      8  C   UNL     1      -0.106  10.092  21.815  0.00  0.00    +0.000 A 
ATOM      9  C   UNL     1      -0.358  11.031  20.825  0.00  0.00    +0.000 A 
ATOM     10  C   UNL     1      -0.793  12.315  21.145  0.00  0.00    +0.000 A 
ATOM     11  C   UNL     1      -1.029  12.668  22.459  0.00  0.00    +0.000 A 
ATOM     12  N   UNL     1      -1.477  13.941  22.763  0.00  0.00    +0.000 N 
ATOM     13  C   UNL     1      -2.317  14.143  23.943  0.00  0.00    +0.000 C 
ATOM     14  C   UNL     1      -1.706  15.168  24.919  0.00  0.00    +0.000 C 
ATOM     15  N   UNL     1      -1.262  16.446  24.305  0.00  0.00    +0.000 NA
ATOM     16  C   UNL     1      -0.295  16.092  23.233  0.00  0.00    +0.000 C 
ATOM     17  C   UNL     1      -0.828  15.110  22.158  0.00  0.00    +0.000 C 
ATOM     18  N   UNL     1      -0.856  11.724  23.404  0.00  0.00    +0.000 NA
ATOM     19  N   UNL     1      -0.385  10.436  23.085  0.00  0.00    +0.000 NA
ATOM     20  N   UNL     1       1.590   7.127  20.431  0.00  0.00    +0.000 NA
ATOM     21  C   UNL     1       2.321   6.808  19.341  0.00  0.00    +0.000 A 
ATOM     22  N   UNL     1       2.833   5.562  19.006  0.00  0.00    +0.000 N 
ATOM     23  H   UNL     1       0.486   8.217  22.334  0.00  0.00    +0.000 HD
ENDROOT
BRANCH   1  27
ATOM     24  C   UNL     1       5.819   3.819  15.402  0.00  0.00    +0.000 C 
ATOM     25  N   UNL     1       5.155   4.921  16.076  0.00  0.00    +0.000 N 
ATOM     26  C   UNL     1       5.491   6.257  15.605  0.00  0.00    +0.000 C 
ATOM     27  C   UNL     1       4.328   4.601  17.164  0.00  0.00    +0.000 C 
ATOM     28  O   UNL     1       4.229   3.430  17.533  0.00  0.00    +0.000 OA
ENDBRANCH   1  27
BRANCH  22  29
ATOM     29  C   UNL     1       2.618   4.346  19.771  0.00  0.00    +0.000 C 
ATOM     30  C   UNL     1       2.543   4.512  21.289  0.00  0.00    +0.000 C 
ATOM     31  C   UNL     1       1.997   3.169  21.764  0.00  0.00    +0.000 C 
ATOM     32  C   UNL     1       1.147   2.622  20.614  0.00  0.00    +0.000 C 
ATOM     33  C   UNL     1       1.331   3.584  19.442  0.00  0.00    +0.000 C 
ENDBRANCH  22  29
BRANCH  15  34
ATOM     34  C   UNL     1      -2.373  17.249  23.741  0.00  0.00    +0.000 C 
BRANCH  34  35
ATOM     35  C   UNL     1      -1.921  18.532  23.027  0.00  0.00    +0.000 C 
BRANCH  35  36
ATOM     36  O   UNL     1      -2.520  18.631  21.740  0.00  0.00    +0.000 OA
ATOM     37  H   UNL     1      -3.447  18.891  21.906  0.00  0.00    +0.000 HD
ENDBRANCH  35  36
ENDBRANCH  34  35
ENDBRANCH  15  34
TORSDOF 5
ENDMDL
MODEL 4
REMARK VINA RESULT:      -7.5      1.485      1.751
REMARK  Name = 
REMARK  7 active torsions:
REMARK  status: ('A' for Active; 'I' for Inactive)
REMARK    1  A    between atoms: C_1  and  N_2
REMARK    2  A    between atoms: N_2  and  C_3
REMARK    3  A    between atoms: C_4  and  C_6
REMARK    4  A    between atoms: N_20  and  C_21
REMARK    5  A    between atoms: C_21  and  C_22
REMARK    6  A    between atoms: C_22  and  O_23
REMARK    7  A    between atoms: N_30  and  C_31
REMARK                            x       y       z     vdW  Elec       q    Type
REMARK                         _______ _______ _______ _____ _____    ______ ____
ROOT
ATOM      1  C   UNL     1       3.157   6.061  18.647  0.00  0.00    +0.000 A 
ATOM      2  C   UNL     1       2.944   7.282  18.022  0.00  0.00    +0.000 A 
ATOM      3  C   UNL     1       2.203   8.106  18.881  0.00  0.00    +0.000 A 
ATOM      4  C   UNL     1       1.765   9.414  18.846  0.00  0.00    +0.000 A 
ATOM      5  N   UNL     1       1.020   9.881  19.858  0.00  0.00    +0.000 NA
ATOM      6  C   UNL     1       0.699   9.081  20.895  0.00  0.00    +0.000 A 
ATOM      7  N   UNL     1      -0.111   9.609  21.901  0.00  0.00    +0.000 N 
ATOM      8  C   UNL     1      -0.654  10.890  22.003  0.00  0.00    +0.000 A 
ATOM      9  C   UNL     1      -0.924  11.681  20.895  0.00  0.00    +0.000 A 
ATOM     10  C   UNL     1      -1.391  12.985  21.039  0.00  0.00    +0.000 A 
ATOM     11  C   UNL     1      -1.640  13.506  22.294  0.00  0.00    +0.000 A 
ATOM     12  N   UNL     1      -2.120  14.796  22.423  0.00  0.00    +0.000 N 
ATOM     13  C   UNL     1      -2.969  15.135  23.565  0.00  0.00    +0.000 C 
ATOM     14  C   UNL     1      -2.387  16.297  24.394  0.00  0.00    +0.000 C 
ATOM     15  N   UNL     1      -1.971  17.491  23.614  0.00  0.00    +0.000 NA
ATOM     16  C   UNL     1      -0.992  17.019  22.599  0.00  0.00    +0.000 C 
ATOM     17  C   UNL     1      -1.496  15.889  21.666  0.00  0.00    +0.000 C 
ATOM     18  N   UNL     1      -1.449  12.702  23.357  0.00  0.00    +0.000 NA
ATOM     19  N   UNL     1      -0.945  11.395  23.215  0.00  0.00    +0.000 NA
ATOM     20  N   UNL     1       1.118   7.807  21.032  0.00  0.00    +0.000 NA
ATOM     21  C   UNL     1       1.861   7.362  19.996  0.00  0.00    +0.000 A 
ATOM     22  N   UNL     1       2.404   6.096  19.831  0.00  0.00    +0.000 N 
ATOM     23  H   UNL     1      -0.019   9.116  22.770  0.00  0.00    +0.000 HD
ENDROOT
BRANCH   1  27
ATOM     24  C   UNL     1       4.048   2.718  17.123  0.00  0.00    +0.000 C 
ATOM     25  N   UNL     1       3.248   3.852  17.551  0.00  0.00    +0.000 N 
ATOM     26  C   UNL     1       1.827   3.788  17.245  0.00  0.00    +0.000 C 
ATOM     27  C   UNL     1       3.929   4.932  18.137  0.00  0.00    +0.000 C 
ATOM     28  O   UNL     1       5.157   4.904  18.225  0.00  0.00    +0.000 OA
ENDBRANCH   1  27
BRANCH  22  29
ATOM     29  C   UNL     1       2.215   4.989  20.753  0.00  0.00    +0.000 C 
ATOM     30  C   UNL     1       0.975   4.125  20.521  0.00  0.00    +0.000 C 
ATOM     31  C   UNL     1       1.228   2.902  21.399  0.00  0.00    +0.000 C 
ATOM     32  C   UNL     1       2.748   2.748  21.489  0.00  0.00    +0.000 C 
ATOM     33  C   UNL     1       3.351   3.962  20.786  0.00  0.00    +0.000 C 
ENDBRANCH  22  29
BRANCH  15  34
ATOM     34  C   UNL     1      -3.099  18.184  22.946  0.00  0.00    +0.000 C 
BRANCH  34  35
ATOM     35  C   UNL     1      -4.294  18.470  23.868  0.00  0.00    +0.000 C 
BRANCH  35  36
ATOM     36  O   UNL     1      -5.492  18.609  23.112  0.00  0.00    +0.000 OA
ATOM     37  H   UNL     1      -5.491  19.533  22.793  0.00  0.00    +0.000 HD
ENDBRANCH  35  36
ENDBRANCH  34  35
ENDBRANCH  15  34
TORSDOF 5
ENDMDL
MODEL 5
REMARK VINA RESULT:      -7.0      0.960      1.211
REMARK  Name = 
REMARK  7 active torsions:
REMARK  status: ('A' for Active; 'I' for Inactive)
REMARK    1  A    between atoms: C_1  and  N_2
REMARK    2  A    between atoms: N_2  and  C_3
REMARK    3  A    between atoms: C_4  and  C_6
REMARK    4  A    between atoms: N_20  and  C_21
REMARK    5  A    between atoms: C_21  and  C_22
REMARK    6  A    between atoms: C_22  and  O_23
REMARK    7  A    between atoms: N_30  and  C_31
REMARK                            x       y       z     vdW  Elec       q    Type
REMARK                         _______ _______ _______ _____ _____    ______ ____
ROOT
ATOM      1  C   UNL     1       3.685   5.871  18.201  0.00  0.00    +0.000 A 
ATOM      2  C   UNL     1       3.469   7.173  17.769  0.00  0.00    +0.000 A 
ATOM      3  C   UNL     1       2.624   7.817  18.682  0.00  0.00    +0.000 A 
ATOM      4  C   UNL     1       2.131   9.099  18.824  0.00  0.00    +0.000 A 
ATOM      5  N   UNL     1       1.285   9.366  19.828  0.00  0.00    +0.000 NA
ATOM      6  C   UNL     1       0.916   8.394  20.686  0.00  0.00    +0.000 A 
ATOM      7  N   UNL     1       0.003   8.722  21.690  0.00  0.00    +0.000 N 
ATOM      8  C   UNL     1      -0.604   9.950  21.952  0.00  0.00    +0.000 A 
ATOM      9  C   UNL     1      -0.817  10.906  20.970  0.00  0.00    +0.000 A 
ATOM     10  C   UNL     1      -1.353  12.153  21.284  0.00  0.00    +0.000 A 
ATOM     11  C   UNL     1      -1.728  12.448  22.580  0.00  0.00    +0.000 A 
ATOM     12  N   UNL     1      -2.275  13.684  22.876  0.00  0.00    +0.000 N 
ATOM     13  C   UNL     1      -3.229  13.800  23.978  0.00  0.00    +0.000 C 
ATOM     14  C   UNL     1      -2.771  14.824  25.035  0.00  0.00    +0.000 C 
ATOM     15  N   UNL     1      -2.346  16.144  24.502  0.00  0.00    +0.000 NA
ATOM     16  C   UNL     1      -1.266  15.879  23.515  0.00  0.00    +0.000 C 
ATOM     17  C   UNL     1      -1.640  14.906  22.368  0.00  0.00    +0.000 C 
ATOM     18  N   UNL     1      -1.589  11.484  23.510  0.00  0.00    +0.000 NA
ATOM     19  N   UNL     1      -1.017  10.235  23.200  0.00  0.00    +0.000 NA
ATOM     20  N   UNL     1       1.379   7.129  20.649  0.00  0.00    +0.000 NA
ATOM     21  C   UNL     1       2.224   6.887  19.624  0.00  0.00    +0.000 A 
ATOM     22  N   UNL     1       2.836   5.683  19.303  0.00  0.00    +0.000 N 
ATOM     23  H   UNL     1       0.045   8.093  22.471  0.00  0.00    +0.000 HD
ENDROOT
BRANCH   1  27
ATOM     24  C   UNL     1       4.850   2.751  16.411  0.00  0.00    +0.000 C 
ATOM     25  N   UNL     1       3.956   3.762  16.949  0.00  0.00    +0.000 N 
ATOM     26  C   UNL     1       2.536   3.565  16.694  0.00  0.00    +0.000 C 
ATOM     27  C   UNL     1       4.546   4.868  17.582  0.00  0.00    +0.000 C 
ATOM     28  O   UNL     1       5.774   4.967  17.621  0.00  0.00    +0.000 OA
ENDBRANCH   1  27
BRANCH  22  29
ATOM     29  C   UNL     1       2.622   4.432  20.010  0.00  0.00    +0.000 C 
ATOM     30  C   UNL     1       2.712   4.499  21.535  0.00  0.00    +0.000 C 
ATOM     31  C   UNL     1       2.131   3.159  21.981  0.00  0.00    +0.000 C 
ATOM     32  C   UNL     1       1.136   2.743  20.895  0.00  0.00    +0.000 C 
ATOM     33  C   UNL     1       1.261   3.770  19.772  0.00  0.00    +0.000 C 
ENDBRANCH  22  29
BRANCH  15  34
ATOM     34  C   UNL     1      -3.445  16.904  23.859  0.00  0.00    +0.000 C 
BRANCH  34  35
ATOM     35  C   UNL     1      -4.759  16.902  24.656  0.00  0.00    +0.000 C 
BRANCH  35  36
ATOM     36  O   UNL     1      -4.765  17.947  25.622  0.00  0.00    +0.000 OA
ATOM     37  H   UNL     1      -4.779  17.497  26.489  0.00  0.00    +0.000 HD
ENDBRANCH  35  36
ENDBRANCH  34  35
ENDBRANCH  15  34
TORSDOF 5
ENDMDL
MODEL 6
REMARK VINA RESULT:      -6.9      1.056      1.358
REMARK  Name = 
REMARK  7 active torsions:
REMARK  status: ('A' for Active; 'I' for Inactive)
REMARK    1  A    between atoms: C_1  and  N_2
REMARK    2  A    between atoms: N_2  and  C_3
REMARK    3  A    between atoms: C_4  and  C_6
REMARK    4  A    between atoms: N_20  and  C_21
REMARK    5  A    between atoms: C_21  and  C_22
REMARK    6  A    between atoms: C_22  and  O_23
REMARK    7  A    between atoms: N_30  and  C_31
REMARK                            x       y       z     vdW  Elec       q    Type
REMARK                         _______ _______ _______ _____ _____    ______ ____
ROOT
ATOM      1  C   UNL     1       3.860   6.263  17.789  0.00  0.00    +0.000 A 
ATOM      2  C   UNL     1       3.312   7.423  17.260  0.00  0.00    +0.000 A 
ATOM      3  C   UNL     1       2.551   8.056  18.253  0.00  0.00    +0.000 A 
ATOM      4  C   UNL     1       1.854   9.243  18.345  0.00  0.00    +0.000 A 
ATOM      5  N   UNL     1       1.185   9.523  19.471  0.00  0.00    +0.000 NA
ATOM      6  C   UNL     1       1.189   8.653  20.502  0.00  0.00    +0.000 A 
ATOM      7  N   UNL     1       0.444   8.980  21.635  0.00  0.00    +0.000 N 
ATOM      8  C   UNL     1      -0.330  10.115  21.875  0.00  0.00    +0.000 A 
ATOM      9  C   UNL     1      -0.915  10.853  20.856  0.00  0.00    +0.000 A 
ATOM     10  C   UNL     1      -1.615  12.027  21.127  0.00  0.00    +0.000 A 
ATOM     11  C   UNL     1      -1.779  12.459  22.429  0.00  0.00    +0.000 A 
ATOM     12  N   UNL     1      -2.490  13.617  22.686  0.00  0.00    +0.000 N 
ATOM     13  C   UNL     1      -3.214  13.747  23.951  0.00  0.00    +0.000 C 
ATOM     14  C   UNL     1      -2.769  14.989  24.748  0.00  0.00    +0.000 C 
ATOM     15  N   UNL     1      -2.725  16.259  23.978  0.00  0.00    +0.000 NA
ATOM     16  C   UNL     1      -1.828  16.024  22.815  0.00  0.00    +0.000 C 
ATOM     17  C   UNL     1      -2.221  14.831  21.906  0.00  0.00    +0.000 C 
ATOM     18  N   UNL     1      -1.274  11.693  23.414  0.00  0.00    +0.000 NA
ATOM     19  N   UNL     1      -0.539  10.524  23.139  0.00  0.00    +0.000 NA
ATOM     20  N   UNL     1       1.876   7.494  20.516  0.00  0.00    +0.000 NA
ATOM     21  C   UNL     1       2.535   7.235  19.367  0.00  0.00    +0.000 A 
ATOM     22  N   UNL     1       3.297   6.114  19.066  0.00  0.00    +0.000 N 
ATOM     23  H   UNL     1       0.761   8.500  22.458  0.00  0.00    +0.000 HD
ENDROOT
BRANCH   1  27
ATOM     24  C   UNL     1       5.202   3.184  16.052  0.00  0.00    +0.000 C 
ATOM     25  N   UNL     1       4.255   4.112  16.644  0.00  0.00    +0.000 N 
ATOM     26  C   UNL     1       2.855   3.717  16.598  0.00  0.00    +0.000 C 
ATOM     27  C   UNL     1       4.765   5.331  17.121  0.00  0.00    +0.000 C 
ATOM     28  O   UNL     1       5.962   5.588  16.984  0.00  0.00    +0.000 OA
ENDBRANCH   1  27
BRANCH  22  29
ATOM     29  C   UNL     1       3.476   4.975  19.949  0.00  0.00    +0.000 C 
ATOM     30  C   UNL     1       2.310   3.988  20.017  0.00  0.00    +0.000 C 
ATOM     31  C   UNL     1       2.911   2.782  20.733  0.00  0.00    +0.000 C 
ATOM     32  C   UNL     1       4.405   2.789  20.404  0.00  0.00    +0.000 C 
ATOM     33  C   UNL     1       4.672   4.076  19.624  0.00  0.00    +0.000 C 
ENDBRANCH  22  29
BRANCH  15  34
ATOM     34  C   UNL     1      -4.056  16.712  23.508  0.00  0.00    +0.000 C 
BRANCH  34  35
ATOM     35  C   UNL     1      -5.068  16.963  24.636  0.00  0.00    +0.000 C 
BRANCH  35  36
ATOM     36  O   UNL     1      -6.368  17.195  24.105  0.00  0.00    +0.000 OA
ATOM     37  H   UNL     1      -6.257  17.918  23.456  0.00  0.00    +0.000 HD
ENDBRANCH  35  36
ENDBRANCH  34  35
ENDBRANCH  15  34
TORSDOF 5
ENDMDL
MODEL 7
REMARK VINA RESULT:      -6.9      2.182      2.645
REMARK  Name = 
REMARK  7 active torsions:
REMARK  status: ('A' for Active; 'I' for Inactive)
REMARK    1  A    between atoms: C_1  and  N_2
REMARK    2  A    between atoms: N_2  and  C_3
REMARK    3  A    between atoms: C_4  and  C_6
REMARK    4  A    between atoms: N_20  and  C_21
REMARK    5  A    between atoms: C_21  and  C_22
REMARK    6  A    between atoms: C_22  and  O_23
REMARK    7  A    between atoms: N_30  and  C_31
REMARK                            x       y       z     vdW  Elec       q    Type
REMARK                         _______ _______ _______ _____ _____    ______ ____
ROOT
ATOM      1  C   UNL     1       3.504   5.369  18.411  0.00  0.00    +0.000 A 
ATOM      2  C   UNL     1       3.435   6.482  17.584  0.00  0.00    +0.000 A 
ATOM      3  C   UNL     1       2.698   7.482  18.234  0.00  0.00    +0.000 A 
ATOM      4  C   UNL     1       2.369   8.793  17.954  0.00  0.00    +0.000 A 
ATOM      5  N   UNL     1       1.588   9.467  18.809  0.00  0.00    +0.000 NA
ATOM      6  C   UNL     1       1.127   8.871  19.928  0.00  0.00    +0.000 A 
ATOM      7  N   UNL     1       0.287   9.609  20.763  0.00  0.00    +0.000 N 
ATOM      8  C   UNL     1      -0.160  10.922  20.613  0.00  0.00    +0.000 A 
ATOM      9  C   UNL     1      -0.282  11.536  19.374  0.00  0.00    +0.000 A 
ATOM     10  C   UNL     1      -0.655  12.874  19.268  0.00  0.00    +0.000 A 
ATOM     11  C   UNL     1      -0.956  13.609  20.398  0.00  0.00    +0.000 A 
ATOM     12  N   UNL     1      -1.342  14.932  20.278  0.00  0.00    +0.000 N 
ATOM     13  C   UNL     1      -2.245  15.508  21.273  0.00  0.00    +0.000 C 
ATOM     14  C   UNL     1      -1.639  16.750  21.956  0.00  0.00    +0.000 C 
ATOM     15  N   UNL     1      -1.072  17.770  21.036  0.00  0.00    +0.000 NA
ATOM     16  C   UNL     1      -0.059  17.075  20.199  0.00  0.00    +0.000 C 
ATOM     17  C   UNL     1      -0.578  15.842  19.416  0.00  0.00    +0.000 C 
ATOM     18  N   UNL     1      -0.910  12.980  21.588  0.00  0.00    +0.000 NA
ATOM     19  N   UNL     1      -0.502  11.637  21.699  0.00  0.00    +0.000 NA
ATOM     20  N   UNL     1       1.433   7.612  20.301  0.00  0.00    +0.000 NA
ATOM     21  C   UNL     1       2.215   6.956  19.418  0.00  0.00    +0.000 A 
ATOM     22  N   UNL     1       2.668   5.647  19.504  0.00  0.00    +0.000 N 
ATOM     23  H   UNL     1       0.274   9.261  21.703  0.00  0.00    +0.000 HD
ENDROOT
BRANCH   1  27
ATOM     24  C   UNL     1       4.239   1.764  17.544  0.00  0.00    +0.000 C 
ATOM     25  N   UNL     1       3.499   3.001  17.716  0.00  0.00    +0.000 N 
ATOM     26  C   UNL     1       2.097   2.971  17.326  0.00  0.00    +0.000 C 
ATOM     27  C   UNL     1       4.220   4.123  18.155  0.00  0.00    +0.000 C 
ATOM     28  O   UNL     1       5.437   4.037  18.332  0.00  0.00    +0.000 OA
ENDBRANCH   1  27
BRANCH  22  29
ATOM     29  C   UNL     1       2.323   4.721  20.569  0.00  0.00    +0.000 C 
ATOM     30  C   UNL     1       1.026   3.933  20.381  0.00  0.00    +0.000 C 
ATOM     31  C   UNL     1       1.113   2.851  21.454  0.00  0.00    +0.000 C 
ATOM     32  C   UNL     1       2.604   2.592  21.681  0.00  0.00    +0.000 C 
ATOM     33  C   UNL     1       3.357   3.626  20.846  0.00  0.00    +0.000 C 
ENDBRANCH  22  29
BRANCH  15  34
ATOM     34  C   UNL     1      -2.088  18.416  20.171  0.00  0.00    +0.000 C 
BRANCH  34  35
ATOM     35  C   UNL     1      -3.448  18.630  20.852  0.00  0.00    +0.000 C 
BRANCH  35  36
ATOM     36  O   UNL     1      -4.478  17.944  20.150  0.00  0.00    +0.000 OA
ATOM     37  H   UNL     1      -4.063  17.632  19.322  0.00  0.00    +0.000 HD
ENDBRANCH  35  36
ENDBRANCH  34  35
ENDBRANCH  15  34
TORSDOF 5
ENDMDL
MODEL 8
REMARK VINA RESULT:      -6.6      6.253     11.394
REMARK  Name = 
REMARK  7 active torsions:
REMARK  status: ('A' for Active; 'I' for Inactive)
REMARK    1  A    between atoms: C_1  and  N_2
REMARK    2  A    between atoms: N_2  and  C_3
REMARK    3  A    between atoms: C_4  and  C_6
REMARK    4  A    between atoms: N_20  and  C_21
REMARK    5  A    between atoms: C_21  and  C_22
REMARK    6  A    between atoms: C_22  and  O_23
REMARK    7  A    between atoms: N_30  and  C_31
REMARK                            x       y       z     vdW  Elec       q    Type
REMARK                         _______ _______ _______ _____ _____    ______ ____
ROOT
ATOM      1  C   UNL     1      -3.255  12.783  20.251  0.00  0.00    +0.000 A 
ATOM      2  C   UNL     1      -2.367  12.050  19.476  0.00  0.00    +0.000 A 
ATOM      3  C   UNL     1      -1.125  12.701  19.475  0.00  0.00    +0.000 A 
ATOM      4  C   UNL     1       0.126  12.422  18.962  0.00  0.00    +0.000 A 
ATOM      5  N   UNL     1       1.111  13.316  19.121  0.00  0.00    +0.000 NA
ATOM      6  C   UNL     1       0.883  14.475  19.771  0.00  0.00    +0.000 A 
ATOM      7  N   UNL     1       1.936  15.385  19.874  0.00  0.00    +0.000 N 
ATOM      8  C   UNL     1       3.240  15.269  19.392  0.00  0.00    +0.000 A 
ATOM      9  C   UNL     1       3.568  14.488  18.293  0.00  0.00    +0.000 A 
ATOM     10  C   UNL     1       4.892  14.333  17.890  0.00  0.00    +0.000 A 
ATOM     11  C   UNL     1       5.908  14.994  18.552  0.00  0.00    +0.000 A 
ATOM     12  N   UNL     1       7.217  14.845  18.132  0.00  0.00    +0.000 N 
ATOM     13  C   UNL     1       8.164  15.941  18.334  0.00  0.00    +0.000 C 
ATOM     14  C   UNL     1       9.392  15.501  19.156  0.00  0.00    +0.000 C 
ATOM     15  N   UNL     1      10.051  14.251  18.697  0.00  0.00    +0.000 NA
ATOM     16  C   UNL     1       9.006  13.193  18.695  0.00  0.00    +0.000 C 
ATOM     17  C   UNL     1       7.747  13.507  17.846  0.00  0.00    +0.000 C 
ATOM     18  N   UNL     1       5.569  15.811  19.568  0.00  0.00    +0.000 NA
ATOM     19  N   UNL     1       4.235  15.943  19.997  0.00  0.00    +0.000 NA
ATOM     20  N   UNL     1      -0.292  14.810  20.340  0.00  0.00    +0.000 NA
ATOM     21  C   UNL     1      -1.268  13.894  20.159  0.00  0.00    +0.000 A 
ATOM     22  N   UNL     1      -2.584  13.968  20.593  0.00  0.00    +0.000 N 
ATOM     23  H   UNL     1       1.820  16.027  20.636  0.00  0.00    +0.000 HD
ENDROOT
BRANCH   1  27
ATOM     24  C   UNL     1      -6.940  12.021  19.884  0.00  0.00    +0.000 C 
ATOM     25  N   UNL     1      -5.559  12.289  19.520  0.00  0.00    +0.000 N 
ATOM     26  C   UNL     1      -5.258  12.281  18.096  0.00  0.00    +0.000 C 
ATOM     27  C   UNL     1      -4.638  12.442  20.569  0.00  0.00    +0.000 C 
ATOM     28  O   UNL     1      -5.011  12.302  21.735  0.00  0.00    +0.000 OA
ENDBRANCH   1  27
BRANCH  22  29
ATOM     29  C   UNL     1      -3.161  15.102  21.294  0.00  0.00    +0.000 C 
ATOM     30  C   UNL     1      -2.665  15.333  22.721  0.00  0.00    +0.000 C 
ATOM     31  C   UNL     1      -3.180  16.731  23.052  0.00  0.00    +0.000 C 
ATOM     32  C   UNL     1      -3.269  17.480  21.721  0.00  0.00    +0.000 C 
ATOM     33  C   UNL     1      -2.944  16.464  20.627  0.00  0.00    +0.000 C 
ENDBRANCH  22  29
BRANCH  15  34
ATOM     34  C   UNL     1      10.662  14.363  17.351  0.00  0.00    +0.000 C 
BRANCH  34  35
ATOM     35  C   UNL     1      11.174  15.770  17.009  0.00  0.00    +0.000 C 
BRANCH  35  36
ATOM     36  O   UNL     1      10.617  16.224  15.781  0.00  0.00    +0.000 OA
ATOM     37  H   UNL     1       9.755  15.771  15.704  0.00  0.00    +0.000 HD
ENDBRANCH  35  36
ENDBRANCH  34  35
ENDBRANCH  15  34
TORSDOF 5
ENDMDL
MODEL 9
REMARK VINA RESULT:      -6.5      1.840      3.290
REMARK  Name = 
REMARK  7 active torsions:
REMARK  status: ('A' for Active; 'I' for Inactive)
REMARK    1  A    between atoms: C_1  and  N_2
REMARK    2  A    between atoms: N_2  and  C_3
REMARK    3  A    between atoms: C_4  and  C_6
REMARK    4  A    between atoms: N_20  and  C_21
REMARK    5  A    between atoms: C_21  and  C_22
REMARK    6  A    between atoms: C_22  and  O_23
REMARK    7  A    between atoms: N_30  and  C_31
REMARK                            x       y       z     vdW  Elec       q    Type
REMARK                         _______ _______ _______ _____ _____    ______ ____
ROOT
ATOM      1  C   UNL     1       2.455   3.819  19.115  0.00  0.00    +0.000 A 
ATOM      2  C   UNL     1       1.414   3.982  20.019  0.00  0.00    +0.000 A 
ATOM      3  C   UNL     1       1.242   5.351  20.265  0.00  0.00    +0.000 A 
ATOM      4  C   UNL     1       0.346   6.110  20.991  0.00  0.00    +0.000 A 
ATOM      5  N   UNL     1       0.505   7.439  21.040  0.00  0.00    +0.000 NA
ATOM      6  C   UNL     1       1.530   8.029  20.392  0.00  0.00    +0.000 A 
ATOM      7  N   UNL     1       1.667   9.413  20.509  0.00  0.00    +0.000 N 
ATOM      8  C   UNL     1       0.872  10.313  21.218  0.00  0.00    +0.000 A 
ATOM      9  C   UNL     1       0.138   9.945  22.337  0.00  0.00    +0.000 A 
ATOM     10  C   UNL     1      -0.708  10.852  22.972  0.00  0.00    +0.000 A 
ATOM     11  C   UNL     1      -0.799  12.156  22.526  0.00  0.00    +0.000 A 
ATOM     12  N   UNL     1      -1.630  13.051  23.176  0.00  0.00    +0.000 N 
ATOM     13  C   UNL     1      -1.287  14.473  23.181  0.00  0.00    +0.000 C 
ATOM     14  C   UNL     1      -2.413  15.342  22.587  0.00  0.00    +0.000 C 
ATOM     15  N   UNL     1      -3.773  15.077  23.123  0.00  0.00    +0.000 NA
ATOM     16  C   UNL     1      -4.045  13.632  22.905  0.00  0.00    +0.000 C 
ATOM     17  C   UNL     1      -3.003  12.661  23.517  0.00  0.00    +0.000 C 
ATOM     18  N   UNL     1      -0.022  12.521  21.488  0.00  0.00    +0.000 NA
ATOM     19  N   UNL     1       0.808  11.597  20.825  0.00  0.00    +0.000 NA
ATOM     20  N   UNL     1       2.424   7.373  19.626  0.00  0.00    +0.000 NA
ATOM     21  C   UNL     1       2.243   6.035  19.600  0.00  0.00    +0.000 A 
ATOM     22  N   UNL     1       3.015   5.093  18.934  0.00  0.00    +0.000 N 
ATOM     23  H   UNL     1       2.196   9.814  19.757  0.00  0.00    +0.000 HD
ENDROOT
BRANCH   1  27
ATOM     24  C   UNL     1       4.451   0.658  18.553  0.00  0.00    +0.000 C 
ATOM     25  N   UNL     1       3.954   1.860  19.198  0.00  0.00    +0.000 N 
ATOM     26  C   UNL     1       4.505   2.160  20.512  0.00  0.00    +0.000 C 
ATOM     27  C   UNL     1       2.935   2.566  18.539  0.00  0.00    +0.000 C 
ATOM     28  O   UNL     1       2.473   2.129  17.483  0.00  0.00    +0.000 OA
ENDBRANCH   1  27
BRANCH  22  29
ATOM     29  C   UNL     1       4.213   5.397  18.171  0.00  0.00    +0.000 C 
ATOM     30  C   UNL     1       4.213   6.730  17.422  0.00  0.00    +0.000 C 
ATOM     31  C   UNL     1       5.673   6.905  17.013  0.00  0.00    +0.000 C 
ATOM     32  C   UNL     1       6.503   6.166  18.064  0.00  0.00    +0.000 C 
ATOM     33  C   UNL     1       5.510   5.456  18.983  0.00  0.00    +0.000 C 
ENDBRANCH  22  29
BRANCH  15  34
ATOM     34  C   UNL     1      -3.917  15.408  24.562  0.00  0.00    +0.000 C 
BRANCH  34  35
ATOM     35  C   UNL     1      -3.650  16.884  24.895  0.00  0.00    +0.000 C 
BRANCH  35  36
ATOM     36  O   UNL     1      -2.447  17.023  25.641  0.00  0.00    +0.000 OA
ATOM     37  H   UNL     1      -1.807  17.434  25.026  0.00  0.00    +0.000 HD
ENDBRANCH  35  36
ENDBRANCH  34  35
ENDBRANCH  15  34
TORSDOF 5
ENDMDL
