MODEL 1
REMARK VINA RESULT:      -7.3      0.000      0.000
REMARK  Name = 
REMARK  6 active torsions:
REMARK  status: ('A' for Active; 'I' for Inactive)
REMARK    1  A    between atoms: C_1  and  C_2
REMARK    2  A    between atoms: C_2  and  O_3
REMARK    3  A    between atoms: O_3  and  C_4
REMARK    4  A    between atoms: C_14  and  C_16
REMARK    5  A    between atoms: C_16  and  S_17
REMARK    6  A    between atoms: S_17  and  C_20
REMARK                            x       y       z     vdW  Elec       q    Type
REMARK                         _______ _______ _______ _____ _____    ______ ____
ROOT
ATOM      1  C   UNL     1       2.445   7.295  18.975  0.00  0.00    +0.000 A 
ATOM      2  C   UNL     1       2.212   8.188  17.930  0.00  0.00    +0.000 A 
ATOM      3  C   UNL     1       1.422   9.328  18.128  0.00  0.00    +0.000 A 
ATOM      4  C   UNL     1       0.862   9.582  19.395  0.00  0.00    +0.000 A 
ATOM      5  N   UNL     1       0.046  10.648  19.724  0.00  0.00    +0.000 NA
ATOM      6  C   UNL     1      -0.303  10.608  20.993  0.00  0.00    +0.000 A 
ATOM      7  N   UNL     1      -1.166  11.497  21.554  0.00  0.00    +0.000 N 
ATOM      8  C   UNL     1      -1.814  12.503  20.707  0.00  0.00    +0.000 C 
ATOM      9  C   UNL     1      -3.288  12.622  21.137  0.00  0.00    +0.000 C 
ATOM     10  N   UNL     1      -3.407  12.921  22.576  0.00  0.00    +0.000 N 
ATOM     11  C   UNL     1      -4.180  13.917  23.144  0.00  0.00    +0.000 C 
ATOM     12  O   UNL     1      -4.235  14.075  24.367  0.00  0.00    +0.000 OA
ATOM     13  C   UNL     1      -2.660  11.996  23.446  0.00  0.00    +0.000 C 
ATOM     14  C   UNL     1      -1.199  11.806  22.989  0.00  0.00    +0.000 C 
ATOM     15  S   UNL     1       0.353   9.257  21.852  0.00  0.00    +0.000 S 
ATOM     16  C   UNL     1       1.123   8.693  20.430  0.00  0.00    +0.000 A 
ATOM     17  C   UNL     1       1.905   7.542  20.242  0.00  0.00    +0.000 A 
ENDROOT
BRANCH   1  18
ATOM     18  O   UNL     1       3.183   6.144  18.892  0.00  0.00    +0.000 OA
BRANCH  18  20
ATOM     19  C   UNL     1       1.869   4.247  18.271  0.00  0.00    +0.000 C 
ATOM     20  C   UNL     1       2.887   5.270  17.803  0.00  0.00    +0.000 C 
ENDBRANCH  18  20
ENDBRANCH   1  18
BRANCH  11  21
ATOM     21  C   UNL     1      -5.027  14.779  22.258  0.00  0.00    +0.000 C 
BRANCH  21  22
ATOM     22  S   UNL     1      -6.676  14.137  22.194  0.00  0.00    +0.000 S 
ATOM     23  O   UNL     1      -6.764  12.908  22.957  0.00  0.00    +0.000 OA
ATOM     24  O   UNL     1      -7.624  15.215  22.406  0.00  0.00    +0.000 OA
BRANCH  22  25
ATOM     25  C   UNL     1      -6.820  13.680  20.473  0.00  0.00    +0.000 A 
ATOM     26  C   UNL     1      -6.671  14.662  19.487  0.00  0.00    +0.000 A 
ATOM     27  C   UNL     1      -6.790  14.305  18.145  0.00  0.00    +0.000 A 
ATOM     28  C   UNL     1      -7.048  12.978  17.806  0.00  0.00    +0.000 A 
ATOM     29  F   UNL     1      -7.168  12.641  16.516  0.00  0.00    +0.000 F 
ATOM     30  C   UNL     1      -7.180  11.997  18.785  0.00  0.00    +0.000 A 
ATOM     31  C   UNL     1      -7.060  12.343  20.131  0.00  0.00    +0.000 A 
ENDBRANCH  22  25
ENDBRANCH  21  22
ENDBRANCH  11  21
TORSDOF 5
ENDMDL
MODEL 2
REMARK VINA RESULT:      -7.3      3.923     10.870
REMARK  Name = 
REMARK  6 active torsions:
REMARK  status: ('A' for Active; 'I' for Inactive)
REMARK    1  A    between atoms: C_1  and  C_2
REMARK    2  A    between atoms: C_2  and  O_3
REMARK    3  A    between atoms: O_3  and  C_4
REMARK    4  A    between atoms: C_14  and  C_16
REMARK    5  A    between atoms: C_16  and  S_17
REMARK    6  A    between atoms: S_17  and  C_20
REMARK                            x       y       z     vdW  Elec       q    Type
REMARK                         _______ _______ _______ _____ _____    ______ ____
ROOT
ATOM      1  C   UNL     1      -3.079  12.625  22.120  0.00  0.00    +0.000 A 
ATOM      2  C   UNL     1      -2.572  11.904  23.199  0.00  0.00    +0.000 A 
ATOM      3  C   UNL     1      -1.493  11.025  23.026  0.00  0.00    +0.000 A 
ATOM      4  C   UNL     1      -0.910  10.873  21.753  0.00  0.00    +0.000 A 
ATOM      5  N   UNL     1       0.135  10.027  21.434  0.00  0.00    +0.000 NA
ATOM      6  C   UNL     1       0.457  10.124  20.162  0.00  0.00    +0.000 A 
ATOM      7  N   UNL     1       1.402   9.343  19.573  0.00  0.00    +0.000 N 
ATOM      8  C   UNL     1       2.044   8.280  20.352  0.00  0.00    +0.000 C 
ATOM      9  C   UNL     1       2.169   7.032  19.458  0.00  0.00    +0.000 C 
ATOM     10  N   UNL     1       2.884   7.336  18.204  0.00  0.00    +0.000 N 
ATOM     11  C   UNL     1       3.939   6.621  17.670  0.00  0.00    +0.000 C 
ATOM     12  O   UNL     1       4.459   6.940  16.596  0.00  0.00    +0.000 OA
ATOM     13  C   UNL     1       2.333   8.483  17.462  0.00  0.00    +0.000 C 
ATOM     14  C   UNL     1       2.132   9.724  18.357  0.00  0.00    +0.000 C 
ATOM     15  S   UNL     1      -0.508  11.262  19.286  0.00  0.00    +0.000 S 
ATOM     16  C   UNL     1      -1.416  11.617  20.694  0.00  0.00    +0.000 A 
ATOM     17  C   UNL     1      -2.502  12.493  20.853  0.00  0.00    +0.000 A 
ENDROOT
BRANCH   1  18
ATOM     18  O   UNL     1      -4.137  13.495  22.168  0.00  0.00    +0.000 OA
BRANCH  18  20
ATOM     19  C   UNL     1      -6.167  12.796  23.217  0.00  0.00    +0.000 C 
ATOM     20  C   UNL     1      -4.864  13.553  23.394  0.00  0.00    +0.000 C 
ENDBRANCH  18  20
ENDBRANCH   1  18
BRANCH  11  21
ATOM     21  C   UNL     1       4.417   5.387  18.374  0.00  0.00    +0.000 C 
BRANCH  21  22
ATOM     22  S   UNL     1       3.503   3.980  17.808  0.00  0.00    +0.000 S 
ATOM     23  O   UNL     1       2.444   4.400  16.911  0.00  0.00    +0.000 OA
ATOM     24  O   UNL     1       4.424   2.924  17.430  0.00  0.00    +0.000 OA
BRANCH  22  25
ATOM     25  C   UNL     1       2.710   3.434  19.312  0.00  0.00    +0.000 A 
ATOM     26  C   UNL     1       3.469   2.783  20.291  0.00  0.00    +0.000 A 
ATOM     27  C   UNL     1       2.847   2.352  21.461  0.00  0.00    +0.000 A 
ATOM     28  C   UNL     1       1.484   2.581  21.642  0.00  0.00    +0.000 A 
ATOM     29  F   UNL     1       0.890   2.159  22.764  0.00  0.00    +0.000 F 
ATOM     30  C   UNL     1       0.731   3.243  20.676  0.00  0.00    +0.000 A 
ATOM     31  C   UNL     1       1.344   3.681  19.502  0.00  0.00    +0.000 A 
ENDBRANCH  22  25
ENDBRANCH  21  22
ENDBRANCH  11  21
TORSDOF 5
ENDMDL
MODEL 3
REMARK VINA RESULT:      -7.2      4.165     11.553
REMARK  Name = 
REMARK  6 active torsions:
REMARK  status: ('A' for Active; 'I' for Inactive)
REMARK    1  A    between atoms: C_1  and  C_2
REMARK    2  A    between atoms: C_2  and  O_3
REMARK    3  A    between atoms: O_3  and  C_4
REMARK    4  A    between atoms: C_14  and  C_16
REMARK    5  A    between atoms: C_16  and  S_17
REMARK    6  A    between atoms: S_17  and  C_20
REMARK                            x       y       z     vdW  Elec       q    Type
REMARK                         _______ _______ _______ _____ _____    ______ ____
ROOT
ATOM      1  C   UNL     1      -3.501  13.107  22.224  0.00  0.00    +0.000 A 
ATOM      2  C   UNL     1      -2.928  12.555  23.369  0.00  0.00    +0.000 A 
ATOM      3  C   UNL     1      -1.835  11.683  23.270  0.00  0.00    +0.000 A 
ATOM      4  C   UNL     1      -1.304  11.364  22.006  0.00  0.00    +0.000 A 
ATOM      5  N   UNL     1      -0.251  10.503  21.760  0.00  0.00    +0.000 NA
ATOM      6  C   UNL     1       0.013  10.427  20.473  0.00  0.00    +0.000 A 
ATOM      7  N   UNL     1       0.952   9.590  19.956  0.00  0.00    +0.000 N 
ATOM      8  C   UNL     1       1.655   8.660  20.846  0.00  0.00    +0.000 C 
ATOM      9  C   UNL     1       1.774   7.301  20.131  0.00  0.00    +0.000 C 
ATOM     10  N   UNL     1       2.426   7.440  18.815  0.00  0.00    +0.000 N 
ATOM     11  C   UNL     1       3.476   6.678  18.337  0.00  0.00    +0.000 C 
ATOM     12  O   UNL     1       3.940   6.853  17.207  0.00  0.00    +0.000 OA
ATOM     13  C   UNL     1       1.813   8.460  17.945  0.00  0.00    +0.000 C 
ATOM     14  C   UNL     1       1.618   9.810  18.667  0.00  0.00    +0.000 C 
ATOM     15  S   UNL     1      -1.019  11.410  19.492  0.00  0.00    +0.000 S 
ATOM     16  C   UNL     1      -1.874  11.941  20.878  0.00  0.00    +0.000 A 
ATOM     17  C   UNL     1      -2.975  12.808  20.963  0.00  0.00    +0.000 A 
ENDROOT
BRANCH   1  18
ATOM     18  O   UNL     1      -4.578  13.953  22.199  0.00  0.00    +0.000 OA
BRANCH  18  20
ATOM     19  C   UNL     1      -5.039  16.200  22.870  0.00  0.00    +0.000 C 
ATOM     20  C   UNL     1      -4.768  14.784  23.344  0.00  0.00    +0.000 C 
ENDBRANCH  18  20
ENDBRANCH   1  18
BRANCH  11  21
ATOM     21  C   UNL     1       4.016   5.566  19.184  0.00  0.00    +0.000 C 
BRANCH  21  22
ATOM     22  S   UNL     1       3.924   4.036  18.297  0.00  0.00    +0.000 S 
ATOM     23  O   UNL     1       4.432   2.953  19.115  0.00  0.00    +0.000 OA
ATOM     24  O   UNL     1       2.633   3.933  17.642  0.00  0.00    +0.000 OA
BRANCH  22  25
ATOM     25  C   UNL     1       5.121   4.298  16.998  0.00  0.00    +0.000 A 
ATOM     26  C   UNL     1       6.427   4.672  17.333  0.00  0.00    +0.000 A 
ATOM     27  C   UNL     1       7.358   4.883  16.317  0.00  0.00    +0.000 A 
ATOM     28  C   UNL     1       6.978   4.710  14.987  0.00  0.00    +0.000 A 
ATOM     29  F   UNL     1       7.874   4.919  14.015  0.00  0.00    +0.000 F 
ATOM     30  C   UNL     1       5.683   4.322  14.653  0.00  0.00    +0.000 A 
ATOM     31  C   UNL     1       4.745   4.106  15.662  0.00  0.00    +0.000 A 
ENDBRANCH  22  25
ENDBRANCH  21  22
ENDBRANCH  11  21
TORSDOF 5
ENDMDL
MODEL 4
REMARK VINA RESULT:      -7.2      3.407      4.583
REMARK  Name = 
REMARK  6 active torsions:
REMARK  status: ('A' for Active; 'I' for Inactive)
REMARK    1  A    between atoms: C_1  and  C_2
REMARK    2  A    between atoms: C_2  and  O_3
REMARK    3  A    between atoms: O_3  and  C_4
REMARK    4  A    between atoms: C_14  and  C_16
REMARK    5  A    between atoms: C_16  and  S_17
REMARK    6  A    between atoms: S_17  and  C_20
REMARK                            x       y       z     vdW  Elec       q    Type
REMARK                         _______ _______ _______ _____ _____    ______ ____
ROOT
ATOM      1  C   UNL     1       4.515   5.964  17.743  0.00  0.00    +0.000 A 
ATOM      2  C   UNL     1       4.117   5.339  18.924  0.00  0.00    +0.000 A 
ATOM      3  C   UNL     1       3.139   5.919  19.743  0.00  0.00    +0.000 A 
ATOM      4  C   UNL     1       2.544   7.139  19.370  0.00  0.00    +0.000 A 
ATOM      5  N   UNL     1       1.591   7.833  20.091  0.00  0.00    +0.000 NA
ATOM      6  C   UNL     1       1.229   8.934  19.467  0.00  0.00    +0.000 A 
ATOM      7  N   UNL     1       0.362   9.837  19.998  0.00  0.00    +0.000 N 
ATOM      8  C   UNL     1      -0.139   9.638  21.362  0.00  0.00    +0.000 C 
ATOM      9  C   UNL     1      -0.147  11.001  22.080  0.00  0.00    +0.000 C 
ATOM     10  N   UNL     1      -0.923  12.003  21.325  0.00  0.00    +0.000 N 
ATOM     11  C   UNL     1      -1.906  12.831  21.834  0.00  0.00    +0.000 C 
ATOM     12  O   UNL     1      -2.484  13.660  21.125  0.00  0.00    +0.000 OA
ATOM     13  C   UNL     1      -0.521  12.134  19.913  0.00  0.00    +0.000 C 
ATOM     14  C   UNL     1      -0.436  10.772  19.194  0.00  0.00    +0.000 C 
ATOM     15  S   UNL     1       2.040   9.178  17.959  0.00  0.00    +0.000 S 
ATOM     16  C   UNL     1       2.938   7.736  18.178  0.00  0.00    +0.000 A 
ATOM     17  C   UNL     1       3.924   7.170  17.354  0.00  0.00    +0.000 A 
ENDROOT
BRANCH   1  18
ATOM     18  O   UNL     1       5.471   5.500  16.878  0.00  0.00    +0.000 OA
BRANCH  18  20
ATOM     19  C   UNL     1       5.585   4.149  14.910  0.00  0.00    +0.000 C 
ATOM     20  C   UNL     1       5.312   4.164  16.403  0.00  0.00    +0.000 C 
ENDBRANCH  18  20
ENDBRANCH   1  18
BRANCH  11  21
ATOM     21  C   UNL     1      -2.226  12.770  23.297  0.00  0.00    +0.000 C 
BRANCH  21  22
ATOM     22  S   UNL     1      -3.974  12.596  23.522  0.00  0.00    +0.000 S 
ATOM     23  O   UNL     1      -4.614  12.294  22.257  0.00  0.00    +0.000 OA
ATOM     24  O   UNL     1      -4.232  11.787  24.699  0.00  0.00    +0.000 OA
BRANCH  22  25
ATOM     25  C   UNL     1      -4.452  14.263  23.950  0.00  0.00    +0.000 A 
ATOM     26  C   UNL     1      -5.743  14.707  23.643  0.00  0.00    +0.000 A 
ATOM     27  C   UNL     1      -6.112  16.010  23.971  0.00  0.00    +0.000 A 
ATOM     28  C   UNL     1      -5.196  16.847  24.607  0.00  0.00    +0.000 A 
ATOM     29  F   UNL     1      -5.553  18.098  24.915  0.00  0.00    +0.000 F 
ATOM     30  C   UNL     1      -3.916  16.400  24.928  0.00  0.00    +0.000 A 
ATOM     31  C   UNL     1      -3.538  15.097  24.606  0.00  0.00    +0.000 A 
ENDBRANCH  22  25
ENDBRANCH  21  22
ENDBRANCH  11  21
TORSDOF 5
ENDMDL
MODEL 5
REMARK VINA RESULT:      -7.2      5.437     11.353
REMARK  Name = 
REMARK  6 active torsions:
REMARK  status: ('A' for Active; 'I' for Inactive)
REMARK    1  A    between atoms: C_1  and  C_2
REMARK    2  A    between atoms: C_2  and  O_3
REMARK    3  A    between atoms: O_3  and  C_4
REMARK    4  A    between atoms: C_14  and  C_16
REMARK    5  A    between atoms: C_16  and  S_17
REMARK    6  A    between atoms: S_17  and  C_20
REMARK                            x       y       z     vdW  Elec       q    Type
REMARK                         _______ _______ _______ _____ _____    ______ ____
ROOT
ATOM      1  C   UNL     1      -0.399  15.598  20.120  0.00  0.00    +0.000 A 
ATOM      2  C   UNL     1      -0.304  15.371  18.749  0.00  0.00    +0.000 A 
ATOM      3  C   UNL     1      -0.037  14.087  18.255  0.00  0.00    +0.000 A 
ATOM      4  C   UNL     1       0.131  13.013  19.149  0.00  0.00    +0.000 A 
ATOM      5  N   UNL     1       0.424  11.706  18.805  0.00  0.00    +0.000 NA
ATOM      6  C   UNL     1       0.506  10.939  19.870  0.00  0.00    +0.000 A 
ATOM      7  N   UNL     1       0.860   9.627  19.815  0.00  0.00    +0.000 N 
ATOM      8  C   UNL     1       1.253   9.041  18.529  0.00  0.00    +0.000 C 
ATOM      9  C   UNL     1       2.468   8.125  18.765  0.00  0.00    +0.000 C 
ATOM     10  N   UNL     1       2.185   7.108  19.795  0.00  0.00    +0.000 N 
ATOM     11  C   UNL     1       2.416   5.749  19.689  0.00  0.00    +0.000 C 
ATOM     12  O   UNL     1       2.168   4.977  20.620  0.00  0.00    +0.000 OA
ATOM     13  C   UNL     1       1.668   7.662  21.059  0.00  0.00    +0.000 C 
ATOM     14  C   UNL     1       0.496   8.640  20.839  0.00  0.00    +0.000 C 
ATOM     15  S   UNL     1       0.229  11.780  21.356  0.00  0.00    +0.000 S 
ATOM     16  C   UNL     1       0.012  13.254  20.512  0.00  0.00    +0.000 A 
ATOM     17  C   UNL     1      -0.246  14.538  21.020  0.00  0.00    +0.000 A 
ENDROOT
BRANCH   1  18
ATOM     18  O   UNL     1      -0.638  16.810  20.714  0.00  0.00    +0.000 OA
BRANCH  18  20
ATOM     19  C   UNL     1       1.429  18.007  20.796  0.00  0.00    +0.000 C 
ATOM     20  C   UNL     1       0.048  17.937  20.171  0.00  0.00    +0.000 C 
ENDBRANCH  18  20
ENDBRANCH   1  18
BRANCH  11  21
ATOM     21  C   UNL     1       3.050   5.211  18.443  0.00  0.00    +0.000 C 
BRANCH  21  22
ATOM     22  S   UNL     1       4.636   4.523  18.825  0.00  0.00    +0.000 S 
ATOM     23  O   UNL     1       5.374   5.419  19.692  0.00  0.00    +0.000 OA
ATOM     24  O   UNL     1       4.487   3.118  19.158  0.00  0.00    +0.000 OA
BRANCH  22  25
ATOM     25  C   UNL     1       5.445   4.572  17.233  0.00  0.00    +0.000 A 
ATOM     26  C   UNL     1       6.830   4.764  17.172  0.00  0.00    +0.000 A 
ATOM     27  C   UNL     1       7.458   4.809  15.929  0.00  0.00    +0.000 A 
ATOM     28  C   UNL     1       6.702   4.655  14.768  0.00  0.00    +0.000 A 
ATOM     29  F   UNL     1       7.309   4.705  13.577  0.00  0.00    +0.000 F 
ATOM     30  C   UNL     1       5.326   4.446  14.828  0.00  0.00    +0.000 A 
ATOM     31  C   UNL     1       4.688   4.397  16.068  0.00  0.00    +0.000 A 
ENDBRANCH  22  25
ENDBRANCH  21  22
ENDBRANCH  11  21
TORSDOF 5
ENDMDL
MODEL 6
REMARK VINA RESULT:      -7.2      3.720     10.859
REMARK  Name = 
REMARK  6 active torsions:
REMARK  status: ('A' for Active; 'I' for Inactive)
REMARK    1  A    between atoms: C_1  and  C_2
REMARK    2  A    between atoms: C_2  and  O_3
REMARK    3  A    between atoms: O_3  and  C_4
REMARK    4  A    between atoms: C_14  and  C_16
REMARK    5  A    between atoms: C_16  and  S_17
REMARK    6  A    between atoms: S_17  and  C_20
REMARK                            x       y       z     vdW  Elec       q    Type
REMARK                         _______ _______ _______ _____ _____    ______ ____
ROOT
ATOM      1  C   UNL     1      -3.242  13.022  21.786  0.00  0.00    +0.000 A 
ATOM      2  C   UNL     1      -2.639  12.486  22.923  0.00  0.00    +0.000 A 
ATOM      3  C   UNL     1      -1.522  11.647  22.810  0.00  0.00    +0.000 A 
ATOM      4  C   UNL     1      -0.997  11.346  21.540  0.00  0.00    +0.000 A 
ATOM      5  N   UNL     1       0.078  10.516  21.280  0.00  0.00    +0.000 NA
ATOM      6  C   UNL     1       0.329  10.449  19.990  0.00  0.00    +0.000 A 
ATOM      7  N   UNL     1       1.285   9.641  19.460  0.00  0.00    +0.000 N 
ATOM      8  C   UNL     1       2.027   8.732  20.340  0.00  0.00    +0.000 C 
ATOM      9  C   UNL     1       2.178   7.377  19.622  0.00  0.00    +0.000 C 
ATOM     10  N   UNL     1       2.809   7.536  18.299  0.00  0.00    +0.000 N 
ATOM     11  C   UNL     1       3.876   6.807  17.808  0.00  0.00    +0.000 C 
ATOM     12  O   UNL     1       4.320   6.996  16.672  0.00  0.00    +0.000 OA
ATOM     13  C   UNL     1       2.156   8.538  17.438  0.00  0.00    +0.000 C 
ATOM     14  C   UNL     1       1.929   9.881  18.163  0.00  0.00    +0.000 C 
ATOM     15  S   UNL     1      -0.744  11.402  19.022  0.00  0.00    +0.000 S 
ATOM     16  C   UNL     1      -1.598  11.906  20.419  0.00  0.00    +0.000 A 
ATOM     17  C   UNL     1      -2.723  12.740  20.518  0.00  0.00    +0.000 A 
ENDROOT
BRANCH   1  18
ATOM     18  O   UNL     1      -4.345  13.836  21.775  0.00  0.00    +0.000 OA
BRANCH  18  20
ATOM     19  C   UNL     1      -6.583  13.910  22.608  0.00  0.00    +0.000 C 
ATOM     20  C   UNL     1      -5.111  13.893  22.977  0.00  0.00    +0.000 C 
ENDBRANCH  18  20
ENDBRANCH   1  18
BRANCH  11  21
ATOM     21  C   UNL     1       4.459   5.711  18.647  0.00  0.00    +0.000 C 
BRANCH  21  22
ATOM     22  S   UNL     1       3.886   4.139  18.065  0.00  0.00    +0.000 S 
ATOM     23  O   UNL     1       2.995   4.318  16.936  0.00  0.00    +0.000 OA
ATOM     24  O   UNL     1       5.001   3.213  17.995  0.00  0.00    +0.000 OA
BRANCH  22  25
ATOM     25  C   UNL     1       2.873   3.594  19.431  0.00  0.00    +0.000 A 
ATOM     26  C   UNL     1       1.487   3.775  19.373  0.00  0.00    +0.000 A 
ATOM     27  C   UNL     1       0.699   3.355  20.444  0.00  0.00    +0.000 A 
ATOM     28  C   UNL     1       1.300   2.756  21.549  0.00  0.00    +0.000 A 
ATOM     29  F   UNL     1       0.540   2.360  22.576  0.00  0.00    +0.000 F 
ATOM     30  C   UNL     1       2.678   2.560  21.601  0.00  0.00    +0.000 A 
ATOM     31  C   UNL     1       3.475   2.974  20.533  0.00  0.00    +0.000 A 
ENDBRANCH  22  25
ENDBRANCH  21  22
ENDBRANCH  11  21
TORSDOF 5
ENDMDL
MODEL 7
REMARK VINA RESULT:      -7.0      3.350      4.577
REMARK  Name = 
REMARK  6 active torsions:
REMARK  status: ('A' for Active; 'I' for Inactive)
REMARK    1  A    between atoms: C_1  and  C_2
REMARK    2  A    between atoms: C_2  and  O_3
REMARK    3  A    between atoms: O_3  and  C_4
REMARK    4  A    between atoms: C_14  and  C_16
REMARK    5  A    between atoms: C_16  and  S_17
REMARK    6  A    between atoms: S_17  and  C_20
REMARK                            x       y       z     vdW  Elec       q    Type
REMARK                         _______ _______ _______ _____ _____    ______ ____
ROOT
ATOM      1  C   UNL     1       4.144   5.407  18.236  0.00  0.00    +0.000 A 
ATOM      2  C   UNL     1       3.638   4.883  19.424  0.00  0.00    +0.000 A 
ATOM      3  C   UNL     1       2.691   5.595  20.172  0.00  0.00    +0.000 A 
ATOM      4  C   UNL     1       2.239   6.849  19.719  0.00  0.00    +0.000 A 
ATOM      5  N   UNL     1       1.333   7.669  20.365  0.00  0.00    +0.000 NA
ATOM      6  C   UNL     1       1.109   8.769  19.677  0.00  0.00    +0.000 A 
ATOM      7  N   UNL     1       0.317   9.779  20.128  0.00  0.00    +0.000 N 
ATOM      8  C   UNL     1      -0.256   9.696  21.475  0.00  0.00    +0.000 C 
ATOM      9  C   UNL     1      -0.155  11.086  22.132  0.00  0.00    +0.000 C 
ATOM     10  N   UNL     1      -0.793  12.123  21.299  0.00  0.00    +0.000 N 
ATOM     11  C   UNL     1      -1.708  13.068  21.727  0.00  0.00    +0.000 C 
ATOM     12  O   UNL     1      -2.170  13.915  20.956  0.00  0.00    +0.000 OA
ATOM     13  C   UNL     1      -0.324  12.145  19.902  0.00  0.00    +0.000 C 
ATOM     14  C   UNL     1      -0.348  10.748  19.249  0.00  0.00    +0.000 C 
ATOM     15  S   UNL     1       2.001   8.858  18.198  0.00  0.00    +0.000 S 
ATOM     16  C   UNL     1       2.738   7.346  18.521  0.00  0.00    +0.000 A 
ATOM     17  C   UNL     1       3.695   6.646  17.768  0.00  0.00    +0.000 A 
ENDROOT
BRANCH   1  18
ATOM     18  O   UNL     1       5.082   4.809  17.436  0.00  0.00    +0.000 OA
BRANCH  18  20
ATOM     19  C   UNL     1       7.361   4.616  16.743  0.00  0.00    +0.000 C 
ATOM     20  C   UNL     1       6.423   4.791  17.923  0.00  0.00    +0.000 C 
ENDBRANCH  18  20
ENDBRANCH   1  18
BRANCH  11  21
ATOM     21  C   UNL     1      -2.091  13.110  23.174  0.00  0.00    +0.000 C 
BRANCH  21  22
ATOM     22  S   UNL     1      -3.821  12.772  23.348  0.00  0.00    +0.000 S 
ATOM     23  O   UNL     1      -4.402  12.464  22.056  0.00  0.00    +0.000 OA
ATOM     24  O   UNL     1      -4.032  11.898  24.487  0.00  0.00    +0.000 OA
BRANCH  22  25
ATOM     25  C   UNL     1      -4.457  14.372  23.824  0.00  0.00    +0.000 A 
ATOM     26  C   UNL     1      -3.621  15.270  24.497  0.00  0.00    +0.000 A 
ATOM     27  C   UNL     1      -4.122  16.515  24.873  0.00  0.00    +0.000 A 
ATOM     28  C   UNL     1      -5.440  16.850  24.568  0.00  0.00    +0.000 A 
ATOM     29  F   UNL     1      -5.917  18.044  24.936  0.00  0.00    +0.000 F 
ATOM     30  C   UNL     1      -6.267  15.963  23.883  0.00  0.00    +0.000 A 
ATOM     31  C   UNL     1      -5.775  14.716  23.499  0.00  0.00    +0.000 A 
ENDBRANCH  22  25
ENDBRANCH  21  22
ENDBRANCH  11  21
TORSDOF 5
ENDMDL
MODEL 8
REMARK VINA RESULT:      -7.0      1.059      1.531
REMARK  Name = 
REMARK  6 active torsions:
REMARK  status: ('A' for Active; 'I' for Inactive)
REMARK    1  A    between atoms: C_1  and  C_2
REMARK    2  A    between atoms: C_2  and  O_3
REMARK    3  A    between atoms: O_3  and  C_4
REMARK    4  A    between atoms: C_14  and  C_16
REMARK    5  A    between atoms: C_16  and  S_17
REMARK    6  A    between atoms: S_17  and  C_20
REMARK                            x       y       z     vdW  Elec       q    Type
REMARK                         _______ _______ _______ _____ _____    ______ ____
ROOT
ATOM      1  C   UNL     1       2.625   6.849  19.229  0.00  0.00    +0.000 A 
ATOM      2  C   UNL     1       2.521   7.668  18.106  0.00  0.00    +0.000 A 
ATOM      3  C   UNL     1       1.785   8.860  18.158  0.00  0.00    +0.000 A 
ATOM      4  C   UNL     1       1.149   9.240  19.355  0.00  0.00    +0.000 A 
ATOM      5  N   UNL     1       0.372  10.368  19.540  0.00  0.00    +0.000 NA
ATOM      6  C   UNL     1      -0.071  10.445  20.777  0.00  0.00    +0.000 A 
ATOM      7  N   UNL     1      -0.922  11.418  21.202  0.00  0.00    +0.000 N 
ATOM      8  C   UNL     1      -1.447  12.387  20.235  0.00  0.00    +0.000 C 
ATOM      9  C   UNL     1      -2.940  12.614  20.539  0.00  0.00    +0.000 C 
ATOM     10  N   UNL     1      -3.148  13.030  21.939  0.00  0.00    +0.000 N 
ATOM     11  C   UNL     1      -3.902  14.106  22.369  0.00  0.00    +0.000 C 
ATOM     12  O   UNL     1      -4.039  14.360  23.570  0.00  0.00    +0.000 OA
ATOM     13  C   UNL     1      -2.521  12.138  22.930  0.00  0.00    +0.000 C 
ATOM     14  C   UNL     1      -1.043  11.839  22.603  0.00  0.00    +0.000 C 
ATOM     15  S   UNL     1       0.441   9.133  21.782  0.00  0.00    +0.000 S 
ATOM     16  C   UNL     1       1.281   8.422  20.470  0.00  0.00    +0.000 A 
ATOM     17  C   UNL     1       2.008   7.221  20.428  0.00  0.00    +0.000 A 
ENDROOT
BRANCH   1  18
ATOM     18  O   UNL     1       3.300   5.658  19.289  0.00  0.00    +0.000 OA
BRANCH  18  20
ATOM     19  C   UNL     1       5.651   5.406  18.940  0.00  0.00    +0.000 C 
ATOM     20  C   UNL     1       4.284   5.428  18.281  0.00  0.00    +0.000 C 
ENDBRANCH  18  20
ENDBRANCH   1  18
BRANCH  11  21
ATOM     21  C   UNL     1      -4.631  14.938  21.359  0.00  0.00    +0.000 C 
BRANCH  21  22
ATOM     22  S   UNL     1      -6.342  14.480  21.324  0.00  0.00    +0.000 S 
ATOM     23  O   UNL     1      -6.495  13.092  21.712  0.00  0.00    +0.000 OA
ATOM     24  O   UNL     1      -7.134  15.521  21.952  0.00  0.00    +0.000 OA
BRANCH  22  25
ATOM     25  C   UNL     1      -6.704  14.564  19.578  0.00  0.00    +0.000 A 
ATOM     26  C   UNL     1      -7.135  13.412  18.910  0.00  0.00    +0.000 A 
ATOM     27  C   UNL     1      -7.410  13.479  17.545  0.00  0.00    +0.000 A 
ATOM     28  C   UNL     1      -7.262  14.688  16.869  0.00  0.00    +0.000 A 
ATOM     29  F   UNL     1      -7.522  14.745  15.558  0.00  0.00    +0.000 F 
ATOM     30  C   UNL     1      -6.849  15.840  17.536  0.00  0.00    +0.000 A 
ATOM     31  C   UNL     1      -6.573  15.784  18.903  0.00  0.00    +0.000 A 
ENDBRANCH  22  25
ENDBRANCH  21  22
ENDBRANCH  11  21
TORSDOF 5
ENDMDL
MODEL 9
REMARK VINA RESULT:      -7.0      3.569      5.005
REMARK  Name = 
REMARK  6 active torsions:
REMARK  status: ('A' for Active; 'I' for Inactive)
REMARK    1  A    between atoms: C_1  and  C_2
REMARK    2  A    between atoms: C_2  and  O_3
REMARK    3  A    between atoms: O_3  and  C_4
REMARK    4  A    between atoms: C_14  and  C_16
REMARK    5  A    between atoms: C_16  and  S_17
REMARK    6  A    between atoms: S_17  and  C_20
REMARK                            x       y       z     vdW  Elec       q    Type
REMARK                         _______ _______ _______ _____ _____    ______ ____
ROOT
ATOM      1  C   UNL     1       4.408   4.847  18.213  0.00  0.00    +0.000 A 
ATOM      2  C   UNL     1       3.894   4.504  19.462  0.00  0.00    +0.000 A 
ATOM      3  C   UNL     1       3.008   5.361  20.130  0.00  0.00    +0.000 A 
ATOM      4  C   UNL     1       2.626   6.577  19.533  0.00  0.00    +0.000 A 
ATOM      5  N   UNL     1       1.785   7.526  20.086  0.00  0.00    +0.000 NA
ATOM      6  C   UNL     1       1.616   8.547  19.272  0.00  0.00    +0.000 A 
ATOM      7  N   UNL     1       0.898   9.652  19.607  0.00  0.00    +0.000 N 
ATOM      8  C   UNL     1       0.348   9.769  20.961  0.00  0.00    +0.000 C 
ATOM      9  C   UNL     1       0.548  11.219  21.442  0.00  0.00    +0.000 C 
ATOM     10  N   UNL     1      -0.041  12.186  20.497  0.00  0.00    +0.000 N 
ATOM     11  C   UNL     1      -0.886  13.232  20.818  0.00  0.00    +0.000 C 
ATOM     12  O   UNL     1      -1.310  14.008  19.956  0.00  0.00    +0.000 OA
ATOM     13  C   UNL     1       0.401  12.010  19.102  0.00  0.00    +0.000 C 
ATOM     14  C   UNL     1       0.276  10.548  18.625  0.00  0.00    +0.000 C 
ATOM     15  S   UNL     1       2.482   8.398  17.782  0.00  0.00    +0.000 S 
ATOM     16  C   UNL     1       3.131   6.893  18.278  0.00  0.00    +0.000 A 
ATOM     17  C   UNL     1       4.027   6.047  17.603  0.00  0.00    +0.000 A 
ENDROOT
BRANCH   1  18
ATOM     18  O   UNL     1       5.291   4.099  17.480  0.00  0.00    +0.000 OA
BRANCH  18  20
ATOM     19  C   UNL     1       7.021   4.629  15.919  0.00  0.00    +0.000 C 
ATOM     20  C   UNL     1       6.626   4.594  17.384  0.00  0.00    +0.000 C 
ENDBRANCH  18  20
ENDBRANCH   1  18
BRANCH  11  21
ATOM     21  C   UNL     1      -1.237  13.474  22.254  0.00  0.00    +0.000 C 
BRANCH  21  22
ATOM     22  S   UNL     1      -2.856  12.839  22.592  0.00  0.00    +0.000 S 
ATOM     23  O   UNL     1      -3.588  12.652  21.355  0.00  0.00    +0.000 OA
ATOM     24  O   UNL     1      -2.763  11.772  23.571  0.00  0.00    +0.000 OA
BRANCH  22  25
ATOM     25  C   UNL     1      -3.618  14.219  23.431  0.00  0.00    +0.000 A 
ATOM     26  C   UNL     1      -4.936  14.570  23.118  0.00  0.00    +0.000 A 
ATOM     27  C   UNL     1      -5.527  15.652  23.770  0.00  0.00    +0.000 A 
ATOM     28  C   UNL     1      -4.802  16.361  24.726  0.00  0.00    +0.000 A 
ATOM     29  F   UNL     1      -5.371  17.402  25.344  0.00  0.00    +0.000 F 
ATOM     30  C   UNL     1      -3.496  16.002  25.051  0.00  0.00    +0.000 A 
ATOM     31  C   UNL     1      -2.896  14.919  24.407  0.00  0.00    +0.000 A 
ENDBRANCH  22  25
ENDBRANCH  21  22
ENDBRANCH  11  21
TORSDOF 5
ENDMDL
