MODEL 1
REMARK VINA RESULT:      -7.5      0.000      0.000
REMARK  Name = 
REMARK  10 active torsions:
REMARK  status: ('A' for Active; 'I' for Inactive)
REMARK    1  A    between atoms: C_1  and  O_2
REMARK    2  A    between atoms: O_2  and  C_3
REMARK    3  A    between atoms: C_5  and  C_6
REMARK    4  A    between atoms: C_8  and  C_9
REMARK    5  A    between atoms: N_20  and  C_21
REMARK    6  A    between atoms: C_21  and  C_22
REMARK    7  A    between atoms: C_25  and  O_26
REMARK    8  A    between atoms: O_26  and  C_27
REMARK    9  A    between atoms: C_28  and  O_29
REMARK   10  A    between atoms: O_29  and  C_30
REMARK                            x       y       z     vdW  Elec       q    Type
REMARK                         _______ _______ _______ _____ _____    ______ ____
ROOT
ATOM      1  C   UNL     1       0.241  10.540  18.920  0.00  0.00    +0.000 C 
ATOM      2  C   UNL     1       1.181   9.723  18.021  0.00  0.00    +0.000 C 
ATOM      3  C   UNL     1       1.670   8.682  18.996  0.00  0.00    +0.000 C 
ATOM      4  N   UNL     1       1.238   8.818  20.212  0.00  0.00    +0.000 NA
ATOM      5  N   UNL     1       0.365   9.833  20.197  0.00  0.00    +0.000 N 
ENDROOT
BRANCH   3   6
ATOM      6  C   UNL     1       2.538   7.543  18.614  0.00  0.00    +0.000 A 
ATOM      7  C   UNL     1       2.379   6.354  19.338  0.00  0.00    +0.000 A 
ATOM      8  C   UNL     1       3.052   5.196  18.957  0.00  0.00    +0.000 A 
ATOM      9  C   UNL     1       3.905   5.209  17.853  0.00  0.00    +0.000 A 
ATOM     10  C   UNL     1       4.525   4.027  17.423  0.00  0.00    +0.000 A 
ATOM     11  C   UNL     1       5.394   4.038  16.334  0.00  0.00    +0.000 A 
ATOM     12  C   UNL     1       5.672   5.235  15.684  0.00  0.00    +0.000 A 
ATOM     13  C   UNL     1       5.048   6.420  16.090  0.00  0.00    +0.000 A 
ATOM     14  C   UNL     1       4.134   6.422  17.158  0.00  0.00    +0.000 A 
ATOM     15  C   UNL     1       3.432   7.585  17.541  0.00  0.00    +0.000 A 
ENDBRANCH   3   6
BRANCH   1  18
ATOM     16  C   UNL     1      -0.260  14.258  19.551  0.00  0.00    +0.000 A 
ATOM     17  C   UNL     1      -0.494  12.926  19.167  0.00  0.00    +0.000 A 
ATOM     18  C   UNL     1       0.554  12.022  18.998  0.00  0.00    +0.000 A 
ATOM     19  C   UNL     1       1.859  12.514  19.066  0.00  0.00    +0.000 A 
ATOM     20  C   UNL     1       2.123  13.865  19.363  0.00  0.00    +0.000 A 
ATOM     21  C   UNL     1       1.057  14.759  19.615  0.00  0.00    +0.000 A 
BRANCH  16  23
ATOM     22  C   UNL     1      -1.815  14.922  21.205  0.00  0.00    +0.000 C 
ATOM     23  O   UNL     1      -1.328  15.062  19.866  0.00  0.00    +0.000 OA
ENDBRANCH  16  23
BRANCH  20  24
ATOM     24  O   UNL     1       3.477  14.098  19.413  0.00  0.00    +0.000 OA
ATOM     25  C   UNL     1       4.152  14.568  18.256  0.00  0.00    +0.000 C 
ENDBRANCH  20  24
BRANCH  21  26
ATOM     26  O   UNL     1       1.414  16.045  19.920  0.00  0.00    +0.000 OA
ATOM     27  C   UNL     1       1.449  17.052  18.923  0.00  0.00    +0.000 C 
ENDBRANCH  21  26
ENDBRANCH   1  18
BRANCH   5  28
ATOM     28  C   UNL     1      -0.101  10.412  21.444  0.00  0.00    +0.000 C 
BRANCH  28  29
ATOM     29  C   UNL     1      -0.007   9.445  22.603  0.00  0.00    +0.000 C 
ATOM     30  O   UNL     1       0.423   9.688  23.722  0.00  0.00    +0.000 OA
ENDBRANCH  28  29
ENDBRANCH   5  28
TORSDOF 7
ENDMDL
MODEL 2
REMARK VINA RESULT:      -7.5      0.527      2.316
REMARK  Name = 
REMARK  10 active torsions:
REMARK  status: ('A' for Active; 'I' for Inactive)
REMARK    1  A    between atoms: C_1  and  O_2
REMARK    2  A    between atoms: O_2  and  C_3
REMARK    3  A    between atoms: C_5  and  C_6
REMARK    4  A    between atoms: C_8  and  C_9
REMARK    5  A    between atoms: N_20  and  C_21
REMARK    6  A    between atoms: C_21  and  C_22
REMARK    7  A    between atoms: C_25  and  O_26
REMARK    8  A    between atoms: O_26  and  C_27
REMARK    9  A    between atoms: C_28  and  O_29
REMARK   10  A    between atoms: O_29  and  C_30
REMARK                            x       y       z     vdW  Elec       q    Type
REMARK                         _______ _______ _______ _____ _____    ______ ____
ROOT
ATOM      1  C   UNL     1       0.338  10.451  18.963  0.00  0.00    +0.000 C 
ATOM      2  C   UNL     1       1.246   9.662  18.009  0.00  0.00    +0.000 C 
ATOM      3  C   UNL     1       1.758   8.584  18.932  0.00  0.00    +0.000 C 
ATOM      4  N   UNL     1       1.362   8.679  20.164  0.00  0.00    +0.000 NA
ATOM      5  N   UNL     1       0.495   9.698  20.210  0.00  0.00    +0.000 N 
ENDROOT
BRANCH   3   6
ATOM      6  C   UNL     1       2.608   7.456  18.484  0.00  0.00    +0.000 A 
ATOM      7  C   UNL     1       2.382   6.213  19.090  0.00  0.00    +0.000 A 
ATOM      8  C   UNL     1       3.036   5.072  18.633  0.00  0.00    +0.000 A 
ATOM      9  C   UNL     1       3.938   5.155  17.570  0.00  0.00    +0.000 A 
ATOM     10  C   UNL     1       4.541   3.996  17.060  0.00  0.00    +0.000 A 
ATOM     11  C   UNL     1       5.456   4.076  16.014  0.00  0.00    +0.000 A 
ATOM     12  C   UNL     1       5.799   5.316  15.488  0.00  0.00    +0.000 A 
ATOM     13  C   UNL     1       5.193   6.480  15.974  0.00  0.00    +0.000 A 
ATOM     14  C   UNL     1       4.233   6.416  16.999  0.00  0.00    +0.000 A 
ATOM     15  C   UNL     1       3.549   7.564  17.456  0.00  0.00    +0.000 A 
ENDBRANCH   3   6
BRANCH   1  18
ATOM     16  C   UNL     1       2.193  13.740  18.503  0.00  0.00    +0.000 A 
ATOM     17  C   UNL     1       1.927  12.375  18.709  0.00  0.00    +0.000 A 
ATOM     18  C   UNL     1       0.662  11.927  19.085  0.00  0.00    +0.000 A 
ATOM     19  C   UNL     1      -0.301  12.886  19.407  0.00  0.00    +0.000 A 
ATOM     20  C   UNL     1      -0.035  14.264  19.295  0.00  0.00    +0.000 A 
ATOM     21  C   UNL     1       1.224  14.710  18.834  0.00  0.00    +0.000 A 
BRANCH  16  23
ATOM     22  C   UNL     1       4.386  14.511  18.939  0.00  0.00    +0.000 C 
ATOM     23  O   UNL     1       3.404  14.115  17.975  0.00  0.00    +0.000 OA
ENDBRANCH  16  23
BRANCH  20  24
ATOM     24  O   UNL     1      -1.146  15.004  19.628  0.00  0.00    +0.000 OA
ATOM     25  C   UNL     1      -1.540  15.105  20.989  0.00  0.00    +0.000 C 
ENDBRANCH  20  24
BRANCH  21  26
ATOM     26  O   UNL     1       1.379  16.067  18.734  0.00  0.00    +0.000 OA
ATOM     27  C   UNL     1       1.756  16.846  19.857  0.00  0.00    +0.000 C 
ENDBRANCH  21  26
ENDBRANCH   1  18
BRANCH   5  28
ATOM     28  C   UNL     1       0.070  10.234  21.491  0.00  0.00    +0.000 C 
BRANCH  28  29
ATOM     29  C   UNL     1       0.578   9.419  22.659  0.00  0.00    +0.000 C 
ATOM     30  O   UNL     1       0.384   9.645  23.845  0.00  0.00    +0.000 OA
ENDBRANCH  28  29
ENDBRANCH   5  28
TORSDOF 7
ENDMDL
MODEL 3
REMARK VINA RESULT:      -7.4      2.943      4.938
REMARK  Name = 
REMARK  10 active torsions:
REMARK  status: ('A' for Active; 'I' for Inactive)
REMARK    1  A    between atoms: C_1  and  O_2
REMARK    2  A    between atoms: O_2  and  C_3
REMARK    3  A    between atoms: C_5  and  C_6
REMARK    4  A    between atoms: C_8  and  C_9
REMARK    5  A    between atoms: N_20  and  C_21
REMARK    6  A    between atoms: C_21  and  C_22
REMARK    7  A    between atoms: C_25  and  O_26
REMARK    8  A    between atoms: O_26  and  C_27
REMARK    9  A    between atoms: C_28  and  O_29
REMARK   10  A    between atoms: O_29  and  C_30
REMARK                            x       y       z     vdW  Elec       q    Type
REMARK                         _______ _______ _______ _____ _____    ______ ____
ROOT
ATOM      1  C   UNL     1      -0.447  11.253  19.917  0.00  0.00    +0.000 C 
ATOM      2  C   UNL     1      -0.142   9.749  19.972  0.00  0.00    +0.000 C 
ATOM      3  C   UNL     1       1.155   9.695  19.204  0.00  0.00    +0.000 C 
ATOM      4  N   UNL     1       1.554  10.828  18.715  0.00  0.00    +0.000 NA
ATOM      5  N   UNL     1       0.698  11.759  19.155  0.00  0.00    +0.000 N 
ENDROOT
BRANCH   3   6
ATOM      6  C   UNL     1       1.965   8.464  19.048  0.00  0.00    +0.000 A 
ATOM      7  C   UNL     1       1.787   7.462  20.011  0.00  0.00    +0.000 A 
ATOM      8  C   UNL     1       2.402   6.221  19.866  0.00  0.00    +0.000 A 
ATOM      9  C   UNL     1       3.216   5.964  18.762  0.00  0.00    +0.000 A 
ATOM     10  C   UNL     1       3.776   4.692  18.576  0.00  0.00    +0.000 A 
ATOM     11  C   UNL     1       4.607   4.436  17.487  0.00  0.00    +0.000 A 
ATOM     12  C   UNL     1       4.908   5.457  16.593  0.00  0.00    +0.000 A 
ATOM     13  C   UNL     1       4.343   6.726  16.755  0.00  0.00    +0.000 A 
ATOM     14  C   UNL     1       3.467   6.993  17.822  0.00  0.00    +0.000 A 
ATOM     15  C   UNL     1       2.823   8.241  17.968  0.00  0.00    +0.000 A 
ENDBRANCH   3   6
BRANCH   1  18
ATOM     16  C   UNL     1      -3.506  11.087  17.662  0.00  0.00    +0.000 A 
ATOM     17  C   UNL     1      -2.174  11.045  18.110  0.00  0.00    +0.000 A 
ATOM     18  C   UNL     1      -1.795  11.614  19.325  0.00  0.00    +0.000 A 
ATOM     19  C   UNL     1      -2.745  12.369  20.016  0.00  0.00    +0.000 A 
ATOM     20  C   UNL     1      -4.065  12.502  19.546  0.00  0.00    +0.000 A 
ATOM     21  C   UNL     1      -4.465  11.854  18.355  0.00  0.00    +0.000 A 
BRANCH  16  23
ATOM     22  C   UNL     1      -3.084  10.655  15.375  0.00  0.00    +0.000 C 
ATOM     23  O   UNL     1      -3.860  10.372  16.544  0.00  0.00    +0.000 OA
ENDBRANCH  16  23
BRANCH  20  24
ATOM     24  O   UNL     1      -4.820  13.256  20.415  0.00  0.00    +0.000 OA
ATOM     25  C   UNL     1      -5.328  12.663  21.600  0.00  0.00    +0.000 C 
ENDBRANCH  20  24
BRANCH  21  26
ATOM     26  O   UNL     1      -5.775  12.022  17.993  0.00  0.00    +0.000 OA
ATOM     27  C   UNL     1      -6.769  11.088  18.381  0.00  0.00    +0.000 C 
ENDBRANCH  21  26
ENDBRANCH   1  18
BRANCH   5  28
ATOM     28  C   UNL     1       0.708  13.090  18.577  0.00  0.00    +0.000 C 
BRANCH  28  29
ATOM     29  C   UNL     1       2.097  13.539  18.180  0.00  0.00    +0.000 C 
ATOM     30  O   UNL     1       2.712  14.493  18.635  0.00  0.00    +0.000 OA
ENDBRANCH  28  29
ENDBRANCH   5  28
TORSDOF 7
ENDMDL
MODEL 4
REMARK VINA RESULT:      -7.4      3.572      8.805
REMARK  Name = 
REMARK  10 active torsions:
REMARK  status: ('A' for Active; 'I' for Inactive)
REMARK    1  A    between atoms: C_1  and  O_2
REMARK    2  A    between atoms: O_2  and  C_3
REMARK    3  A    between atoms: C_5  and  C_6
REMARK    4  A    between atoms: C_8  and  C_9
REMARK    5  A    between atoms: N_20  and  C_21
REMARK    6  A    between atoms: C_21  and  C_22
REMARK    7  A    between atoms: C_25  and  O_26
REMARK    8  A    between atoms: O_26  and  C_27
REMARK    9  A    between atoms: C_28  and  O_29
REMARK   10  A    between atoms: O_29  and  C_30
REMARK                            x       y       z     vdW  Elec       q    Type
REMARK                         _______ _______ _______ _____ _____    ______ ____
ROOT
ATOM      1  C   UNL     1       1.582   9.372  19.065  0.00  0.00    +0.000 C 
ATOM      2  C   UNL     1       0.543   9.805  18.020  0.00  0.00    +0.000 C 
ATOM      3  C   UNL     1      -0.631  10.134  18.909  0.00  0.00    +0.000 C 
ATOM      4  N   UNL     1      -0.446   9.909  20.173  0.00  0.00    +0.000 NA
ATOM      5  N   UNL     1       0.830   9.532  20.313  0.00  0.00    +0.000 N 
ENDROOT
BRANCH   3   6
ATOM      6  C   UNL     1      -1.896  10.724  18.412  0.00  0.00    +0.000 A 
ATOM      7  C   UNL     1      -2.267  10.413  17.096  0.00  0.00    +0.000 A 
ATOM      8  C   UNL     1      -3.504  10.809  16.596  0.00  0.00    +0.000 A 
ATOM      9  C   UNL     1      -4.389  11.534  17.396  0.00  0.00    +0.000 A 
ATOM     10  C   UNL     1      -5.664  11.869  16.919  0.00  0.00    +0.000 A 
ATOM     11  C   UNL     1      -6.543  12.609  17.706  0.00  0.00    +0.000 A 
ATOM     12  C   UNL     1      -6.143  13.046  18.964  0.00  0.00    +0.000 A 
ATOM     13  C   UNL     1      -4.881  12.705  19.461  0.00  0.00    +0.000 A 
ATOM     14  C   UNL     1      -3.996  11.921  18.700  0.00  0.00    +0.000 A 
ATOM     15  C   UNL     1      -2.748  11.497  19.206  0.00  0.00    +0.000 A 
ENDBRANCH   3   6
BRANCH   1  18
ATOM     16  C   UNL     1       3.833   6.610  17.734  0.00  0.00    +0.000 A 
ATOM     17  C   UNL     1       3.036   7.765  17.801  0.00  0.00    +0.000 A 
ATOM     18  C   UNL     1       2.157   7.984  18.861  0.00  0.00    +0.000 A 
ATOM     19  C   UNL     1       1.972   6.948  19.779  0.00  0.00    +0.000 A 
ATOM     20  C   UNL     1       2.693   5.743  19.687  0.00  0.00    +0.000 A 
ATOM     21  C   UNL     1       3.644   5.560  18.657  0.00  0.00    +0.000 A 
BRANCH  16  23
ATOM     22  C   UNL     1       6.086   7.022  17.140  0.00  0.00    +0.000 C 
ATOM     23  O   UNL     1       4.800   6.518  16.762  0.00  0.00    +0.000 OA
ENDBRANCH  16  23
BRANCH  20  24
ATOM     24  O   UNL     1       2.368   4.898  20.722  0.00  0.00    +0.000 OA
ATOM     25  C   UNL     1       1.193   4.106  20.639  0.00  0.00    +0.000 C 
ENDBRANCH  20  24
BRANCH  21  26
ATOM     26  O   UNL     1       4.314   4.366  18.665  0.00  0.00    +0.000 OA
ATOM     27  C   UNL     1       3.821   3.244  17.950  0.00  0.00    +0.000 C 
ENDBRANCH  21  26
ENDBRANCH   1  18
BRANCH   5  28
ATOM     28  C   UNL     1       1.287   8.954  21.564  0.00  0.00    +0.000 C 
BRANCH  28  29
ATOM     29  C   UNL     1       0.373   9.285  22.723  0.00  0.00    +0.000 C 
ATOM     30  O   UNL     1       0.715   9.619  23.848  0.00  0.00    +0.000 OA
ENDBRANCH  28  29
ENDBRANCH   5  28
TORSDOF 7
ENDMDL
MODEL 5
REMARK VINA RESULT:      -7.3      2.518      4.232
REMARK  Name = 
REMARK  10 active torsions:
REMARK  status: ('A' for Active; 'I' for Inactive)
REMARK    1  A    between atoms: C_1  and  O_2
REMARK    2  A    between atoms: O_2  and  C_3
REMARK    3  A    between atoms: C_5  and  C_6
REMARK    4  A    between atoms: C_8  and  C_9
REMARK    5  A    between atoms: N_20  and  C_21
REMARK    6  A    between atoms: C_21  and  C_22
REMARK    7  A    between atoms: C_25  and  O_26
REMARK    8  A    between atoms: O_26  and  C_27
REMARK    9  A    between atoms: C_28  and  O_29
REMARK   10  A    between atoms: O_29  and  C_30
REMARK                            x       y       z     vdW  Elec       q    Type
REMARK                         _______ _______ _______ _____ _____    ______ ____
ROOT
ATOM      1  C   UNL     1       0.372  10.468  19.734  0.00  0.00    +0.000 C 
ATOM      2  C   UNL     1       0.720   8.972  19.706  0.00  0.00    +0.000 C 
ATOM      3  C   UNL     1       1.834   8.961  18.688  0.00  0.00    +0.000 C 
ATOM      4  N   UNL     1       2.095  10.109  18.143  0.00  0.00    +0.000 NA
ATOM      5  N   UNL     1       1.323  11.011  18.761  0.00  0.00    +0.000 N 
ENDROOT
BRANCH   3   6
ATOM      6  C   UNL     1       2.627   7.755  18.354  0.00  0.00    +0.000 A 
ATOM      7  C   UNL     1       2.327   6.583  19.062  0.00  0.00    +0.000 A 
ATOM      8  C   UNL     1       2.925   5.374  18.717  0.00  0.00    +0.000 A 
ATOM      9  C   UNL     1       3.842   5.316  17.666  0.00  0.00    +0.000 A 
ATOM     10  C   UNL     1       4.388   4.087  17.269  0.00  0.00    +0.000 A 
ATOM     11  C   UNL     1       5.319   4.026  16.235  0.00  0.00    +0.000 A 
ATOM     12  C   UNL     1       5.733   5.197  15.609  0.00  0.00    +0.000 A 
ATOM     13  C   UNL     1       5.185   6.428  15.981  0.00  0.00    +0.000 A 
ATOM     14  C   UNL     1       4.211   6.506  16.992  0.00  0.00    +0.000 A 
ATOM     15  C   UNL     1       3.584   7.723  17.337  0.00  0.00    +0.000 A 
ENDBRANCH   3   6
BRANCH   1  18
ATOM     16  C   UNL     1      -2.947  12.325  19.802  0.00  0.00    +0.000 A 
ATOM     17  C   UNL     1      -1.728  11.756  20.209  0.00  0.00    +0.000 A 
ATOM     18  C   UNL     1      -1.078  10.796  19.435  0.00  0.00    +0.000 A 
ATOM     19  C   UNL     1      -1.748  10.295  18.317  0.00  0.00    +0.000 A 
ATOM     20  C   UNL     1      -3.012  10.784  17.935  0.00  0.00    +0.000 A 
ATOM     21  C   UNL     1      -3.629  11.817  18.677  0.00  0.00    +0.000 A 
BRANCH  16  23
ATOM     22  C   UNL     1      -4.189  13.020  21.692  0.00  0.00    +0.000 C 
ATOM     23  O   UNL     1      -3.463  13.382  20.512  0.00  0.00    +0.000 OA
ENDBRANCH  16  23
BRANCH  20  24
ATOM     24  O   UNL     1      -3.448  10.166  16.786  0.00  0.00    +0.000 OA
ATOM     25  C   UNL     1      -2.734  10.353  15.574  0.00  0.00    +0.000 C 
ENDBRANCH  20  24
BRANCH  21  26
ATOM     26  O   UNL     1      -4.845  12.243  18.213  0.00  0.00    +0.000 OA
ATOM     27  C   UNL     1      -6.052  11.665  18.681  0.00  0.00    +0.000 C 
ENDBRANCH  21  26
ENDBRANCH   1  18
BRANCH   5  28
ATOM     28  C   UNL     1       1.181  12.348  18.211  0.00  0.00    +0.000 C 
BRANCH  28  29
ATOM     29  C   UNL     1       2.487  13.109  18.193  0.00  0.00    +0.000 C 
ATOM     30  O   UNL     1       2.621  14.325  18.176  0.00  0.00    +0.000 OA
ENDBRANCH  28  29
ENDBRANCH   5  28
TORSDOF 7
ENDMDL
MODEL 6
REMARK VINA RESULT:      -7.1      1.113      1.900
REMARK  Name = 
REMARK  10 active torsions:
REMARK  status: ('A' for Active; 'I' for Inactive)
REMARK    1  A    between atoms: C_1  and  O_2
REMARK    2  A    between atoms: O_2  and  C_3
REMARK    3  A    between atoms: C_5  and  C_6
REMARK    4  A    between atoms: C_8  and  C_9
REMARK    5  A    between atoms: N_20  and  C_21
REMARK    6  A    between atoms: C_21  and  C_22
REMARK    7  A    between atoms: C_25  and  O_26
REMARK    8  A    between atoms: O_26  and  C_27
REMARK    9  A    between atoms: C_28  and  O_29
REMARK   10  A    between atoms: O_29  and  C_30
REMARK                            x       y       z     vdW  Elec       q    Type
REMARK                         _______ _______ _______ _____ _____    ______ ____
ROOT
ATOM      1  C   UNL     1       0.288  11.087  18.951  0.00  0.00    +0.000 C 
ATOM      2  C   UNL     1       1.056  10.039  18.131  0.00  0.00    +0.000 C 
ATOM      3  C   UNL     1       1.470   9.078  19.218  0.00  0.00    +0.000 C 
ATOM      4  N   UNL     1       1.138   9.430  20.421  0.00  0.00    +0.000 NA
ATOM      5  N   UNL     1       0.403  10.543  20.306  0.00  0.00    +0.000 N 
ENDROOT
BRANCH   3   6
ATOM      6  C   UNL     1       2.158   7.792  18.957  0.00  0.00    +0.000 A 
ATOM      7  C   UNL     1       3.034   7.752  17.863  0.00  0.00    +0.000 A 
ATOM      8  C   UNL     1       3.825   6.631  17.628  0.00  0.00    +0.000 A 
ATOM      9  C   UNL     1       3.747   5.524  18.475  0.00  0.00    +0.000 A 
ATOM     10  C   UNL     1       4.596   4.425  18.285  0.00  0.00    +0.000 A 
ATOM     11  C   UNL     1       4.508   3.310  19.114  0.00  0.00    +0.000 A 
ATOM     12  C   UNL     1       3.552   3.272  20.122  0.00  0.00    +0.000 A 
ATOM     13  C   UNL     1       2.709   4.368  20.336  0.00  0.00    +0.000 A 
ATOM     14  C   UNL     1       2.812   5.521  19.539  0.00  0.00    +0.000 A 
ATOM     15  C   UNL     1       2.029   6.671  19.780  0.00  0.00    +0.000 A 
ENDBRANCH   3   6
BRANCH   1  18
ATOM     16  C   UNL     1       0.255  14.890  18.909  0.00  0.00    +0.000 A 
ATOM     17  C   UNL     1      -0.132  13.550  18.733  0.00  0.00    +0.000 A 
ATOM     18  C   UNL     1       0.793  12.509  18.808  0.00  0.00    +0.000 A 
ATOM     19  C   UNL     1       2.145  12.843  18.906  0.00  0.00    +0.000 A 
ATOM     20  C   UNL     1       2.569  14.183  18.995  0.00  0.00    +0.000 A 
ATOM     21  C   UNL     1       1.620  15.230  19.003  0.00  0.00    +0.000 A 
BRANCH  16  23
ATOM     22  C   UNL     1      -1.390  15.933  20.252  0.00  0.00    +0.000 C 
ATOM     23  O   UNL     1      -0.713  15.861  18.992  0.00  0.00    +0.000 OA
ENDBRANCH  16  23
BRANCH  20  24
ATOM     24  O   UNL     1       3.937  14.255  19.122  0.00  0.00    +0.000 OA
ATOM     25  C   UNL     1       4.724  14.668  18.016  0.00  0.00    +0.000 C 
ENDBRANCH  20  24
BRANCH  21  26
ATOM     26  O   UNL     1       2.128  16.497  19.119  0.00  0.00    +0.000 OA
ATOM     27  C   UNL     1       2.280  17.112  20.387  0.00  0.00    +0.000 C 
ENDBRANCH  21  26
ENDBRANCH   1  18
BRANCH   5  28
ATOM     28  C   UNL     1       0.097  11.339  21.482  0.00  0.00    +0.000 C 
BRANCH  28  29
ATOM     29  C   UNL     1      -0.530  10.520  22.588  0.00  0.00    +0.000 C 
ATOM     30  O   UNL     1       0.041  10.064  23.569  0.00  0.00    +0.000 OA
ENDBRANCH  28  29
ENDBRANCH   5  28
TORSDOF 7
ENDMDL
MODEL 7
REMARK VINA RESULT:      -7.1      0.655      1.442
REMARK  Name = 
REMARK  10 active torsions:
REMARK  status: ('A' for Active; 'I' for Inactive)
REMARK    1  A    between atoms: C_1  and  O_2
REMARK    2  A    between atoms: O_2  and  C_3
REMARK    3  A    between atoms: C_5  and  C_6
REMARK    4  A    between atoms: C_8  and  C_9
REMARK    5  A    between atoms: N_20  and  C_21
REMARK    6  A    between atoms: C_21  and  C_22
REMARK    7  A    between atoms: C_25  and  O_26
REMARK    8  A    between atoms: O_26  and  C_27
REMARK    9  A    between atoms: C_28  and  O_29
REMARK   10  A    between atoms: O_29  and  C_30
REMARK                            x       y       z     vdW  Elec       q    Type
REMARK                         _______ _______ _______ _____ _____    ______ ____
ROOT
ATOM      1  C   UNL     1       0.232  10.672  18.932  0.00  0.00    +0.000 C 
ATOM      2  C   UNL     1       0.970   9.833  17.878  0.00  0.00    +0.000 C 
ATOM      3  C   UNL     1       1.572   8.756  18.745  0.00  0.00    +0.000 C 
ATOM      4  N   UNL     1       1.357   8.888  20.017  0.00  0.00    +0.000 NA
ATOM      5  N   UNL     1       0.539   9.938  20.162  0.00  0.00    +0.000 N 
ENDROOT
BRANCH   3   6
ATOM      6  C   UNL     1       2.312   7.590  18.208  0.00  0.00    +0.000 A 
ATOM      7  C   UNL     1       3.545   7.849  17.594  0.00  0.00    +0.000 A 
ATOM      8  C   UNL     1       4.369   6.804  17.187  0.00  0.00    +0.000 A 
ATOM      9  C   UNL     1       3.971   5.479  17.376  0.00  0.00    +0.000 A 
ATOM     10  C   UNL     1       4.831   4.425  17.036  0.00  0.00    +0.000 A 
ATOM     11  C   UNL     1       4.431   3.102  17.204  0.00  0.00    +0.000 A 
ATOM     12  C   UNL     1       3.157   2.821  17.685  0.00  0.00    +0.000 A 
ATOM     13  C   UNL     1       2.294   3.861  18.045  0.00  0.00    +0.000 A 
ATOM     14  C   UNL     1       2.696   5.203  17.926  0.00  0.00    +0.000 A 
ATOM     15  C   UNL     1       1.876   6.270  18.353  0.00  0.00    +0.000 A 
ENDBRANCH   3   6
BRANCH   1  18
ATOM     16  C   UNL     1      -0.077  14.422  19.488  0.00  0.00    +0.000 A 
ATOM     17  C   UNL     1      -0.382  13.096  19.137  0.00  0.00    +0.000 A 
ATOM     18  C   UNL     1       0.617  12.138  18.971  0.00  0.00    +0.000 A 
ATOM     19  C   UNL     1       1.945  12.567  19.008  0.00  0.00    +0.000 A 
ATOM     20  C   UNL     1       2.279  13.910  19.270  0.00  0.00    +0.000 A 
ATOM     21  C   UNL     1       1.263  14.860  19.519  0.00  0.00    +0.000 A 
BRANCH  16  23
ATOM     22  C   UNL     1      -1.467  15.307  21.185  0.00  0.00    +0.000 C 
ATOM     23  O   UNL     1      -1.100  15.284  19.801  0.00  0.00    +0.000 OA
ENDBRANCH  16  23
BRANCH  20  24
ATOM     24  O   UNL     1       3.645  14.078  19.293  0.00  0.00    +0.000 OA
ATOM     25  C   UNL     1       4.312  14.559  18.136  0.00  0.00    +0.000 C 
ENDBRANCH  20  24
BRANCH  21  26
ATOM     26  O   UNL     1       1.687  16.133  19.789  0.00  0.00    +0.000 OA
ATOM     27  C   UNL     1       1.674  17.138  18.789  0.00  0.00    +0.000 C 
ENDBRANCH  21  26
ENDBRANCH   1  18
BRANCH   5  28
ATOM     28  C   UNL     1       0.317  10.513  21.476  0.00  0.00    +0.000 C 
BRANCH  28  29
ATOM     29  C   UNL     1       0.604   9.534  22.593  0.00  0.00    +0.000 C 
ATOM     30  O   UNL     1       0.318   9.672  23.774  0.00  0.00    +0.000 OA
ENDBRANCH  28  29
ENDBRANCH   5  28
TORSDOF 7
ENDMDL
MODEL 8
REMARK VINA RESULT:      -7.1      2.924      5.141
REMARK  Name = 
REMARK  10 active torsions:
REMARK  status: ('A' for Active; 'I' for Inactive)
REMARK    1  A    between atoms: C_1  and  O_2
REMARK    2  A    between atoms: O_2  and  C_3
REMARK    3  A    between atoms: C_5  and  C_6
REMARK    4  A    between atoms: C_8  and  C_9
REMARK    5  A    between atoms: N_20  and  C_21
REMARK    6  A    between atoms: C_21  and  C_22
REMARK    7  A    between atoms: C_25  and  O_26
REMARK    8  A    between atoms: O_26  and  C_27
REMARK    9  A    between atoms: C_28  and  O_29
REMARK   10  A    between atoms: O_29  and  C_30
REMARK                            x       y       z     vdW  Elec       q    Type
REMARK                         _______ _______ _______ _____ _____    ______ ____
ROOT
ATOM      1  C   UNL     1      -0.409  11.295  19.843  0.00  0.00    +0.000 C 
ATOM      2  C   UNL     1      -0.143   9.782  19.838  0.00  0.00    +0.000 C 
ATOM      3  C   UNL     1       1.108   9.718  18.997  0.00  0.00    +0.000 C 
ATOM      4  N   UNL     1       1.510  10.854  18.518  0.00  0.00    +0.000 NA
ATOM      5  N   UNL     1       0.705  11.793  19.032  0.00  0.00    +0.000 N 
ENDROOT
BRANCH   3   6
ATOM      6  C   UNL     1       1.874   8.472  18.761  0.00  0.00    +0.000 A 
ATOM      7  C   UNL     1       2.753   8.465  17.670  0.00  0.00    +0.000 A 
ATOM      8  C   UNL     1       3.613   7.391  17.457  0.00  0.00    +0.000 A 
ATOM      9  C   UNL     1       3.601   6.297  18.325  0.00  0.00    +0.000 A 
ATOM     10  C   UNL     1       4.516   5.249  18.156  0.00  0.00    +0.000 A 
ATOM     11  C   UNL     1       4.494   4.146  19.007  0.00  0.00    +0.000 A 
ATOM     12  C   UNL     1       3.539   4.068  20.014  0.00  0.00    +0.000 A 
ATOM     13  C   UNL     1       2.630   5.114  20.206  0.00  0.00    +0.000 A 
ATOM     14  C   UNL     1       2.664   6.256  19.387  0.00  0.00    +0.000 A 
ATOM     15  C   UNL     1       1.811   7.360  19.605  0.00  0.00    +0.000 A 
ENDBRANCH   3   6
BRANCH   1  18
ATOM     16  C   UNL     1      -3.571  11.305  17.728  0.00  0.00    +0.000 A 
ATOM     17  C   UNL     1      -2.221  11.219  18.109  0.00  0.00    +0.000 A 
ATOM     18  C   UNL     1      -1.777  11.708  19.338  0.00  0.00    +0.000 A 
ATOM     19  C   UNL     1      -2.683  12.430  20.118  0.00  0.00    +0.000 A 
ATOM     20  C   UNL     1      -4.021  12.608  19.719  0.00  0.00    +0.000 A 
ATOM     21  C   UNL     1      -4.486  12.039  18.512  0.00  0.00    +0.000 A 
BRANCH  16  23
ATOM     22  C   UNL     1      -3.185  10.914  15.428  0.00  0.00    +0.000 C 
ATOM     23  O   UNL     1      -3.987  10.664  16.587  0.00  0.00    +0.000 OA
ENDBRANCH  16  23
BRANCH  20  24
ATOM     24  O   UNL     1      -4.723  13.316  20.668  0.00  0.00    +0.000 OA
ATOM     25  C   UNL     1      -4.939  12.748  21.950  0.00  0.00    +0.000 C 
ENDBRANCH  20  24
BRANCH  21  26
ATOM     26  O   UNL     1      -5.808  12.245  18.223  0.00  0.00    +0.000 OA
ATOM     27  C   UNL     1      -6.791  11.280  18.558  0.00  0.00    +0.000 C 
ENDBRANCH  21  26
ENDBRANCH   1  18
BRANCH   5  28
ATOM     28  C   UNL     1       0.720  13.141  18.492  0.00  0.00    +0.000 C 
BRANCH  28  29
ATOM     29  C   UNL     1       2.045  13.837  18.707  0.00  0.00    +0.000 C 
ATOM     30  O   UNL     1       2.772  14.305  17.842  0.00  0.00    +0.000 OA
ENDBRANCH  28  29
ENDBRANCH   5  28
TORSDOF 7
ENDMDL
MODEL 9
REMARK VINA RESULT:      -7.1      1.231      1.337
REMARK  Name = 
REMARK  10 active torsions:
REMARK  status: ('A' for Active; 'I' for Inactive)
REMARK    1  A    between atoms: C_1  and  O_2
REMARK    2  A    between atoms: O_2  and  C_3
REMARK    3  A    between atoms: C_5  and  C_6
REMARK    4  A    between atoms: C_8  and  C_9
REMARK    5  A    between atoms: N_20  and  C_21
REMARK    6  A    between atoms: C_21  and  C_22
REMARK    7  A    between atoms: C_25  and  O_26
REMARK    8  A    between atoms: O_26  and  C_27
REMARK    9  A    between atoms: C_28  and  O_29
REMARK   10  A    between atoms: O_29  and  C_30
REMARK                            x       y       z     vdW  Elec       q    Type
REMARK                         _______ _______ _______ _____ _____    ______ ____
ROOT
ATOM      1  C   UNL     1       0.755  10.626  18.961  0.00  0.00    +0.000 C 
ATOM      2  C   UNL     1       1.712   9.830  18.062  0.00  0.00    +0.000 C 
ATOM      3  C   UNL     1       1.919   8.591  18.898  0.00  0.00    +0.000 C 
ATOM      4  N   UNL     1       1.330   8.600  20.053  0.00  0.00    +0.000 NA
ATOM      5  N   UNL     1       0.599   9.721  20.102  0.00  0.00    +0.000 N 
ENDROOT
BRANCH   3   6
ATOM      6  C   UNL     1       2.689   7.411  18.438  0.00  0.00    +0.000 A 
ATOM      7  C   UNL     1       2.337   6.171  18.988  0.00  0.00    +0.000 A 
ATOM      8  C   UNL     1       2.911   4.996  18.512  0.00  0.00    +0.000 A 
ATOM      9  C   UNL     1       3.857   5.039  17.487  0.00  0.00    +0.000 A 
ATOM     10  C   UNL     1       4.381   3.852  16.955  0.00  0.00    +0.000 A 
ATOM     11  C   UNL     1       5.340   3.890  15.946  0.00  0.00    +0.000 A 
ATOM     12  C   UNL     1       5.805   5.114  15.481  0.00  0.00    +0.000 A 
ATOM     13  C   UNL     1       5.279   6.307  15.988  0.00  0.00    +0.000 A 
ATOM     14  C   UNL     1       4.278   6.290  16.975  0.00  0.00    +0.000 A 
ATOM     15  C   UNL     1       3.675   7.475  17.450  0.00  0.00    +0.000 A 
ENDBRANCH   3   6
BRANCH   1  18
ATOM     16  C   UNL     1       1.350  13.746  21.055  0.00  0.00    +0.000 A 
ATOM     17  C   UNL     1       0.736  12.614  20.492  0.00  0.00    +0.000 A 
ATOM     18  C   UNL     1       1.231  12.017  19.333  0.00  0.00    +0.000 A 
ATOM     19  C   UNL     1       2.264  12.667  18.655  0.00  0.00    +0.000 A 
ATOM     20  C   UNL     1       2.841  13.852  19.150  0.00  0.00    +0.000 A 
ATOM     21  C   UNL     1       2.389  14.407  20.368  0.00  0.00    +0.000 A 
BRANCH  16  23
ATOM     22  C   UNL     1      -0.464  14.528  22.357  0.00  0.00    +0.000 C 
ATOM     23  O   UNL     1       0.927  14.197  22.282  0.00  0.00    +0.000 OA
ENDBRANCH  16  23
BRANCH  20  24
ATOM     24  O   UNL     1       3.861  14.278  18.331  0.00  0.00    +0.000 OA
ATOM     25  C   UNL     1       3.672  15.422  17.512  0.00  0.00    +0.000 C 
ENDBRANCH  20  24
BRANCH  21  26
ATOM     26  O   UNL     1       3.028  15.546  20.781  0.00  0.00    +0.000 OA
ATOM     27  C   UNL     1       4.135  15.486  21.666  0.00  0.00    +0.000 C 
ENDBRANCH  21  26
ENDBRANCH   1  18
BRANCH   5  28
ATOM     28  C   UNL     1       0.026  10.162  21.361  0.00  0.00    +0.000 C 
BRANCH  28  29
ATOM     29  C   UNL     1       0.448   9.294  22.526  0.00  0.00    +0.000 C 
ATOM     30  O   UNL     1       0.602   9.655  23.684  0.00  0.00    +0.000 OA
ENDBRANCH  28  29
ENDBRANCH   5  28
TORSDOF 7
ENDMDL
