MODEL 1
REMARK VINA RESULT:      -8.6      0.000      0.000
REMARK  Name = 
REMARK  7 active torsions:
REMARK  status: ('A' for Active; 'I' for Inactive)
REMARK    1  A    between atoms: C_2  and  C_3
REMARK    2  A    between atoms: C_3  and  C_4
REMARK    3  A    between atoms: C_8  and  C_9
REMARK    4  A    between atoms: C_9  and  N_10
REMARK    5  A    between atoms: N_10  and  C_11
REMARK    6  A    between atoms: C_11  and  C_12
REMARK    7  A    between atoms: C_19  and  O_20
REMARK                            x       y       z     vdW  Elec       q    Type
REMARK                         _______ _______ _______ _____ _____    ______ ____
ROOT
ATOM      1  C   UNL     1       4.912   5.146  17.191  0.00  0.00    +0.000 C 
ATOM      2  C   UNL     1       5.742   5.229  15.915  0.00  0.00    +0.000 C 
ATOM      3  C   UNL     1       7.158   5.339  16.425  0.00  0.00    +0.000 C 
ATOM      4  O   UNL     1       7.498   6.716  16.647  0.00  0.00    +0.000 OA
ATOM      5  C   UNL     1       7.562   6.952  18.067  0.00  0.00    +0.000 C 
ATOM      6  C   UNL     1       7.870   5.593  18.688  0.00  0.00    +0.000 C 
ATOM      7  C   UNL     1       7.129   4.637  17.767  0.00  0.00    +0.000 C 
ATOM      8  O   UNL     1       5.748   4.503  18.177  0.00  0.00    +0.000 OA
ENDROOT
BRANCH   6   9
ATOM      9  O   UNL     1       7.427   5.499  20.036  0.00  0.00    +0.000 OA
ATOM     10  H   UNL     1       6.504   5.176  19.987  0.00  0.00    +0.000 HD
ENDBRANCH   6   9
BRANCH   1  11
ATOM     11  C   UNL     1       3.612   4.354  17.056  0.00  0.00    +0.000 C 
BRANCH  11  13
ATOM     12  O   UNL     1       3.737   2.065  17.765  0.00  0.00    +0.000 OA
ATOM     13  C   UNL     1       3.511   3.232  18.074  0.00  0.00    +0.000 C 
ATOM     14  N   UNL     1       3.191   3.587  19.369  0.00  0.00    +0.000 N 
ATOM     15  C   UNL     1       3.276   2.587  20.438  0.00  0.00    +0.000 C 
ATOM     16  C   UNL     1       1.908   2.370  21.089  0.00  0.00    +0.000 C 
ATOM     17  O   UNL     1       1.353   3.616  21.544  0.00  0.00    +0.000 OA
ATOM     18  C   UNL     1       1.198   4.534  20.450  0.00  0.00    +0.000 C 
ATOM     19  C   UNL     1       2.550   4.838  19.787  0.00  0.00    +0.000 C 
ENDBRANCH  11  13
ENDBRANCH   1  11
BRANCH   5  20
ATOM     20  C   UNL     1       8.621   8.019  18.399  0.00  0.00    +0.000 C 
BRANCH  20  21
ATOM     21  N   UNL     1       8.176   9.349  17.973  0.00  0.00    +0.000 NA
ATOM     22  H   UNL     1       7.174   9.334  17.779  0.00  0.00    +0.000 HD
BRANCH  21  23
ATOM     23  C   UNL     1       8.463  10.373  18.970  0.00  0.00    +0.000 C 
BRANCH  23  24
ATOM     24  C   UNL     1       9.564  11.289  18.485  0.00  0.00    +0.000 A 
ATOM     25  C   UNL     1      10.894  11.013  18.852  0.00  0.00    +0.000 A 
ATOM     26  C   UNL     1      11.944  11.825  18.419  0.00  0.00    +0.000 A 
ATOM     27  C   UNL     1      11.685  12.922  17.602  0.00  0.00    +0.000 A 
ATOM     28  C   UNL     1      10.376  13.198  17.209  0.00  0.00    +0.000 A 
ATOM     29  C   UNL     1       9.322  12.385  17.640  0.00  0.00    +0.000 A 
ATOM     30 CL   UNL     1       7.734  12.772  17.079  0.00  0.00    +0.000 Cl
ENDBRANCH  23  24
ENDBRANCH  21  23
ENDBRANCH  20  21
ENDBRANCH   5  20
TORSDOF 7
ENDMDL
MODEL 2
REMARK VINA RESULT:      -8.5      1.391      1.825
REMARK  Name = 
REMARK  7 active torsions:
REMARK  status: ('A' for Active; 'I' for Inactive)
REMARK    1  A    between atoms: C_2  and  C_3
REMARK    2  A    between atoms: C_3  and  C_4
REMARK    3  A    between atoms: C_8  and  C_9
REMARK    4  A    between atoms: C_9  and  N_10
REMARK    5  A    between atoms: N_10  and  C_11
REMARK    6  A    between atoms: C_11  and  C_12
REMARK    7  A    between atoms: C_19  and  O_20
REMARK                            x       y       z     vdW  Elec       q    Type
REMARK                         _______ _______ _______ _____ _____    ______ ____
ROOT
ATOM      1  C   UNL     1       4.787   5.320  17.349  0.00  0.00    +0.000 C 
ATOM      2  C   UNL     1       5.541   5.466  16.033  0.00  0.00    +0.000 C 
ATOM      3  C   UNL     1       6.985   5.548  16.462  0.00  0.00    +0.000 C 
ATOM      4  O   UNL     1       7.344   6.910  16.734  0.00  0.00    +0.000 OA
ATOM      5  C   UNL     1       7.493   7.073  18.157  0.00  0.00    +0.000 C 
ATOM      6  C   UNL     1       7.831   5.684  18.689  0.00  0.00    +0.000 C 
ATOM      7  C   UNL     1       7.032   4.778  17.767  0.00  0.00    +0.000 C 
ATOM      8  O   UNL     1       5.677   4.626  18.251  0.00  0.00    +0.000 OA
ENDROOT
BRANCH   6   9
ATOM      9  O   UNL     1       7.467   5.522  20.055  0.00  0.00    +0.000 OA
ATOM     10  H   UNL     1       6.592   5.083  20.044  0.00  0.00    +0.000 HD
ENDBRANCH   6   9
BRANCH   1  11
ATOM     11  C   UNL     1       3.478   4.537  17.252  0.00  0.00    +0.000 C 
BRANCH  11  13
ATOM     12  O   UNL     1       2.037   5.816  18.681  0.00  0.00    +0.000 OA
ATOM     13  C   UNL     1       2.590   4.742  18.467  0.00  0.00    +0.000 C 
ATOM     14  N   UNL     1       2.405   3.655  19.297  0.00  0.00    +0.000 N 
ATOM     15  C   UNL     1       1.405   3.722  20.369  0.00  0.00    +0.000 C 
ATOM     16  C   UNL     1       2.064   3.550  21.739  0.00  0.00    +0.000 C 
ATOM     17  O   UNL     1       2.840   2.340  21.786  0.00  0.00    +0.000 OA
ATOM     18  C   UNL     1       3.868   2.355  20.783  0.00  0.00    +0.000 C 
ATOM     19  C   UNL     1       3.267   2.471  19.374  0.00  0.00    +0.000 C 
ENDBRANCH  11  13
ENDBRANCH   1  11
BRANCH   5  20
ATOM     20  C   UNL     1       8.575   8.120  18.480  0.00  0.00    +0.000 C 
BRANCH  20  21
ATOM     21  N   UNL     1       8.134   9.465  18.096  0.00  0.00    +0.000 NA
ATOM     22  H   UNL     1       7.539   9.856  18.826  0.00  0.00    +0.000 HD
BRANCH  21  23
ATOM     23  C   UNL     1       9.255  10.364  17.849  0.00  0.00    +0.000 C 
BRANCH  23  24
ATOM     24  C   UNL     1       9.319  11.435  18.914  0.00  0.00    +0.000 A 
ATOM     25  C   UNL     1      10.038  11.181  20.097  0.00  0.00    +0.000 A 
ATOM     26  C   UNL     1      10.133  12.145  21.103  0.00  0.00    +0.000 A 
ATOM     27  C   UNL     1       9.520  13.384  20.940  0.00  0.00    +0.000 A 
ATOM     28  C   UNL     1       8.823  13.663  19.765  0.00  0.00    +0.000 A 
ATOM     29  C   UNL     1       8.728  12.699  18.755  0.00  0.00    +0.000 A 
ATOM     30 CL   UNL     1       7.878  13.135  17.314  0.00  0.00    +0.000 Cl
ENDBRANCH  23  24
ENDBRANCH  21  23
ENDBRANCH  20  21
ENDBRANCH   5  20
TORSDOF 7
ENDMDL
MODEL 3
REMARK VINA RESULT:      -8.2      1.010      1.258
REMARK  Name = 
REMARK  7 active torsions:
REMARK  status: ('A' for Active; 'I' for Inactive)
REMARK    1  A    between atoms: C_2  and  C_3
REMARK    2  A    between atoms: C_3  and  C_4
REMARK    3  A    between atoms: C_8  and  C_9
REMARK    4  A    between atoms: C_9  and  N_10
REMARK    5  A    between atoms: N_10  and  C_11
REMARK    6  A    between atoms: C_11  and  C_12
REMARK    7  A    between atoms: C_19  and  O_20
REMARK                            x       y       z     vdW  Elec       q    Type
REMARK                         _______ _______ _______ _____ _____    ______ ____
ROOT
ATOM      1  C   UNL     1       5.387   4.392  17.692  0.00  0.00    +0.000 C 
ATOM      2  C   UNL     1       5.745   4.626  16.229  0.00  0.00    +0.000 C 
ATOM      3  C   UNL     1       7.003   5.456  16.303  0.00  0.00    +0.000 C 
ATOM      4  O   UNL     1       6.672   6.851  16.369  0.00  0.00    +0.000 OA
ATOM      5  C   UNL     1       6.946   7.328  17.700  0.00  0.00    +0.000 C 
ATOM      6  C   UNL     1       8.012   6.389  18.254  0.00  0.00    +0.000 C 
ATOM      7  C   UNL     1       7.637   5.059  17.622  0.00  0.00    +0.000 C 
ATOM      8  O   UNL     1       6.636   4.381  18.417  0.00  0.00    +0.000 OA
ENDROOT
BRANCH   6   9
ATOM      9  O   UNL     1       8.003   6.335  19.675  0.00  0.00    +0.000 OA
ATOM     10  H   UNL     1       7.452   5.558  19.905  0.00  0.00    +0.000 HD
ENDBRANCH   6   9
BRANCH   1  11
ATOM     11  C   UNL     1       4.648   3.084  17.967  0.00  0.00    +0.000 C 
BRANCH  11  13
ATOM     12  O   UNL     1       2.527   3.930  17.231  0.00  0.00    +0.000 OA
ATOM     13  C   UNL     1       3.145   3.280  18.069  0.00  0.00    +0.000 C 
ATOM     14  N   UNL     1       2.503   2.663  19.124  0.00  0.00    +0.000 N 
ATOM     15  C   UNL     1       1.037   2.641  19.168  0.00  0.00    +0.000 C 
ATOM     16  C   UNL     1       0.520   3.362  20.415  0.00  0.00    +0.000 C 
ATOM     17  O   UNL     1       1.114   2.817  21.606  0.00  0.00    +0.000 OA
ATOM     18  C   UNL     1       2.545   2.944  21.565  0.00  0.00    +0.000 C 
ATOM     19  C   UNL     1       3.133   2.192  20.361  0.00  0.00    +0.000 C 
ENDBRANCH  11  13
ENDBRANCH   1  11
BRANCH   5  20
ATOM     20  C   UNL     1       7.397   8.801  17.673  0.00  0.00    +0.000 C 
BRANCH  20  21
ATOM     21  N   UNL     1       8.700   8.960  18.326  0.00  0.00    +0.000 NA
ATOM     22  H   UNL     1       9.436   9.016  17.622  0.00  0.00    +0.000 HD
BRANCH  21  23
ATOM     23  C   UNL     1       8.751  10.144  19.176  0.00  0.00    +0.000 C 
BRANCH  23  24
ATOM     24  C   UNL     1       9.748  11.143  18.634  0.00  0.00    +0.000 A 
ATOM     25  C   UNL     1      11.103  11.021  18.994  0.00  0.00    +0.000 A 
ATOM     26  C   UNL     1      12.060  11.914  18.509  0.00  0.00    +0.000 A 
ATOM     27  C   UNL     1      11.683  12.938  17.646  0.00  0.00    +0.000 A 
ATOM     28  C   UNL     1      10.349  13.061  17.258  0.00  0.00    +0.000 A 
ATOM     29  C   UNL     1       9.387  12.167  17.742  0.00  0.00    +0.000 A 
ATOM     30 CL   UNL     1       7.763  12.363  17.186  0.00  0.00    +0.000 Cl
ENDBRANCH  23  24
ENDBRANCH  21  23
ENDBRANCH  20  21
ENDBRANCH   5  20
TORSDOF 7
ENDMDL
MODEL 4
REMARK VINA RESULT:      -8.2      1.347      1.797
REMARK  Name = 
REMARK  7 active torsions:
REMARK  status: ('A' for Active; 'I' for Inactive)
REMARK    1  A    between atoms: C_2  and  C_3
REMARK    2  A    between atoms: C_3  and  C_4
REMARK    3  A    between atoms: C_8  and  C_9
REMARK    4  A    between atoms: C_9  and  N_10
REMARK    5  A    between atoms: N_10  and  C_11
REMARK    6  A    between atoms: C_11  and  C_12
REMARK    7  A    between atoms: C_19  and  O_20
REMARK                            x       y       z     vdW  Elec       q    Type
REMARK                         _______ _______ _______ _____ _____    ______ ____
ROOT
ATOM      1  C   UNL     1       4.933   5.372  17.307  0.00  0.00    +0.000 C 
ATOM      2  C   UNL     1       5.711   5.604  16.017  0.00  0.00    +0.000 C 
ATOM      3  C   UNL     1       7.141   5.721  16.484  0.00  0.00    +0.000 C 
ATOM      4  O   UNL     1       7.441   7.082  16.823  0.00  0.00    +0.000 OA
ATOM      5  C   UNL     1       7.551   7.188  18.256  0.00  0.00    +0.000 C 
ATOM      6  C   UNL     1       7.930   5.790  18.735  0.00  0.00    +0.000 C 
ATOM      7  C   UNL     1       7.188   4.896  17.755  0.00  0.00    +0.000 C 
ATOM      8  O   UNL     1       5.829   4.673  18.199  0.00  0.00    +0.000 OA
ENDROOT
BRANCH   6   9
ATOM      9  O   UNL     1       7.542   5.555  20.083  0.00  0.00    +0.000 OA
ATOM     10  H   UNL     1       6.916   4.802  20.049  0.00  0.00    +0.000 HD
ENDBRANCH   6   9
BRANCH   1  11
ATOM     11  C   UNL     1       3.658   4.547  17.144  0.00  0.00    +0.000 C 
BRANCH  11  13
ATOM     12  O   UNL     1       3.871   2.241  17.772  0.00  0.00    +0.000 OA
ATOM     13  C   UNL     1       3.592   3.385  18.120  0.00  0.00    +0.000 C 
ATOM     14  N   UNL     1       3.242   3.680  19.422  0.00  0.00    +0.000 N 
ATOM     15  C   UNL     1       3.356   2.646  20.456  0.00  0.00    +0.000 C 
ATOM     16  C   UNL     1       1.990   2.349  21.080  0.00  0.00    +0.000 C 
ATOM     17  O   UNL     1       1.378   3.553  21.572  0.00  0.00    +0.000 OA
ATOM     18  C   UNL     1       1.198   4.503  20.509  0.00  0.00    +0.000 C 
ATOM     19  C   UNL     1       2.544   4.887  19.875  0.00  0.00    +0.000 C 
ENDBRANCH  11  13
ENDBRANCH   1  11
BRANCH   5  20
ATOM     20  C   UNL     1       8.585   8.259  18.650  0.00  0.00    +0.000 C 
BRANCH  20  21
ATOM     21  N   UNL     1       8.289   9.538  17.996  0.00  0.00    +0.000 NA
ATOM     22  H   UNL     1       7.468   9.965  18.426  0.00  0.00    +0.000 HD
BRANCH  21  23
ATOM     23  C   UNL     1       9.411  10.466  18.064  0.00  0.00    +0.000 C 
BRANCH  23  24
ATOM     24  C   UNL     1       8.921  11.872  18.327  0.00  0.00    +0.000 A 
ATOM     25  C   UNL     1       8.057  12.479  17.396  0.00  0.00    +0.000 A 
ATOM     26  C   UNL     1       7.571  13.772  17.602  0.00  0.00    +0.000 A 
ATOM     27  C   UNL     1       7.930  14.476  18.747  0.00  0.00    +0.000 A 
ATOM     28  C   UNL     1       8.765  13.882  19.693  0.00  0.00    +0.000 A 
ATOM     29  C   UNL     1       9.253  12.586  19.489  0.00  0.00    +0.000 A 
ATOM     30 CL   UNL     1      10.252  11.906  20.725  0.00  0.00    +0.000 Cl
ENDBRANCH  23  24
ENDBRANCH  21  23
ENDBRANCH  20  21
ENDBRANCH   5  20
TORSDOF 7
ENDMDL
MODEL 5
REMARK VINA RESULT:      -8.2      1.419      1.824
REMARK  Name = 
REMARK  7 active torsions:
REMARK  status: ('A' for Active; 'I' for Inactive)
REMARK    1  A    between atoms: C_2  and  C_3
REMARK    2  A    between atoms: C_3  and  C_4
REMARK    3  A    between atoms: C_8  and  C_9
REMARK    4  A    between atoms: C_9  and  N_10
REMARK    5  A    between atoms: N_10  and  C_11
REMARK    6  A    between atoms: C_11  and  C_12
REMARK    7  A    between atoms: C_19  and  O_20
REMARK                            x       y       z     vdW  Elec       q    Type
REMARK                         _______ _______ _______ _____ _____    ______ ____
ROOT
ATOM      1  C   UNL     1       4.762   5.960  17.535  0.00  0.00    +0.000 C 
ATOM      2  C   UNL     1       5.470   6.130  16.196  0.00  0.00    +0.000 C 
ATOM      3  C   UNL     1       6.931   6.015  16.554  0.00  0.00    +0.000 C 
ATOM      4  O   UNL     1       7.456   7.302  16.911  0.00  0.00    +0.000 OA
ATOM      5  C   UNL     1       7.684   7.329  18.333  0.00  0.00    +0.000 C 
ATOM      6  C   UNL     1       7.882   5.872  18.738  0.00  0.00    +0.000 C 
ATOM      7  C   UNL     1       6.946   5.139  17.791  0.00  0.00    +0.000 C 
ATOM      8  O   UNL     1       5.605   5.099  18.332  0.00  0.00    +0.000 OA
ENDROOT
BRANCH   6   9
ATOM      9  O   UNL     1       7.563   5.639  20.104  0.00  0.00    +0.000 OA
ATOM     10  H   UNL     1       7.302   6.511  20.465  0.00  0.00    +0.000 HD
ENDBRANCH   6   9
BRANCH   1  11
ATOM     11  C   UNL     1       3.369   5.338  17.446  0.00  0.00    +0.000 C 
BRANCH  11  13
ATOM     12  O   UNL     1       2.278   6.485  19.249  0.00  0.00    +0.000 OA
ATOM     13  C   UNL     1       2.619   5.409  18.764  0.00  0.00    +0.000 C 
ATOM     14  N   UNL     1       2.306   4.210  19.373  0.00  0.00    +0.000 N 
ATOM     15  C   UNL     1       1.412   4.198  20.536  0.00  0.00    +0.000 C 
ATOM     16  C   UNL     1       2.127   3.632  21.765  0.00  0.00    +0.000 C 
ATOM     17  O   UNL     1       2.682   2.336  21.484  0.00  0.00    +0.000 OA
ATOM     18  C   UNL     1       3.623   2.409  20.401  0.00  0.00    +0.000 C 
ATOM     19  C   UNL     1       2.952   2.919  19.117  0.00  0.00    +0.000 C 
ENDBRANCH  11  13
ENDBRANCH   1  11
BRANCH   5  20
ATOM     20  C   UNL     1       8.892   8.219  18.679  0.00  0.00    +0.000 C 
BRANCH  20  21
ATOM     21  N   UNL     1       8.564   9.637  18.504  0.00  0.00    +0.000 NA
ATOM     22  H   UNL     1       7.553   9.765  18.532  0.00  0.00    +0.000 HD
BRANCH  21  23
ATOM     23  C   UNL     1       9.189  10.477  19.520  0.00  0.00    +0.000 C 
BRANCH  23  24
ATOM     24  C   UNL     1       9.759  11.729  18.894  0.00  0.00    +0.000 A 
ATOM     25  C   UNL     1      10.523  11.618  17.717  0.00  0.00    +0.000 A 
ATOM     26  C   UNL     1      11.061  12.748  17.098  0.00  0.00    +0.000 A 
ATOM     27  C   UNL     1      10.835  14.011  17.637  0.00  0.00    +0.000 A 
ATOM     28  C   UNL     1      10.061  14.144  18.789  0.00  0.00    +0.000 A 
ATOM     29  C   UNL     1       9.520  13.013  19.411  0.00  0.00    +0.000 A 
ATOM     30 CL   UNL     1       8.541  13.264  20.813  0.00  0.00    +0.000 Cl
ENDBRANCH  23  24
ENDBRANCH  21  23
ENDBRANCH  20  21
ENDBRANCH   5  20
TORSDOF 7
ENDMDL
MODEL 6
REMARK VINA RESULT:      -7.9      1.442      1.522
REMARK  Name = 
REMARK  7 active torsions:
REMARK  status: ('A' for Active; 'I' for Inactive)
REMARK    1  A    between atoms: C_2  and  C_3
REMARK    2  A    between atoms: C_3  and  C_4
REMARK    3  A    between atoms: C_8  and  C_9
REMARK    4  A    between atoms: C_9  and  N_10
REMARK    5  A    between atoms: N_10  and  C_11
REMARK    6  A    between atoms: C_11  and  C_12
REMARK    7  A    between atoms: C_19  and  O_20
REMARK                            x       y       z     vdW  Elec       q    Type
REMARK                         _______ _______ _______ _____ _____    ______ ____
ROOT
ATOM      1  C   UNL     1       4.590   6.334  17.622  0.00  0.00    +0.000 C 
ATOM      2  C   UNL     1       5.237   6.459  16.247  0.00  0.00    +0.000 C 
ATOM      3  C   UNL     1       6.704   6.245  16.529  0.00  0.00    +0.000 C 
ATOM      4  O   UNL     1       7.332   7.493  16.856  0.00  0.00    +0.000 OA
ATOM      5  C   UNL     1       7.635   7.502  18.264  0.00  0.00    +0.000 C 
ATOM      6  C   UNL     1       7.756   6.034  18.659  0.00  0.00    +0.000 C 
ATOM      7  C   UNL     1       6.724   5.367  17.765  0.00  0.00    +0.000 C 
ATOM      8  O   UNL     1       5.413   5.417  18.375  0.00  0.00    +0.000 OA
ENDROOT
BRANCH   6   9
ATOM      9  O   UNL     1       7.494   5.820  20.041  0.00  0.00    +0.000 OA
ATOM     10  H   UNL     1       6.519   5.844  20.130  0.00  0.00    +0.000 HD
ENDBRANCH   6   9
BRANCH   1  11
ATOM     11  C   UNL     1       3.156   5.808  17.607  0.00  0.00    +0.000 C 
BRANCH  11  13
ATOM     12  O   UNL     1       3.250   3.523  16.882  0.00  0.00    +0.000 OA
ATOM     13  C   UNL     1       3.089   4.305  17.814  0.00  0.00    +0.000 C 
ATOM     14  N   UNL     1       2.875   3.859  19.103  0.00  0.00    +0.000 N 
ATOM     15  C   UNL     1       3.001   2.429  19.407  0.00  0.00    +0.000 C 
ATOM     16  C   UNL     1       1.677   1.865  19.926  0.00  0.00    +0.000 C 
ATOM     17  O   UNL     1       1.200   2.626  21.049  0.00  0.00    +0.000 OA
ATOM     18  C   UNL     1       1.000   4.001  20.684  0.00  0.00    +0.000 C 
ATOM     19  C   UNL     1       2.310   4.644  20.205  0.00  0.00    +0.000 C 
ENDBRANCH  11  13
ENDBRANCH   1  11
BRANCH   5  20
ATOM     20  C   UNL     1       8.917   8.308  18.544  0.00  0.00    +0.000 C 
BRANCH  20  21
ATOM     21  N   UNL     1       8.638   9.747  18.560  0.00  0.00    +0.000 NA
ATOM     22  H   UNL     1       7.632   9.904  18.623  0.00  0.00    +0.000 HD
BRANCH  21  23
ATOM     23  C   UNL     1       9.306  10.427  19.663  0.00  0.00    +0.000 C 
BRANCH  23  24
ATOM     24  C   UNL     1      10.132  11.585  19.149  0.00  0.00    +0.000 A 
ATOM     25  C   UNL     1      10.567  11.572  17.811  0.00  0.00    +0.000 A 
ATOM     26  C   UNL     1      11.323  12.625  17.290  0.00  0.00    +0.000 A 
ATOM     27  C   UNL     1      11.647  13.714  18.094  0.00  0.00    +0.000 A 
ATOM     28  C   UNL     1      11.204  13.755  19.415  0.00  0.00    +0.000 A 
ATOM     29  C   UNL     1      10.446  12.703  19.939  0.00  0.00    +0.000 A 
ATOM     30 CL   UNL     1       9.903  12.846  21.574  0.00  0.00    +0.000 Cl
ENDBRANCH  23  24
ENDBRANCH  21  23
ENDBRANCH  20  21
ENDBRANCH   5  20
TORSDOF 7
ENDMDL
MODEL 7
REMARK VINA RESULT:      -7.9      1.216      1.422
REMARK  Name = 
REMARK  7 active torsions:
REMARK  status: ('A' for Active; 'I' for Inactive)
REMARK    1  A    between atoms: C_2  and  C_3
REMARK    2  A    between atoms: C_3  and  C_4
REMARK    3  A    between atoms: C_8  and  C_9
REMARK    4  A    between atoms: C_9  and  N_10
REMARK    5  A    between atoms: N_10  and  C_11
REMARK    6  A    between atoms: C_11  and  C_12
REMARK    7  A    between atoms: C_19  and  O_20
REMARK                            x       y       z     vdW  Elec       q    Type
REMARK                         _______ _______ _______ _____ _____    ______ ____
ROOT
ATOM      1  C   UNL     1       4.870   5.372  17.289  0.00  0.00    +0.000 C 
ATOM      2  C   UNL     1       5.535   5.761  15.974  0.00  0.00    +0.000 C 
ATOM      3  C   UNL     1       6.994   5.878  16.340  0.00  0.00    +0.000 C 
ATOM      4  O   UNL     1       7.285   7.208  16.794  0.00  0.00    +0.000 OA
ATOM      5  C   UNL     1       7.506   7.172  18.217  0.00  0.00    +0.000 C 
ATOM      6  C   UNL     1       7.959   5.746  18.518  0.00  0.00    +0.000 C 
ATOM      7  C   UNL     1       7.165   4.931  17.511  0.00  0.00    +0.000 C 
ATOM      8  O   UNL     1       5.852   4.617  18.032  0.00  0.00    +0.000 OA
ENDROOT
BRANCH   6   9
ATOM      9  O   UNL     1       7.687   5.362  19.860  0.00  0.00    +0.000 OA
ATOM     10  H   UNL     1       7.592   6.199  20.360  0.00  0.00    +0.000 HD
ENDBRANCH   6   9
BRANCH   1  11
ATOM     11  C   UNL     1       3.608   4.523  17.140  0.00  0.00    +0.000 C 
BRANCH  11  13
ATOM     12  O   UNL     1       3.772   2.209  17.747  0.00  0.00    +0.000 OA
ATOM     13  C   UNL     1       3.573   3.362  18.117  0.00  0.00    +0.000 C 
ATOM     14  N   UNL     1       3.345   3.667  19.444  0.00  0.00    +0.000 N 
ATOM     15  C   UNL     1       3.499   2.624  20.465  0.00  0.00    +0.000 C 
ATOM     16  C   UNL     1       2.178   2.384  21.199  0.00  0.00    +0.000 C 
ATOM     17  O   UNL     1       1.661   3.612  21.741  0.00  0.00    +0.000 OA
ATOM     18  C   UNL     1       1.435   4.573  20.697  0.00  0.00    +0.000 C 
ATOM     19  C   UNL     1       2.739   4.901  19.954  0.00  0.00    +0.000 C 
ENDBRANCH  11  13
ENDBRANCH   1  11
BRANCH   5  20
ATOM     20  C   UNL     1       8.539   8.232  18.640  0.00  0.00    +0.000 C 
BRANCH  20  21
ATOM     21  N   UNL     1       8.170   9.555  18.127  0.00  0.00    +0.000 NA
ATOM     22  H   UNL     1       7.525  10.010  18.773  0.00  0.00    +0.000 HD
BRANCH  21  23
ATOM     23  C   UNL     1       9.333  10.411  17.919  0.00  0.00    +0.000 C 
BRANCH  23  24
ATOM     24  C   UNL     1       9.467  11.406  19.049  0.00  0.00    +0.000 A 
ATOM     25  C   UNL     1       9.337  10.955  20.376  0.00  0.00    +0.000 A 
ATOM     26  C   UNL     1       9.464  11.837  21.451  0.00  0.00    +0.000 A 
ATOM     27  C   UNL     1       9.734  13.183  21.221  0.00  0.00    +0.000 A 
ATOM     28  C   UNL     1       9.889  13.644  19.914  0.00  0.00    +0.000 A 
ATOM     29  C   UNL     1       9.764  12.762  18.834  0.00  0.00    +0.000 A 
ATOM     30 CL   UNL     1      10.007  13.403  17.247  0.00  0.00    +0.000 Cl
ENDBRANCH  23  24
ENDBRANCH  21  23
ENDBRANCH  20  21
ENDBRANCH   5  20
TORSDOF 7
ENDMDL
MODEL 8
REMARK VINA RESULT:      -7.8      1.732      2.328
REMARK  Name = 
REMARK  7 active torsions:
REMARK  status: ('A' for Active; 'I' for Inactive)
REMARK    1  A    between atoms: C_2  and  C_3
REMARK    2  A    between atoms: C_3  and  C_4
REMARK    3  A    between atoms: C_8  and  C_9
REMARK    4  A    between atoms: C_9  and  N_10
REMARK    5  A    between atoms: N_10  and  C_11
REMARK    6  A    between atoms: C_11  and  C_12
REMARK    7  A    between atoms: C_19  and  O_20
REMARK                            x       y       z     vdW  Elec       q    Type
REMARK                         _______ _______ _______ _____ _____    ______ ____
ROOT
ATOM      1  C   UNL     1       3.991   6.541  17.758  0.00  0.00    +0.000 C 
ATOM      2  C   UNL     1       4.533   6.747  16.348  0.00  0.00    +0.000 C 
ATOM      3  C   UNL     1       5.984   6.351  16.468  0.00  0.00    +0.000 C 
ATOM      4  O   UNL     1       6.775   7.483  16.858  0.00  0.00    +0.000 OA
ATOM      5  C   UNL     1       7.192   7.306  18.225  0.00  0.00    +0.000 C 
ATOM      6  C   UNL     1       7.177   5.799  18.459  0.00  0.00    +0.000 C 
ATOM      7  C   UNL     1       6.006   5.346  17.603  0.00  0.00    +0.000 C 
ATOM      8  O   UNL     1       4.764   5.466  18.335  0.00  0.00    +0.000 OA
ENDROOT
BRANCH   6   9
ATOM      9  O   UNL     1       7.007   5.464  19.831  0.00  0.00    +0.000 OA
ATOM     10  H   UNL     1       6.298   4.788  19.850  0.00  0.00    +0.000 HD
ENDBRANCH   6   9
BRANCH   1  11
ATOM     11  C   UNL     1       2.510   6.173  17.825  0.00  0.00    +0.000 C 
BRANCH  11  13
ATOM     12  O   UNL     1       2.205   6.323  20.200  0.00  0.00    +0.000 OA
ATOM     13  C   UNL     1       2.109   5.635  19.188  0.00  0.00    +0.000 C 
ATOM     14  N   UNL     1       1.598   4.353  19.230  0.00  0.00    +0.000 N 
ATOM     15  C   UNL     1       1.006   3.849  20.473  0.00  0.00    +0.000 C 
ATOM     16  C   UNL     1       1.768   2.622  20.980  0.00  0.00    +0.000 C 
ATOM     17  O   UNL     1       1.850   1.612  19.959  0.00  0.00    +0.000 OA
ATOM     18  C   UNL     1       2.521   2.118  18.794  0.00  0.00    +0.000 C 
ATOM     19  C   UNL     1       1.772   3.322  18.202  0.00  0.00    +0.000 C 
ENDBRANCH  11  13
ENDBRANCH   1  11
BRANCH   5  20
ATOM     20  C   UNL     1       8.577   7.937  18.463  0.00  0.00    +0.000 C 
BRANCH  20  21
ATOM     21  N   UNL     1       8.540   9.384  18.225  0.00  0.00    +0.000 NA
ATOM     22  H   UNL     1       7.582   9.724  18.302  0.00  0.00    +0.000 HD
BRANCH  21  23
ATOM     23  C   UNL     1       9.391  10.117  19.155  0.00  0.00    +0.000 C 
BRANCH  23  24
ATOM     24  C   UNL     1       9.532  11.558  18.718  0.00  0.00    +0.000 A 
ATOM     25  C   UNL     1       8.537  12.125  17.900  0.00  0.00    +0.000 A 
ATOM     26  C   UNL     1       8.621  13.455  17.481  0.00  0.00    +0.000 A 
ATOM     27  C   UNL     1       9.694  14.245  17.883  0.00  0.00    +0.000 A 
ATOM     28  C   UNL     1      10.677  13.708  18.713  0.00  0.00    +0.000 A 
ATOM     29  C   UNL     1      10.595  12.376  19.135  0.00  0.00    +0.000 A 
ATOM     30 CL   UNL     1      11.833  11.797  20.193  0.00  0.00    +0.000 Cl
ENDBRANCH  23  24
ENDBRANCH  21  23
ENDBRANCH  20  21
ENDBRANCH   5  20
TORSDOF 7
ENDMDL
MODEL 9
REMARK VINA RESULT:      -7.8      1.749      2.163
REMARK  Name = 
REMARK  7 active torsions:
REMARK  status: ('A' for Active; 'I' for Inactive)
REMARK    1  A    between atoms: C_2  and  C_3
REMARK    2  A    between atoms: C_3  and  C_4
REMARK    3  A    between atoms: C_8  and  C_9
REMARK    4  A    between atoms: C_9  and  N_10
REMARK    5  A    between atoms: N_10  and  C_11
REMARK    6  A    between atoms: C_11  and  C_12
REMARK    7  A    between atoms: C_19  and  O_20
REMARK                            x       y       z     vdW  Elec       q    Type
REMARK                         _______ _______ _______ _____ _____    ______ ____
ROOT
ATOM      1  C   UNL     1       4.306   6.420  17.610  0.00  0.00    +0.000 C 
ATOM      2  C   UNL     1       4.905   6.548  16.215  0.00  0.00    +0.000 C 
ATOM      3  C   UNL     1       6.367   6.245  16.432  0.00  0.00    +0.000 C 
ATOM      4  O   UNL     1       7.077   7.446  16.766  0.00  0.00    +0.000 OA
ATOM      5  C   UNL     1       7.435   7.399  18.160  0.00  0.00    +0.000 C 
ATOM      6  C   UNL     1       7.488   5.915  18.512  0.00  0.00    +0.000 C 
ATOM      7  C   UNL     1       6.386   5.333  17.642  0.00  0.00    +0.000 C 
ATOM      8  O   UNL     1       5.105   5.438  18.306  0.00  0.00    +0.000 OA
ENDROOT
BRANCH   6   9
ATOM      9  O   UNL     1       7.267   5.678  19.897  0.00  0.00    +0.000 OA
ATOM     10  H   UNL     1       6.296   5.718  20.019  0.00  0.00    +0.000 HD
ENDBRANCH   6   9
BRANCH   1  11
ATOM     11  C   UNL     1       2.845   5.975  17.639  0.00  0.00    +0.000 C 
BRANCH  11  13
ATOM     12  O   UNL     1       2.440   6.584  19.924  0.00  0.00    +0.000 OA
ATOM     13  C   UNL     1       2.344   5.726  19.051  0.00  0.00    +0.000 C 
ATOM     14  N   UNL     1       1.742   4.508  19.297  0.00  0.00    +0.000 N 
ATOM     15  C   UNL     1       1.059   4.282  20.575  0.00  0.00    +0.000 C 
ATOM     16  C   UNL     1       1.709   3.128  21.342  0.00  0.00    +0.000 C 
ATOM     17  O   UNL     1       1.767   1.942  20.531  0.00  0.00    +0.000 OA
ATOM     18  C   UNL     1       2.526   2.180  19.334  0.00  0.00    +0.000 C 
ATOM     19  C   UNL     1       1.891   3.294  18.488  0.00  0.00    +0.000 C 
ENDBRANCH  11  13
ENDBRANCH   1  11
BRANCH   5  20
ATOM     20  C   UNL     1       8.770   8.124  18.410  0.00  0.00    +0.000 C 
BRANCH  20  21
ATOM     21  N   UNL     1       8.542   9.502  18.856  0.00  0.00    +0.000 NA
ATOM     22  H   UNL     1       8.659   9.563  19.867  0.00  0.00    +0.000 HD
BRANCH  21  23
ATOM     23  C   UNL     1       9.441  10.448  18.205  0.00  0.00    +0.000 C 
BRANCH  23  24
ATOM     24  C   UNL     1       9.779  11.586  19.142  0.00  0.00    +0.000 A 
ATOM     25  C   UNL     1       9.507  11.444  20.516  0.00  0.00    +0.000 A 
ATOM     26  C   UNL     1       9.813  12.464  21.419  0.00  0.00    +0.000 A 
ATOM     27  C   UNL     1      10.406  13.639  20.968  0.00  0.00    +0.000 A 
ATOM     28  C   UNL     1      10.706  13.788  19.614  0.00  0.00    +0.000 A 
ATOM     29  C   UNL     1      10.401  12.767  18.707  0.00  0.00    +0.000 A 
ATOM     30 CL   UNL     1      10.837  13.014  17.052  0.00  0.00    +0.000 Cl
ENDBRANCH  23  24
ENDBRANCH  21  23
ENDBRANCH  20  21
ENDBRANCH   5  20
TORSDOF 7
ENDMDL
