MODEL 1
REMARK VINA RESULT:      -7.0      0.000      0.000
REMARK  Name = 
REMARK  6 active torsions:
REMARK  status: ('A' for Active; 'I' for Inactive)
REMARK    1  A    between atoms: C_1  and  C_2
REMARK    2  A    between atoms: C_7  and  C_8
REMARK    3  A    between atoms: C_10  and  C_11
REMARK    4  A    between atoms: N_13  and  C_14
REMARK    5  A    between atoms: C_14  and  C_15
REMARK    6  A    between atoms: N_22  and  C_23
REMARK                            x       y       z     vdW  Elec       q    Type
REMARK                         _______ _______ _______ _____ _____    ______ ____
ROOT
ATOM      1  C   UNL     1       7.058   3.440  11.687  0.00  0.00    +0.000 C 
ATOM      2  C   UNL     1       6.653   3.910  13.045  0.00  0.00    +0.000 A 
ATOM      3  C   UNL     1       5.632   3.451  13.863  0.00  0.00    +0.000 A 
ATOM      4  C   UNL     1       5.626   4.169  15.099  0.00  0.00    +0.000 A 
ATOM      5  C   UNL     1       6.607   5.105  15.169  0.00  0.00    +0.000 A 
ATOM      6  S   UNL     1       7.554   5.202  13.727  0.00  0.00    +0.000 S 
ATOM      7  C   UNL     1       6.563   5.714  16.448  0.00  0.00    +0.000 A 
ATOM      8  C   UNL     1       5.487   5.149  17.138  0.00  0.00    +0.000 A 
ATOM      9  N   UNL     1       4.919   4.198  16.290  0.00  0.00    +0.000 N 
ATOM     10  C   UNL     1       3.816   3.301  16.544  0.00  0.00    +0.000 C 
ENDROOT
BRANCH   8  11
ATOM     11  C   UNL     1       4.964   5.495  18.465  0.00  0.00    +0.000 C 
ATOM     12  O   UNL     1       5.633   5.423  19.486  0.00  0.00    +0.000 OA
ATOM     13  N   UNL     1       3.655   5.911  18.480  0.00  0.00    +0.000 N 
ATOM     14  H   UNL     1       3.127   5.903  17.613  0.00  0.00    +0.000 HD
BRANCH  13  15
ATOM     15  C   UNL     1       2.869   6.132  19.675  0.00  0.00    +0.000 C 
BRANCH  15  16
ATOM     16  C   UNL     1       2.276   4.852  20.197  0.00  0.00    +0.000 A 
ATOM     17  C   UNL     1       2.602   4.398  21.482  0.00  0.00    +0.000 A 
ATOM     18  C   UNL     1       2.043   3.223  21.985  0.00  0.00    +0.000 A 
ATOM     19  C   UNL     1       1.157   2.479  21.206  0.00  0.00    +0.000 A 
ATOM     20  C   UNL     1       0.842   2.907  19.917  0.00  0.00    +0.000 A 
ATOM     21  C   UNL     1       1.404   4.085  19.422  0.00  0.00    +0.000 A 
ATOM     22  F   UNL     1       1.089   4.467  18.176  0.00  0.00    +0.000 F 
ENDBRANCH  15  16
ENDBRANCH  13  15
ENDBRANCH   8  11
BRANCH   7  23
ATOM     23  C   UNL     1       7.527   6.726  16.807  0.00  0.00    +0.000 C 
ATOM     24  O   UNL     1       7.229   7.854  17.188  0.00  0.00    +0.000 OA
ENDBRANCH   7  23
TORSDOF 4
ENDMDL
MODEL 2
REMARK VINA RESULT:      -6.8      2.191      3.335
REMARK  Name = 
REMARK  6 active torsions:
REMARK  status: ('A' for Active; 'I' for Inactive)
REMARK    1  A    between atoms: C_1  and  C_2
REMARK    2  A    between atoms: C_7  and  C_8
REMARK    3  A    between atoms: C_10  and  C_11
REMARK    4  A    between atoms: N_13  and  C_14
REMARK    5  A    between atoms: C_14  and  C_15
REMARK    6  A    between atoms: N_22  and  C_23
REMARK                            x       y       z     vdW  Elec       q    Type
REMARK                         _______ _______ _______ _____ _____    ______ ____
ROOT
ATOM      1  C   UNL     1       6.710   3.299  11.942  0.00  0.00    +0.000 C 
ATOM      2  C   UNL     1       6.330   3.835  13.283  0.00  0.00    +0.000 A 
ATOM      3  C   UNL     1       5.283   3.462  14.111  0.00  0.00    +0.000 A 
ATOM      4  C   UNL     1       5.316   4.218  15.324  0.00  0.00    +0.000 A 
ATOM      5  C   UNL     1       6.348   5.098  15.367  0.00  0.00    +0.000 A 
ATOM      6  S   UNL     1       7.302   5.094  13.927  0.00  0.00    +0.000 S 
ATOM      7  C   UNL     1       6.337   5.749  16.626  0.00  0.00    +0.000 A 
ATOM      8  C   UNL     1       5.229   5.268  17.330  0.00  0.00    +0.000 A 
ATOM      9  N   UNL     1       4.610   4.325  16.511  0.00  0.00    +0.000 N 
ATOM     10  C   UNL     1       3.458   3.501  16.789  0.00  0.00    +0.000 C 
ENDROOT
BRANCH   8  11
ATOM     11  C   UNL     1       4.725   5.686  18.643  0.00  0.00    +0.000 C 
ATOM     12  O   UNL     1       5.336   5.495  19.685  0.00  0.00    +0.000 OA
ATOM     13  N   UNL     1       3.504   6.314  18.620  0.00  0.00    +0.000 N 
ATOM     14  H   UNL     1       3.014   6.402  17.736  0.00  0.00    +0.000 HD
BRANCH  13  15
ATOM     15  C   UNL     1       2.724   6.654  19.791  0.00  0.00    +0.000 C 
BRANCH  15  16
ATOM     16  C   UNL     1       1.930   7.914  19.586  0.00  0.00    +0.000 A 
ATOM     17  C   UNL     1       1.878   8.514  18.321  0.00  0.00    +0.000 A 
ATOM     18  C   UNL     1       1.127   9.672  18.113  0.00  0.00    +0.000 A 
ATOM     19  C   UNL     1       0.427  10.252  19.170  0.00  0.00    +0.000 A 
ATOM     20  C   UNL     1       0.488   9.679  20.438  0.00  0.00    +0.000 A 
ATOM     21  C   UNL     1       1.239   8.519  20.637  0.00  0.00    +0.000 A 
ATOM     22  F   UNL     1       1.287   7.994  21.871  0.00  0.00    +0.000 F 
ENDBRANCH  15  16
ENDBRANCH  13  15
ENDBRANCH   8  11
BRANCH   7  23
ATOM     23  C   UNL     1       7.357   6.715  16.956  0.00  0.00    +0.000 C 
ATOM     24  O   UNL     1       7.124   7.871  17.295  0.00  0.00    +0.000 OA
ENDBRANCH   7  23
TORSDOF 4
ENDMDL
MODEL 3
REMARK VINA RESULT:      -6.8      5.793      8.663
REMARK  Name = 
REMARK  6 active torsions:
REMARK  status: ('A' for Active; 'I' for Inactive)
REMARK    1  A    between atoms: C_1  and  C_2
REMARK    2  A    between atoms: C_7  and  C_8
REMARK    3  A    between atoms: C_10  and  C_11
REMARK    4  A    between atoms: N_13  and  C_14
REMARK    5  A    between atoms: C_14  and  C_15
REMARK    6  A    between atoms: N_22  and  C_23
REMARK                            x       y       z     vdW  Elec       q    Type
REMARK                         _______ _______ _______ _____ _____    ______ ____
ROOT
ATOM      1  C   UNL     1      -2.887  12.951  23.493  0.00  0.00    +0.000 C 
ATOM      2  C   UNL     1      -1.992  12.168  22.590  0.00  0.00    +0.000 A 
ATOM      3  C   UNL     1      -0.971  11.288  22.915  0.00  0.00    +0.000 A 
ATOM      4  C   UNL     1      -0.399  10.732  21.729  0.00  0.00    +0.000 A 
ATOM      5  C   UNL     1      -0.987  11.192  20.596  0.00  0.00    +0.000 A 
ATOM      6  S   UNL     1      -2.227  12.355  20.900  0.00  0.00    +0.000 S 
ATOM      7  C   UNL     1      -0.401  10.538  19.483  0.00  0.00    +0.000 A 
ATOM      8  C   UNL     1       0.602   9.699  19.978  0.00  0.00    +0.000 A 
ATOM      9  N   UNL     1       0.590   9.832  21.365  0.00  0.00    +0.000 N 
ATOM     10  C   UNL     1       1.393   9.144  22.349  0.00  0.00    +0.000 C 
ENDROOT
BRANCH   8  11
ATOM     11  C   UNL     1       1.557   8.872  19.231  0.00  0.00    +0.000 C 
ATOM     12  O   UNL     1       2.105   9.247  18.204  0.00  0.00    +0.000 OA
ATOM     13  N   UNL     1       1.795   7.632  19.772  0.00  0.00    +0.000 N 
ATOM     14  H   UNL     1       1.276   7.349  20.597  0.00  0.00    +0.000 HD
BRANCH  13  15
ATOM     15  C   UNL     1       2.550   6.578  19.130  0.00  0.00    +0.000 C 
BRANCH  15  16
ATOM     16  C   UNL     1       2.115   5.217  19.596  0.00  0.00    +0.000 A 
ATOM     17  C   UNL     1       2.306   4.835  20.931  0.00  0.00    +0.000 A 
ATOM     18  C   UNL     1       1.888   3.582  21.380  0.00  0.00    +0.000 A 
ATOM     19  C   UNL     1       1.282   2.688  20.498  0.00  0.00    +0.000 A 
ATOM     20  C   UNL     1       1.105   3.046  19.162  0.00  0.00    +0.000 A 
ATOM     21  C   UNL     1       1.525   4.302  18.721  0.00  0.00    +0.000 A 
ATOM     22  F   UNL     1       1.350   4.615  17.429  0.00  0.00    +0.000 F 
ENDBRANCH  15  16
ENDBRANCH  13  15
ENDBRANCH   8  11
BRANCH   7  23
ATOM     23  C   UNL     1      -0.870  10.812  18.146  0.00  0.00    +0.000 C 
ATOM     24  O   UNL     1      -1.553  11.786  17.844  0.00  0.00    +0.000 OA
ENDBRANCH   7  23
TORSDOF 4
ENDMDL
MODEL 4
REMARK VINA RESULT:      -6.7      3.936      5.250
REMARK  Name = 
REMARK  6 active torsions:
REMARK  status: ('A' for Active; 'I' for Inactive)
REMARK    1  A    between atoms: C_1  and  C_2
REMARK    2  A    between atoms: C_7  and  C_8
REMARK    3  A    between atoms: C_10  and  C_11
REMARK    4  A    between atoms: N_13  and  C_14
REMARK    5  A    between atoms: C_14  and  C_15
REMARK    6  A    between atoms: N_22  and  C_23
REMARK                            x       y       z     vdW  Elec       q    Type
REMARK                         _______ _______ _______ _____ _____    ______ ____
ROOT
ATOM      1  C   UNL     1       6.965   4.434  15.168  0.00  0.00    +0.000 C 
ATOM      2  C   UNL     1       5.909   4.811  16.154  0.00  0.00    +0.000 A 
ATOM      3  C   UNL     1       5.400   4.080  17.216  0.00  0.00    +0.000 A 
ATOM      4  C   UNL     1       4.423   4.847  17.923  0.00  0.00    +0.000 A 
ATOM      5  C   UNL     1       4.240   6.083  17.393  0.00  0.00    +0.000 A 
ATOM      6  S   UNL     1       5.199   6.364  15.985  0.00  0.00    +0.000 S 
ATOM      7  C   UNL     1       3.309   6.788  18.196  0.00  0.00    +0.000 A 
ATOM      8  C   UNL     1       2.893   5.918  19.208  0.00  0.00    +0.000 A 
ATOM      9  N   UNL     1       3.590   4.725  19.024  0.00  0.00    +0.000 N 
ATOM     10  C   UNL     1       3.562   3.526  19.828  0.00  0.00    +0.000 C 
ENDROOT
BRANCH   8  11
ATOM     11  C   UNL     1       1.877   6.135  20.244  0.00  0.00    +0.000 C 
ATOM     12  O   UNL     1       1.097   5.266  20.607  0.00  0.00    +0.000 OA
ATOM     13  N   UNL     1       1.861   7.398  20.783  0.00  0.00    +0.000 N 
ATOM     14  H   UNL     1       2.493   8.099  20.410  0.00  0.00    +0.000 HD
BRANCH  13  15
ATOM     15  C   UNL     1       0.845   7.904  21.681  0.00  0.00    +0.000 C 
BRANCH  15  16
ATOM     16  C   UNL     1       0.444   9.311  21.333  0.00  0.00    +0.000 A 
ATOM     17  C   UNL     1       0.559   9.770  20.014  0.00  0.00    +0.000 A 
ATOM     18  C   UNL     1       0.172  11.067  19.675  0.00  0.00    +0.000 A 
ATOM     19  C   UNL     1      -0.327  11.926  20.653  0.00  0.00    +0.000 A 
ATOM     20  C   UNL     1      -0.427  11.491  21.973  0.00  0.00    +0.000 A 
ATOM     21  C   UNL     1      -0.038  10.191  22.303  0.00  0.00    +0.000 A 
ATOM     22  F   UNL     1      -0.137   9.802  23.583  0.00  0.00    +0.000 F 
ENDBRANCH  15  16
ENDBRANCH  13  15
ENDBRANCH   8  11
BRANCH   7  23
ATOM     23  C   UNL     1       2.958   8.152  17.879  0.00  0.00    +0.000 C 
ATOM     24  O   UNL     1       1.910   8.482  17.333  0.00  0.00    +0.000 OA
ENDBRANCH   7  23
TORSDOF 4
ENDMDL
MODEL 5
REMARK VINA RESULT:      -6.5      3.530      5.071
REMARK  Name = 
REMARK  6 active torsions:
REMARK  status: ('A' for Active; 'I' for Inactive)
REMARK    1  A    between atoms: C_1  and  C_2
REMARK    2  A    between atoms: C_7  and  C_8
REMARK    3  A    between atoms: C_10  and  C_11
REMARK    4  A    between atoms: N_13  and  C_14
REMARK    5  A    between atoms: C_14  and  C_15
REMARK    6  A    between atoms: N_22  and  C_23
REMARK                            x       y       z     vdW  Elec       q    Type
REMARK                         _______ _______ _______ _____ _____    ______ ____
ROOT
ATOM      1  C   UNL     1       6.773   5.048  14.131  0.00  0.00    +0.000 C 
ATOM      2  C   UNL     1       5.929   5.160  15.358  0.00  0.00    +0.000 A 
ATOM      3  C   UNL     1       5.158   6.226  15.796  0.00  0.00    +0.000 A 
ATOM      4  C   UNL     1       4.483   5.883  17.009  0.00  0.00    +0.000 A 
ATOM      5  C   UNL     1       4.755   4.620  17.424  0.00  0.00    +0.000 A 
ATOM      6  S   UNL     1       5.878   3.798  16.400  0.00  0.00    +0.000 S 
ATOM      7  C   UNL     1       3.994   4.351  18.588  0.00  0.00    +0.000 A 
ATOM      8  C   UNL     1       3.284   5.516  18.897  0.00  0.00    +0.000 A 
ATOM      9  N   UNL     1       3.599   6.451  17.912  0.00  0.00    +0.000 N 
ATOM     10  C   UNL     1       3.093   7.793  17.742  0.00  0.00    +0.000 C 
ENDROOT
BRANCH   8  11
ATOM     11  C   UNL     1       2.421   5.785  20.052  0.00  0.00    +0.000 C 
ATOM     12  O   UNL     1       1.961   4.903  20.762  0.00  0.00    +0.000 OA
ATOM     13  N   UNL     1       2.162   7.114  20.283  0.00  0.00    +0.000 N 
ATOM     14  H   UNL     1       2.525   7.805  19.634  0.00  0.00    +0.000 HD
BRANCH  13  15
ATOM     15  C   UNL     1       1.203   7.618  21.242  0.00  0.00    +0.000 C 
BRANCH  15  16
ATOM     16  C   UNL     1       0.825   9.045  20.957  0.00  0.00    +0.000 A 
ATOM     17  C   UNL     1       0.907   9.547  19.651  0.00  0.00    +0.000 A 
ATOM     18  C   UNL     1       0.540  10.863  19.370  0.00  0.00    +0.000 A 
ATOM     19  C   UNL     1       0.097  11.701  20.393  0.00  0.00    +0.000 A 
ATOM     20  C   UNL     1       0.033  11.222  21.700  0.00  0.00    +0.000 A 
ATOM     21  C   UNL     1       0.399   9.902  21.973  0.00  0.00    +0.000 A 
ATOM     22  F   UNL     1       0.336   9.472  23.241  0.00  0.00    +0.000 F 
ENDBRANCH  15  16
ENDBRANCH  13  15
ENDBRANCH   8  11
BRANCH   7  23
ATOM     23  C   UNL     1       4.062   3.056  19.222  0.00  0.00    +0.000 C 
ATOM     24  O   UNL     1       4.953   2.715  19.993  0.00  0.00    +0.000 OA
ENDBRANCH   7  23
TORSDOF 4
ENDMDL
MODEL 6
REMARK VINA RESULT:      -6.5      4.836      7.781
REMARK  Name = 
REMARK  6 active torsions:
REMARK  status: ('A' for Active; 'I' for Inactive)
REMARK    1  A    between atoms: C_1  and  C_2
REMARK    2  A    between atoms: C_7  and  C_8
REMARK    3  A    between atoms: C_10  and  C_11
REMARK    4  A    between atoms: N_13  and  C_14
REMARK    5  A    between atoms: C_14  and  C_15
REMARK    6  A    between atoms: N_22  and  C_23
REMARK                            x       y       z     vdW  Elec       q    Type
REMARK                         _______ _______ _______ _____ _____    ______ ____
ROOT
ATOM      1  C   UNL     1       0.126  13.936  19.091  0.00  0.00    +0.000 C 
ATOM      2  C   UNL     1       0.441  12.502  19.363  0.00  0.00    +0.000 A 
ATOM      3  C   UNL     1       1.002  11.554  18.522  0.00  0.00    +0.000 A 
ATOM      4  C   UNL     1       1.159  10.311  19.211  0.00  0.00    +0.000 A 
ATOM      5  C   UNL     1       0.732  10.365  20.498  0.00  0.00    +0.000 A 
ATOM      6  S   UNL     1       0.071  11.903  20.928  0.00  0.00    +0.000 S 
ATOM      7  C   UNL     1       0.988   9.116  21.115  0.00  0.00    +0.000 A 
ATOM      8  C   UNL     1       1.543   8.280  20.141  0.00  0.00    +0.000 A 
ATOM      9  N   UNL     1       1.641   9.034  18.972  0.00  0.00    +0.000 N 
ATOM     10  C   UNL     1       2.193   8.655  17.693  0.00  0.00    +0.000 C 
ENDROOT
BRANCH   8  11
ATOM     11  C   UNL     1       1.906   6.862  20.247  0.00  0.00    +0.000 C 
ATOM     12  O   UNL     1       1.203   6.033  20.808  0.00  0.00    +0.000 OA
ATOM     13  N   UNL     1       3.105   6.527  19.666  0.00  0.00    +0.000 N 
ATOM     14  H   UNL     1       3.675   7.261  19.260  0.00  0.00    +0.000 HD
BRANCH  13  15
ATOM     15  C   UNL     1       3.757   5.242  19.795  0.00  0.00    +0.000 C 
BRANCH  15  16
ATOM     16  C   UNL     1       4.638   4.944  18.613  0.00  0.00    +0.000 A 
ATOM     17  C   UNL     1       4.076   4.490  17.413  0.00  0.00    +0.000 A 
ATOM     18  C   UNL     1       4.881   4.229  16.303  0.00  0.00    +0.000 A 
ATOM     19  C   UNL     1       6.261   4.409  16.381  0.00  0.00    +0.000 A 
ATOM     20  C   UNL     1       6.837   4.838  17.576  0.00  0.00    +0.000 A 
ATOM     21  C   UNL     1       6.024   5.099  18.681  0.00  0.00    +0.000 A 
ATOM     22  F   UNL     1       6.607   5.502  19.819  0.00  0.00    +0.000 F 
ENDBRANCH  15  16
ENDBRANCH  13  15
ENDBRANCH   8  11
BRANCH   7  23
ATOM     23  C   UNL     1       0.665   8.909  22.506  0.00  0.00    +0.000 C 
ATOM     24  O   UNL     1       1.055   9.631  23.417  0.00  0.00    +0.000 OA
ENDBRANCH   7  23
TORSDOF 4
ENDMDL
MODEL 7
REMARK VINA RESULT:      -6.4      5.714      8.603
REMARK  Name = 
REMARK  6 active torsions:
REMARK  status: ('A' for Active; 'I' for Inactive)
REMARK    1  A    between atoms: C_1  and  C_2
REMARK    2  A    between atoms: C_7  and  C_8
REMARK    3  A    between atoms: C_10  and  C_11
REMARK    4  A    between atoms: N_13  and  C_14
REMARK    5  A    between atoms: C_14  and  C_15
REMARK    6  A    between atoms: N_22  and  C_23
REMARK                            x       y       z     vdW  Elec       q    Type
REMARK                         _______ _______ _______ _____ _____    ______ ____
ROOT
ATOM      1  C   UNL     1      -3.050  13.265  22.871  0.00  0.00    +0.000 C 
ATOM      2  C   UNL     1      -2.125  12.357  22.129  0.00  0.00    +0.000 A 
ATOM      3  C   UNL     1      -1.906  12.255  20.765  0.00  0.00    +0.000 A 
ATOM      4  C   UNL     1      -0.903  11.273  20.496  0.00  0.00    +0.000 A 
ATOM      5  C   UNL     1      -0.417  10.694  21.623  0.00  0.00    +0.000 A 
ATOM      6  S   UNL     1      -1.182  11.269  23.062  0.00  0.00    +0.000 S 
ATOM      7  C   UNL     1       0.612   9.789  21.263  0.00  0.00    +0.000 A 
ATOM      8  C   UNL     1       0.702   9.801  19.867  0.00  0.00    +0.000 A 
ATOM      9  N   UNL     1      -0.241  10.721  19.411  0.00  0.00    +0.000 N 
ATOM     10  C   UNL     1      -0.513  11.142  18.057  0.00  0.00    +0.000 C 
ENDROOT
BRANCH   8  11
ATOM     11  C   UNL     1       1.550   8.979  18.996  0.00  0.00    +0.000 C 
ATOM     12  O   UNL     1       1.792   9.268  17.834  0.00  0.00    +0.000 OA
ATOM     13  N   UNL     1       2.057   7.846  19.585  0.00  0.00    +0.000 N 
ATOM     14  H   UNL     1       1.784   7.623  20.537  0.00  0.00    +0.000 HD
BRANCH  13  15
ATOM     15  C   UNL     1       2.764   6.794  18.887  0.00  0.00    +0.000 C 
BRANCH  15  16
ATOM     16  C   UNL     1       2.156   5.444  19.150  0.00  0.00    +0.000 A 
ATOM     17  C   UNL     1       1.529   5.181  20.375  0.00  0.00    +0.000 A 
ATOM     18  C   UNL     1       0.943   3.939  20.623  0.00  0.00    +0.000 A 
ATOM     19  C   UNL     1       0.986   2.939  19.653  0.00  0.00    +0.000 A 
ATOM     20  C   UNL     1       1.626   3.179  18.439  0.00  0.00    +0.000 A 
ATOM     21  C   UNL     1       2.208   4.425  18.197  0.00  0.00    +0.000 A 
ATOM     22  F   UNL     1       2.824   4.624  17.023  0.00  0.00    +0.000 F 
ENDBRANCH  15  16
ENDBRANCH  13  15
ENDBRANCH   8  11
BRANCH   7  23
ATOM     23  C   UNL     1       1.332   9.060  22.279  0.00  0.00    +0.000 C 
ATOM     24  O   UNL     1       1.562   9.495  23.403  0.00  0.00    +0.000 OA
ENDBRANCH   7  23
TORSDOF 4
ENDMDL
MODEL 8
REMARK VINA RESULT:      -6.4      3.656      7.422
REMARK  Name = 
REMARK  6 active torsions:
REMARK  status: ('A' for Active; 'I' for Inactive)
REMARK    1  A    between atoms: C_1  and  C_2
REMARK    2  A    between atoms: C_7  and  C_8
REMARK    3  A    between atoms: C_10  and  C_11
REMARK    4  A    between atoms: N_13  and  C_14
REMARK    5  A    between atoms: C_14  and  C_15
REMARK    6  A    between atoms: N_22  and  C_23
REMARK                            x       y       z     vdW  Elec       q    Type
REMARK                         _______ _______ _______ _____ _____    ______ ____
ROOT
ATOM      1  C   UNL     1      -0.588  10.290  22.422  0.00  0.00    +0.000 C 
ATOM      2  C   UNL     1       0.224   9.331  21.615  0.00  0.00    +0.000 A 
ATOM      3  C   UNL     1       0.490   7.992  21.852  0.00  0.00    +0.000 A 
ATOM      4  C   UNL     1       1.286   7.450  20.795  0.00  0.00    +0.000 A 
ATOM      5  C   UNL     1       1.577   8.363  19.834  0.00  0.00    +0.000 A 
ATOM      6  S   UNL     1       0.949   9.934  20.181  0.00  0.00    +0.000 S 
ATOM      7  C   UNL     1       2.307   7.720  18.803  0.00  0.00    +0.000 A 
ATOM      8  C   UNL     1       2.493   6.391  19.195  0.00  0.00    +0.000 A 
ATOM      9  N   UNL     1       1.857   6.242  20.427  0.00  0.00    +0.000 N 
ATOM     10  C   UNL     1       1.711   5.053  21.234  0.00  0.00    +0.000 C 
ENDROOT
BRANCH   8  11
ATOM     11  C   UNL     1       3.257   5.335  18.522  0.00  0.00    +0.000 C 
ATOM     12  O   UNL     1       2.739   4.485  17.811  0.00  0.00    +0.000 OA
ATOM     13  N   UNL     1       4.611   5.366  18.750  0.00  0.00    +0.000 N 
ATOM     14  H   UNL     1       4.986   6.059  19.390  0.00  0.00    +0.000 HD
BRANCH  13  15
ATOM     15  C   UNL     1       5.543   4.335  18.348  0.00  0.00    +0.000 C 
BRANCH  15  16
ATOM     16  C   UNL     1       6.006   4.524  16.929  0.00  0.00    +0.000 A 
ATOM     17  C   UNL     1       5.488   3.718  15.907  0.00  0.00    +0.000 A 
ATOM     18  C   UNL     1       5.894   3.897  14.584  0.00  0.00    +0.000 A 
ATOM     19  C   UNL     1       6.832   4.879  14.266  0.00  0.00    +0.000 A 
ATOM     20  C   UNL     1       7.372   5.673  15.276  0.00  0.00    +0.000 A 
ATOM     21  C   UNL     1       6.959   5.488  16.597  0.00  0.00    +0.000 A 
ATOM     22  F   UNL     1       7.503   6.261  17.549  0.00  0.00    +0.000 F 
ENDBRANCH  15  16
ENDBRANCH  13  15
ENDBRANCH   8  11
BRANCH   7  23
ATOM     23  C   UNL     1       2.715   8.456  17.631  0.00  0.00    +0.000 C 
ATOM     24  O   UNL     1       2.213   9.518  17.277  0.00  0.00    +0.000 OA
ENDBRANCH   7  23
TORSDOF 4
ENDMDL
MODEL 9
REMARK VINA RESULT:      -6.3      5.769      8.663
REMARK  Name = 
REMARK  6 active torsions:
REMARK  status: ('A' for Active; 'I' for Inactive)
REMARK    1  A    between atoms: C_1  and  C_2
REMARK    2  A    between atoms: C_7  and  C_8
REMARK    3  A    between atoms: C_10  and  C_11
REMARK    4  A    between atoms: N_13  and  C_14
REMARK    5  A    between atoms: C_14  and  C_15
REMARK    6  A    between atoms: N_22  and  C_23
REMARK                            x       y       z     vdW  Elec       q    Type
REMARK                         _______ _______ _______ _____ _____    ______ ____
ROOT
ATOM      1  C   UNL     1      -2.750  12.287  23.637  0.00  0.00    +0.000 C 
ATOM      2  C   UNL     1      -1.873  11.711  22.575  0.00  0.00    +0.000 A 
ATOM      3  C   UNL     1      -0.828  10.809  22.696  0.00  0.00    +0.000 A 
ATOM      4  C   UNL     1      -0.287  10.502  21.409  0.00  0.00    +0.000 A 
ATOM      5  C   UNL     1      -0.921  11.155  20.402  0.00  0.00    +0.000 A 
ATOM      6  S   UNL     1      -2.169  12.211  20.960  0.00  0.00    +0.000 S 
ATOM      7  C   UNL     1      -0.362  10.739  19.168  0.00  0.00    +0.000 A 
ATOM      8  C   UNL     1       0.671   9.844  19.463  0.00  0.00    +0.000 A 
ATOM      9  N   UNL     1       0.704   9.711  20.850  0.00  0.00    +0.000 N 
ATOM     10  C   UNL     1       1.551   8.866  21.659  0.00  0.00    +0.000 C 
ENDROOT
BRANCH   8  11
ATOM     11  C   UNL     1       1.614   9.197  18.544  0.00  0.00    +0.000 C 
ATOM     12  O   UNL     1       2.075   9.753  17.558  0.00  0.00    +0.000 OA
ATOM     13  N   UNL     1       1.946   7.905  18.872  0.00  0.00    +0.000 N 
ATOM     14  H   UNL     1       1.497   7.470  19.671  0.00  0.00    +0.000 HD
BRANCH  13  15
ATOM     15  C   UNL     1       2.708   7.006  18.032  0.00  0.00    +0.000 C 
BRANCH  15  16
ATOM     16  C   UNL     1       2.543   5.572  18.456  0.00  0.00    +0.000 A 
ATOM     17  C   UNL     1       1.515   4.791  17.911  0.00  0.00    +0.000 A 
ATOM     18  C   UNL     1       1.363   3.454  18.281  0.00  0.00    +0.000 A 
ATOM     19  C   UNL     1       2.232   2.883  19.210  0.00  0.00    +0.000 A 
ATOM     20  C   UNL     1       3.245   3.654  19.777  0.00  0.00    +0.000 A 
ATOM     21  C   UNL     1       3.391   4.990  19.400  0.00  0.00    +0.000 A 
ATOM     22  F   UNL     1       4.368   5.710  19.969  0.00  0.00    +0.000 F 
ENDBRANCH  15  16
ENDBRANCH  13  15
ENDBRANCH   8  11
BRANCH   7  23
ATOM     23  C   UNL     1      -0.881  11.252  17.923  0.00  0.00    +0.000 C 
ATOM     24  O   UNL     1      -1.800  10.735  17.297  0.00  0.00    +0.000 OA
ENDBRANCH   7  23
TORSDOF 4
ENDMDL
