MODEL 1
REMARK VINA RESULT:      -8.9      0.000      0.000
REMARK  Name = 
REMARK  10 active torsions:
REMARK  status: ('A' for Active; 'I' for Inactive)
REMARK    1  A    between atoms: C_1  and  O_2
REMARK    2  A    between atoms: O_2  and  C_3
REMARK    3  A    between atoms: C_6  and  C_7
REMARK    4  A    between atoms: C_7  and  N_8
REMARK    5  A    between atoms: N_13  and  C_14
REMARK    6  A    between atoms: C_14  and  C_15
REMARK    7  A    between atoms: C_15  and  N_16
REMARK    8  A    between atoms: N_20  and  C_21
REMARK    9  A    between atoms: C_21  and  C_22
REMARK   10  A    between atoms: C_25  and  O_26
REMARK                            x       y       z     vdW  Elec       q    Type
REMARK                         _______ _______ _______ _____ _____    ______ ____
ROOT
ATOM      1  N   UNL     1       1.555   8.885  19.435  0.00  0.00    +0.000 N 
ATOM      2  C   UNL     1       1.313   8.316  20.663  0.00  0.00    +0.000 A 
ATOM      3  O   UNL     1       0.878   8.979  21.603  0.00  0.00    +0.000 OA
ATOM      4  N   UNL     1       1.578   6.988  20.828  0.00  0.00    +0.000 NA
ATOM      5  C   UNL     1       2.149   6.299  19.897  0.00  0.00    +0.000 A 
ATOM      6  N   UNL     1       2.381   4.957  20.081  0.00  0.00    +0.000 N 
ATOM      7  N   UNL     1       2.509   6.877  18.700  0.00  0.00    +0.000 N 
ATOM      8  C   UNL     1       2.213   8.202  18.443  0.00  0.00    +0.000 A 
ATOM      9  O   UNL     1       2.513   8.743  17.374  0.00  0.00    +0.000 OA
ATOM     10  H   UNL     1       3.253   4.581  19.705  0.00  0.00    +0.000 HD
ENDROOT
BRANCH   1  11
ATOM     11  C   UNL     1       1.185  10.277  19.214  0.00  0.00    +0.000 C 
BRANCH  11  15
ATOM     12  C   UNL     1      -2.943  10.718  17.923  0.00  0.00    +0.000 A 
ATOM     13  C   UNL     1      -2.074   9.863  17.241  0.00  0.00    +0.000 A 
ATOM     14  C   UNL     1      -0.740   9.727  17.647  0.00  0.00    +0.000 A 
ATOM     15  C   UNL     1      -0.244  10.459  18.737  0.00  0.00    +0.000 A 
ATOM     16  C   UNL     1      -1.115  11.345  19.390  0.00  0.00    +0.000 A 
ATOM     17  C   UNL     1      -2.454  11.467  18.988  0.00  0.00    +0.000 A 
BRANCH  12  19
ATOM     18  C   UNL     1      -5.231  11.146  18.358  0.00  0.00    +0.000 C 
ATOM     19  O   UNL     1      -4.223  10.768  17.430  0.00  0.00    +0.000 OA
ENDBRANCH  12  19
ENDBRANCH  11  15
ENDBRANCH   1  11
BRANCH   6  20
ATOM     20  C   UNL     1       1.834   4.199  21.199  0.00  0.00    +0.000 C 
BRANCH  20  21
ATOM     21  C   UNL     1       2.259   2.719  21.142  0.00  0.00    +0.000 C 
BRANCH  21  22
ATOM     22  N   UNL     1       2.603   2.280  19.796  0.00  0.00    +0.000 N 
ATOM     23  C   UNL     1       3.850   2.199  19.292  0.00  0.00    +0.000 C 
ATOM     24  N   UNL     1       4.940   2.611  19.817  0.00  0.00    +0.000 NA
ATOM     25  N   UNL     1       3.869   1.596  18.089  0.00  0.00    +0.000 N 
ATOM     26  H   UNL     1       1.954   1.610  19.399  0.00  0.00    +0.000 HD
ATOM     27  H   UNL     1       4.749   3.066  20.707  0.00  0.00    +0.000 HD
ATOM     28  H   UNL     1       3.151   1.926  17.457  0.00  0.00    +0.000 HD
ATOM     29  H   UNL     1       4.788   1.713  17.668  0.00  0.00    +0.000 HD
ENDBRANCH  21  22
ENDBRANCH  20  21
ENDBRANCH   6  20
BRANCH   7  30
ATOM     30  C   UNL     1       2.949   6.071  17.561  0.00  0.00    +0.000 C 
BRANCH  30  31
ATOM     31  C   UNL     1       4.396   5.621  17.538  0.00  0.00    +0.000 A 
ATOM     32  C   UNL     1       5.364   5.999  18.477  0.00  0.00    +0.000 A 
ATOM     33  C   UNL     1       6.671   5.498  18.390  0.00  0.00    +0.000 A 
ATOM     34  C   UNL     1       7.012   4.622  17.364  0.00  0.00    +0.000 A 
ATOM     35  C   UNL     1       6.078   4.258  16.408  0.00  0.00    +0.000 A 
ATOM     36  C   UNL     1       4.779   4.756  16.495  0.00  0.00    +0.000 A 
BRANCH  34  37
ATOM     37  O   UNL     1       8.263   4.088  17.261  0.00  0.00    +0.000 OA
ATOM     38  H   UNL     1       8.390   3.460  17.990  0.00  0.00    +0.000 HD
ENDBRANCH  34  37
ENDBRANCH  30  31
ENDBRANCH   7  30
TORSDOF 9
ENDMDL
MODEL 2
REMARK VINA RESULT:      -8.8      0.553      1.013
REMARK  Name = 
REMARK  10 active torsions:
REMARK  status: ('A' for Active; 'I' for Inactive)
REMARK    1  A    between atoms: C_1  and  O_2
REMARK    2  A    between atoms: O_2  and  C_3
REMARK    3  A    between atoms: C_6  and  C_7
REMARK    4  A    between atoms: C_7  and  N_8
REMARK    5  A    between atoms: N_13  and  C_14
REMARK    6  A    between atoms: C_14  and  C_15
REMARK    7  A    between atoms: C_15  and  N_16
REMARK    8  A    between atoms: N_20  and  C_21
REMARK    9  A    between atoms: C_21  and  C_22
REMARK   10  A    between atoms: C_25  and  O_26
REMARK                            x       y       z     vdW  Elec       q    Type
REMARK                         _______ _______ _______ _____ _____    ______ ____
ROOT
ATOM      1  N   UNL     1       1.474   9.135  19.470  0.00  0.00    +0.000 N 
ATOM      2  C   UNL     1       1.320   8.549  20.703  0.00  0.00    +0.000 A 
ATOM      3  O   UNL     1       0.952   9.198  21.682  0.00  0.00    +0.000 OA
ATOM      4  N   UNL     1       1.595   7.218  20.830  0.00  0.00    +0.000 NA
ATOM      5  C   UNL     1       2.099   6.543  19.852  0.00  0.00    +0.000 A 
ATOM      6  N   UNL     1       2.342   5.199  19.999  0.00  0.00    +0.000 N 
ATOM      7  N   UNL     1       2.373   7.138  18.641  0.00  0.00    +0.000 N 
ATOM      8  C   UNL     1       2.060   8.467  18.425  0.00  0.00    +0.000 A 
ATOM      9  O   UNL     1       2.284   9.023  17.345  0.00  0.00    +0.000 OA
ATOM     10  H   UNL     1       3.186   4.829  19.558  0.00  0.00    +0.000 HD
ENDROOT
BRANCH   1  11
ATOM     11  C   UNL     1       1.091  10.530  19.296  0.00  0.00    +0.000 C 
BRANCH  11  15
ATOM     12  C   UNL     1      -3.062  11.149  18.167  0.00  0.00    +0.000 A 
ATOM     13  C   UNL     1      -2.509  11.844  19.245  0.00  0.00    +0.000 A 
ATOM     14  C   UNL     1      -1.174  11.639  19.619  0.00  0.00    +0.000 A 
ATOM     15  C   UNL     1      -0.370  10.718  18.929  0.00  0.00    +0.000 A 
ATOM     16  C   UNL     1      -0.948   9.996  17.874  0.00  0.00    +0.000 A 
ATOM     17  C   UNL     1      -2.281  10.215  17.495  0.00  0.00    +0.000 A 
BRANCH  12  19
ATOM     18  C   UNL     1      -5.062  12.193  18.888  0.00  0.00    +0.000 C 
ATOM     19  O   UNL     1      -4.378  11.432  17.900  0.00  0.00    +0.000 OA
ENDBRANCH  12  19
ENDBRANCH  11  15
ENDBRANCH   1  11
BRANCH   6  20
ATOM     20  C   UNL     1       1.875   4.424  21.143  0.00  0.00    +0.000 C 
BRANCH  20  21
ATOM     21  C   UNL     1       2.562   3.047  21.213  0.00  0.00    +0.000 C 
BRANCH  21  22
ATOM     22  N   UNL     1       2.735   2.433  19.903  0.00  0.00    +0.000 N 
ATOM     23  C   UNL     1       3.882   1.910  19.426  0.00  0.00    +0.000 C 
ATOM     24  N   UNL     1       5.049   1.970  19.943  0.00  0.00    +0.000 NA
ATOM     25  N   UNL     1       3.694   1.260  18.263  0.00  0.00    +0.000 N 
ATOM     26  H   UNL     1       1.898   1.992  19.536  0.00  0.00    +0.000 HD
ATOM     27  H   UNL     1       5.024   2.518  20.800  0.00  0.00    +0.000 HD
ATOM     28  H   UNL     1       3.123   1.768  17.599  0.00  0.00    +0.000 HD
ATOM     29  H   UNL     1       4.597   1.038  17.851  0.00  0.00    +0.000 HD
ENDBRANCH  21  22
ENDBRANCH  20  21
ENDBRANCH   6  20
BRANCH   7  30
ATOM     30  C   UNL     1       2.732   6.349  17.462  0.00  0.00    +0.000 C 
BRANCH  30  31
ATOM     31  C   UNL     1       4.182   5.936  17.310  0.00  0.00    +0.000 A 
ATOM     32  C   UNL     1       5.279   6.784  17.506  0.00  0.00    +0.000 A 
ATOM     33  C   UNL     1       6.587   6.295  17.377  0.00  0.00    +0.000 A 
ATOM     34  C   UNL     1       6.799   4.960  17.049  0.00  0.00    +0.000 A 
ATOM     35  C   UNL     1       5.729   4.109  16.823  0.00  0.00    +0.000 A 
ATOM     36  C   UNL     1       4.429   4.596  16.951  0.00  0.00    +0.000 A 
BRANCH  34  37
ATOM     37  O   UNL     1       8.054   4.437  16.944  0.00  0.00    +0.000 OA
ATOM     38  H   UNL     1       8.374   4.583  16.039  0.00  0.00    +0.000 HD
ENDBRANCH  34  37
ENDBRANCH  30  31
ENDBRANCH   7  30
TORSDOF 9
ENDMDL
MODEL 3
REMARK VINA RESULT:      -8.3      0.913      1.147
REMARK  Name = 
REMARK  10 active torsions:
REMARK  status: ('A' for Active; 'I' for Inactive)
REMARK    1  A    between atoms: C_1  and  O_2
REMARK    2  A    between atoms: O_2  and  C_3
REMARK    3  A    between atoms: C_6  and  C_7
REMARK    4  A    between atoms: C_7  and  N_8
REMARK    5  A    between atoms: N_13  and  C_14
REMARK    6  A    between atoms: C_14  and  C_15
REMARK    7  A    between atoms: C_15  and  N_16
REMARK    8  A    between atoms: N_20  and  C_21
REMARK    9  A    between atoms: C_21  and  C_22
REMARK   10  A    between atoms: C_25  and  O_26
REMARK                            x       y       z     vdW  Elec       q    Type
REMARK                         _______ _______ _______ _____ _____    ______ ____
ROOT
ATOM      1  N   UNL     1       1.591   8.839  19.340  0.00  0.00    +0.000 N 
ATOM      2  C   UNL     1       1.374   8.371  20.614  0.00  0.00    +0.000 A 
ATOM      3  O   UNL     1       1.000   9.117  21.518  0.00  0.00    +0.000 OA
ATOM      4  N   UNL     1       1.592   7.048  20.867  0.00  0.00    +0.000 NA
ATOM      5  C   UNL     1       2.101   6.271  19.970  0.00  0.00    +0.000 A 
ATOM      6  N   UNL     1       2.288   4.937  20.243  0.00  0.00    +0.000 N 
ATOM      7  N   UNL     1       2.438   6.746  18.722  0.00  0.00    +0.000 N 
ATOM      8  C   UNL     1       2.184   8.060  18.380  0.00  0.00    +0.000 A 
ATOM      9  O   UNL     1       2.465   8.510  17.264  0.00  0.00    +0.000 OA
ATOM     10  H   UNL     1       3.130   4.499  19.866  0.00  0.00    +0.000 HD
ENDROOT
BRANCH   1  11
ATOM     11  C   UNL     1       1.268  10.226  19.031  0.00  0.00    +0.000 C 
BRANCH  11  15
ATOM     12  C   UNL     1      -2.961  10.797  18.197  0.00  0.00    +0.000 A 
ATOM     13  C   UNL     1      -2.203   9.901  17.438  0.00  0.00    +0.000 A 
ATOM     14  C   UNL     1      -0.837   9.723  17.697  0.00  0.00    +0.000 A 
ATOM     15  C   UNL     1      -0.199  10.453  18.712  0.00  0.00    +0.000 A 
ATOM     16  C   UNL     1      -0.961  11.378  19.440  0.00  0.00    +0.000 A 
ATOM     17  C   UNL     1      -2.331  11.543  19.187  0.00  0.00    +0.000 A 
BRANCH  12  19
ATOM     18  C   UNL     1      -4.565  11.609  16.656  0.00  0.00    +0.000 C 
ATOM     19  O   UNL     1      -4.285  10.886  17.847  0.00  0.00    +0.000 OA
ENDBRANCH  12  19
ENDBRANCH  11  15
ENDBRANCH   1  11
BRANCH   6  20
ATOM     20  C   UNL     1       1.754   4.284  21.433  0.00  0.00    +0.000 C 
BRANCH  20  21
ATOM     21  C   UNL     1       1.524   2.779  21.198  0.00  0.00    +0.000 C 
BRANCH  21  22
ATOM     22  N   UNL     1       2.141   2.297  19.969  0.00  0.00    +0.000 N 
ATOM     23  C   UNL     1       1.532   2.200  18.771  0.00  0.00    +0.000 C 
ATOM     24  N   UNL     1       0.294   2.366  18.502  0.00  0.00    +0.000 NA
ATOM     25  N   UNL     1       2.398   1.891  17.789  0.00  0.00    +0.000 N 
ATOM     26  H   UNL     1       3.139   2.466  19.911  0.00  0.00    +0.000 HD
ATOM     27  H   UNL     1      -0.226   2.565  19.354  0.00  0.00    +0.000 HD
ATOM     28  H   UNL     1       3.036   1.143  18.029  0.00  0.00    +0.000 HD
ATOM     29  H   UNL     1       1.880   1.654  16.946  0.00  0.00    +0.000 HD
ENDBRANCH  21  22
ENDBRANCH  20  21
ENDBRANCH   6  20
BRANCH   7  30
ATOM     30  C   UNL     1       2.804   5.842  17.630  0.00  0.00    +0.000 C 
BRANCH  30  31
ATOM     31  C   UNL     1       4.258   5.429  17.521  0.00  0.00    +0.000 A 
ATOM     32  C   UNL     1       4.984   4.789  18.532  0.00  0.00    +0.000 A 
ATOM     33  C   UNL     1       6.318   4.413  18.319  0.00  0.00    +0.000 A 
ATOM     34  C   UNL     1       6.928   4.679  17.097  0.00  0.00    +0.000 A 
ATOM     35  C   UNL     1       6.237   5.336  16.092  0.00  0.00    +0.000 A 
ATOM     36  C   UNL     1       4.911   5.710  16.304  0.00  0.00    +0.000 A 
BRANCH  34  37
ATOM     37  O   UNL     1       8.213   4.303  16.838  0.00  0.00    +0.000 OA
ATOM     38  H   UNL     1       8.204   3.661  16.110  0.00  0.00    +0.000 HD
ENDBRANCH  34  37
ENDBRANCH  30  31
ENDBRANCH   7  30
TORSDOF 9
ENDMDL
MODEL 4
REMARK VINA RESULT:      -8.2      0.649      1.400
REMARK  Name = 
REMARK  10 active torsions:
REMARK  status: ('A' for Active; 'I' for Inactive)
REMARK    1  A    between atoms: C_1  and  O_2
REMARK    2  A    between atoms: O_2  and  C_3
REMARK    3  A    between atoms: C_6  and  C_7
REMARK    4  A    between atoms: C_7  and  N_8
REMARK    5  A    between atoms: N_13  and  C_14
REMARK    6  A    between atoms: C_14  and  C_15
REMARK    7  A    between atoms: C_15  and  N_16
REMARK    8  A    between atoms: N_20  and  C_21
REMARK    9  A    between atoms: C_21  and  C_22
REMARK   10  A    between atoms: C_25  and  O_26
REMARK                            x       y       z     vdW  Elec       q    Type
REMARK                         _______ _______ _______ _____ _____    ______ ____
ROOT
ATOM      1  N   UNL     1       1.495   9.220  19.499  0.00  0.00    +0.000 N 
ATOM      2  C   UNL     1       1.326   8.632  20.729  0.00  0.00    +0.000 A 
ATOM      3  O   UNL     1       0.994   9.290  21.715  0.00  0.00    +0.000 OA
ATOM      4  N   UNL     1       1.546   7.291  20.845  0.00  0.00    +0.000 NA
ATOM      5  C   UNL     1       2.014   6.602  19.858  0.00  0.00    +0.000 A 
ATOM      6  N   UNL     1       2.203   5.248  19.994  0.00  0.00    +0.000 N 
ATOM      7  N   UNL     1       2.303   7.194  18.649  0.00  0.00    +0.000 N 
ATOM      8  C   UNL     1       2.044   8.536  18.444  0.00  0.00    +0.000 A 
ATOM      9  O   UNL     1       2.282   9.090  17.366  0.00  0.00    +0.000 OA
ATOM     10  H   UNL     1       3.026   4.847  19.543  0.00  0.00    +0.000 HD
ENDROOT
BRANCH   1  11
ATOM     11  C   UNL     1       1.168  10.631  19.337  0.00  0.00    +0.000 C 
BRANCH  11  15
ATOM     12  C   UNL     1      -2.964  11.424  18.240  0.00  0.00    +0.000 A 
ATOM     13  C   UNL     1      -2.355  12.139  19.274  0.00  0.00    +0.000 A 
ATOM     14  C   UNL     1      -1.026  11.879  19.638  0.00  0.00    +0.000 A 
ATOM     15  C   UNL     1      -0.287  10.883  18.983  0.00  0.00    +0.000 A 
ATOM     16  C   UNL     1      -0.921  10.143  17.973  0.00  0.00    +0.000 A 
ATOM     17  C   UNL     1      -2.247  10.417  17.603  0.00  0.00    +0.000 A 
BRANCH  12  19
ATOM     18  C   UNL     1      -5.235  10.755  18.218  0.00  0.00    +0.000 C 
ATOM     19  O   UNL     1      -4.266  11.767  17.978  0.00  0.00    +0.000 OA
ENDBRANCH  12  19
ENDBRANCH  11  15
ENDBRANCH   1  11
BRANCH   6  20
ATOM     20  C   UNL     1       1.713   4.485  21.137  0.00  0.00    +0.000 C 
BRANCH  20  21
ATOM     21  C   UNL     1       1.835   2.968  20.899  0.00  0.00    +0.000 C 
BRANCH  21  22
ATOM     22  N   UNL     1       3.216   2.525  20.763  0.00  0.00    +0.000 N 
ATOM     23  C   UNL     1       3.744   1.921  19.680  0.00  0.00    +0.000 C 
ATOM     24  N   UNL     1       3.135   1.495  18.641  0.00  0.00    +0.000 NA
ATOM     25  N   UNL     1       5.080   1.788  19.778  0.00  0.00    +0.000 N 
ATOM     26  H   UNL     1       3.883   3.074  21.294  0.00  0.00    +0.000 HD
ATOM     27  H   UNL     1       2.132   1.645  18.737  0.00  0.00    +0.000 HD
ATOM     28  H   UNL     1       5.390   1.445  20.679  0.00  0.00    +0.000 HD
ATOM     29  H   UNL     1       5.412   1.178  19.036  0.00  0.00    +0.000 HD
ENDBRANCH  21  22
ENDBRANCH  20  21
ENDBRANCH   6  20
BRANCH   7  30
ATOM     30  C   UNL     1       2.619   6.399  17.461  0.00  0.00    +0.000 C 
BRANCH  30  31
ATOM     31  C   UNL     1       4.009   5.801  17.368  0.00  0.00    +0.000 A 
ATOM     32  C   UNL     1       4.285   4.471  17.026  0.00  0.00    +0.000 A 
ATOM     33  C   UNL     1       5.610   4.023  16.931  0.00  0.00    +0.000 A 
ATOM     34  C   UNL     1       6.659   4.902  17.180  0.00  0.00    +0.000 A 
ATOM     35  C   UNL     1       6.410   6.214  17.547  0.00  0.00    +0.000 A 
ATOM     36  C   UNL     1       5.092   6.659  17.642  0.00  0.00    +0.000 A 
BRANCH  34  37
ATOM     37  O   UNL     1       7.963   4.515  17.068  0.00  0.00    +0.000 OA
ATOM     38  H   UNL     1       8.088   3.702  17.583  0.00  0.00    +0.000 HD
ENDBRANCH  34  37
ENDBRANCH  30  31
ENDBRANCH   7  30
TORSDOF 9
ENDMDL
MODEL 5
REMARK VINA RESULT:      -8.1      0.776      1.358
REMARK  Name = 
REMARK  10 active torsions:
REMARK  status: ('A' for Active; 'I' for Inactive)
REMARK    1  A    between atoms: C_1  and  O_2
REMARK    2  A    between atoms: O_2  and  C_3
REMARK    3  A    between atoms: C_6  and  C_7
REMARK    4  A    between atoms: C_7  and  N_8
REMARK    5  A    between atoms: N_13  and  C_14
REMARK    6  A    between atoms: C_14  and  C_15
REMARK    7  A    between atoms: C_15  and  N_16
REMARK    8  A    between atoms: N_20  and  C_21
REMARK    9  A    between atoms: C_21  and  C_22
REMARK   10  A    between atoms: C_25  and  O_26
REMARK                            x       y       z     vdW  Elec       q    Type
REMARK                         _______ _______ _______ _____ _____    ______ ____
ROOT
ATOM      1  N   UNL     1       1.709   8.765  19.725  0.00  0.00    +0.000 N 
ATOM      2  C   UNL     1       1.391   8.086  20.877  0.00  0.00    +0.000 A 
ATOM      3  O   UNL     1       0.987   8.675  21.879  0.00  0.00    +0.000 OA
ATOM      4  N   UNL     1       1.543   6.730  20.896  0.00  0.00    +0.000 NA
ATOM      5  C   UNL     1       2.081   6.104  19.903  0.00  0.00    +0.000 A 
ATOM      6  N   UNL     1       2.199   4.735  19.938  0.00  0.00    +0.000 N 
ATOM      7  N   UNL     1       2.516   6.779  18.785  0.00  0.00    +0.000 N 
ATOM      8  C   UNL     1       2.334   8.144  18.674  0.00  0.00    +0.000 A 
ATOM      9  O   UNL     1       2.704   8.773  17.677  0.00  0.00    +0.000 OA
ATOM     10  H   UNL     1       3.047   4.332  19.536  0.00  0.00    +0.000 HD
ENDROOT
BRANCH   1  11
ATOM     11  C   UNL     1       1.459  10.199  19.657  0.00  0.00    +0.000 C 
BRANCH  11  15
ATOM     12  C   UNL     1      -2.238  11.220  17.606  0.00  0.00    +0.000 A 
ATOM     13  C   UNL     1      -1.417  12.222  18.130  0.00  0.00    +0.000 A 
ATOM     14  C   UNL     1      -0.230  11.896  18.801  0.00  0.00    +0.000 A 
ATOM     15  C   UNL     1       0.149  10.557  18.977  0.00  0.00    +0.000 A 
ATOM     16  C   UNL     1      -0.703   9.558  18.482  0.00  0.00    +0.000 A 
ATOM     17  C   UNL     1      -1.883   9.889  17.798  0.00  0.00    +0.000 A 
BRANCH  12  19
ATOM     18  C   UNL     1      -3.717  10.987  15.772  0.00  0.00    +0.000 C 
ATOM     19  O   UNL     1      -3.372  11.663  16.974  0.00  0.00    +0.000 OA
ENDBRANCH  12  19
ENDBRANCH  11  15
ENDBRANCH   1  11
BRANCH   6  20
ATOM     20  C   UNL     1       1.564   3.905  20.955  0.00  0.00    +0.000 C 
BRANCH  20  21
ATOM     21  C   UNL     1       1.872   2.411  20.741  0.00  0.00    +0.000 C 
BRANCH  21  22
ATOM     22  N   UNL     1       2.461   2.136  19.437  0.00  0.00    +0.000 N 
ATOM     23  C   UNL     1       3.780   2.050  19.173  0.00  0.00    +0.000 C 
ATOM     24  N   UNL     1       4.757   2.326  19.949  0.00  0.00    +0.000 NA
ATOM     25  N   UNL     1       4.017   1.613  17.923  0.00  0.00    +0.000 N 
ATOM     26  H   UNL     1       1.883   1.563  18.832  0.00  0.00    +0.000 HD
ATOM     27  H   UNL     1       4.409   2.670  20.842  0.00  0.00    +0.000 HD
ATOM     28  H   UNL     1       3.447   2.064  17.219  0.00  0.00    +0.000 HD
ATOM     29  H   UNL     1       5.004   1.732  17.706  0.00  0.00    +0.000 HD
ENDBRANCH  21  22
ENDBRANCH  20  21
ENDBRANCH   6  20
BRANCH   7  30
ATOM     30  C   UNL     1       2.919   6.070  17.569  0.00  0.00    +0.000 C 
BRANCH  30  31
ATOM     31  C   UNL     1       4.311   5.474  17.535  0.00  0.00    +0.000 A 
ATOM     32  C   UNL     1       4.839   4.738  16.466  0.00  0.00    +0.000 A 
ATOM     33  C   UNL     1       6.155   4.258  16.516  0.00  0.00    +0.000 A 
ATOM     34  C   UNL     1       6.944   4.510  17.634  0.00  0.00    +0.000 A 
ATOM     35  C   UNL     1       6.434   5.211  18.715  0.00  0.00    +0.000 A 
ATOM     36  C   UNL     1       5.125   5.688  18.665  0.00  0.00    +0.000 A 
BRANCH  34  37
ATOM     37  O   UNL     1       8.239   4.088  17.710  0.00  0.00    +0.000 OA
ATOM     38  H   UNL     1       8.801   4.855  17.905  0.00  0.00    +0.000 HD
ENDBRANCH  34  37
ENDBRANCH  30  31
ENDBRANCH   7  30
TORSDOF 9
ENDMDL
MODEL 6
REMARK VINA RESULT:      -7.8      0.891      1.292
REMARK  Name = 
REMARK  10 active torsions:
REMARK  status: ('A' for Active; 'I' for Inactive)
REMARK    1  A    between atoms: C_1  and  O_2
REMARK    2  A    between atoms: O_2  and  C_3
REMARK    3  A    between atoms: C_6  and  C_7
REMARK    4  A    between atoms: C_7  and  N_8
REMARK    5  A    between atoms: N_13  and  C_14
REMARK    6  A    between atoms: C_14  and  C_15
REMARK    7  A    between atoms: C_15  and  N_16
REMARK    8  A    between atoms: N_20  and  C_21
REMARK    9  A    between atoms: C_21  and  C_22
REMARK   10  A    between atoms: C_25  and  O_26
REMARK                            x       y       z     vdW  Elec       q    Type
REMARK                         _______ _______ _______ _____ _____    ______ ____
ROOT
ATOM      1  N   UNL     1       1.513   9.081  19.907  0.00  0.00    +0.000 N 
ATOM      2  C   UNL     1       1.347   8.333  21.048  0.00  0.00    +0.000 A 
ATOM      3  O   UNL     1       1.005   8.851  22.111  0.00  0.00    +0.000 OA
ATOM      4  N   UNL     1       1.580   6.991  20.985  0.00  0.00    +0.000 NA
ATOM      5  C   UNL     1       2.058   6.444  19.918  0.00  0.00    +0.000 A 
ATOM      6  N   UNL     1       2.260   5.086  19.874  0.00  0.00    +0.000 N 
ATOM      7  N   UNL     1       2.344   7.194  18.799  0.00  0.00    +0.000 N 
ATOM      8  C   UNL     1       2.072   8.548  18.773  0.00  0.00    +0.000 A 
ATOM      9  O   UNL     1       2.307   9.243  17.779  0.00  0.00    +0.000 OA
ATOM     10  H   UNL     1       3.089   4.756  19.376  0.00  0.00    +0.000 HD
ENDROOT
BRANCH   1  11
ATOM     11  C   UNL     1       1.172  10.498  19.933  0.00  0.00    +0.000 C 
BRANCH  11  15
ATOM     12  C   UNL     1      -2.485  11.499  17.804  0.00  0.00    +0.000 A 
ATOM     13  C   UNL     1      -2.260  10.196  18.253  0.00  0.00    +0.000 A 
ATOM     14  C   UNL     1      -1.077   9.867  18.930  0.00  0.00    +0.000 A 
ATOM     15  C   UNL     1      -0.088  10.835  19.155  0.00  0.00    +0.000 A 
ATOM     16  C   UNL     1      -0.307  12.132  18.664  0.00  0.00    +0.000 A 
ATOM     17  C   UNL     1      -1.498  12.460  17.999  0.00  0.00    +0.000 A 
BRANCH  12  19
ATOM     18  C   UNL     1      -4.772  10.917  17.613  0.00  0.00    +0.000 C 
ATOM     19  O   UNL     1      -3.677  11.697  17.153  0.00  0.00    +0.000 OA
ENDBRANCH  12  19
ENDBRANCH  11  15
ENDBRANCH   1  11
BRANCH   6  20
ATOM     20  C   UNL     1       1.776   4.173  20.902  0.00  0.00    +0.000 C 
BRANCH  20  21
ATOM     21  C   UNL     1       1.360   2.815  20.305  0.00  0.00    +0.000 C 
BRANCH  21  22
ATOM     22  N   UNL     1       2.498   2.004  19.895  0.00  0.00    +0.000 N 
ATOM     23  C   UNL     1       2.811   1.674  18.626  0.00  0.00    +0.000 C 
ATOM     24  N   UNL     1       2.121   1.872  17.569  0.00  0.00    +0.000 NA
ATOM     25  N   UNL     1       4.010   1.069  18.543  0.00  0.00    +0.000 N 
ATOM     26  H   UNL     1       3.301   2.072  20.512  0.00  0.00    +0.000 HD
ATOM     27  H   UNL     1       1.234   2.311  17.807  0.00  0.00    +0.000 HD
ATOM     28  H   UNL     1       4.152   0.350  19.242  0.00  0.00    +0.000 HD
ATOM     29  H   UNL     1       4.127   0.680  17.611  0.00  0.00    +0.000 HD
ENDBRANCH  21  22
ENDBRANCH  20  21
ENDBRANCH   6  20
BRANCH   7  30
ATOM     30  C   UNL     1       2.672   6.567  17.517  0.00  0.00    +0.000 C 
BRANCH  30  31
ATOM     31  C   UNL     1       4.045   5.943  17.374  0.00  0.00    +0.000 A 
ATOM     32  C   UNL     1       4.283   4.608  17.024  0.00  0.00    +0.000 A 
ATOM     33  C   UNL     1       5.596   4.135  16.881  0.00  0.00    +0.000 A 
ATOM     34  C   UNL     1       6.670   4.994  17.089  0.00  0.00    +0.000 A 
ATOM     35  C   UNL     1       6.458   6.311  17.463  0.00  0.00    +0.000 A 
ATOM     36  C   UNL     1       5.154   6.781  17.606  0.00  0.00    +0.000 A 
BRANCH  34  37
ATOM     37  O   UNL     1       7.960   4.583  16.930  0.00  0.00    +0.000 OA
ATOM     38  H   UNL     1       8.297   4.941  16.093  0.00  0.00    +0.000 HD
ENDBRANCH  34  37
ENDBRANCH  30  31
ENDBRANCH   7  30
TORSDOF 9
ENDMDL
MODEL 7
REMARK VINA RESULT:      -7.6      2.340      3.547
REMARK  Name = 
REMARK  10 active torsions:
REMARK  status: ('A' for Active; 'I' for Inactive)
REMARK    1  A    between atoms: C_1  and  O_2
REMARK    2  A    between atoms: O_2  and  C_3
REMARK    3  A    between atoms: C_6  and  C_7
REMARK    4  A    between atoms: C_7  and  N_8
REMARK    5  A    between atoms: N_13  and  C_14
REMARK    6  A    between atoms: C_14  and  C_15
REMARK    7  A    between atoms: C_15  and  N_16
REMARK    8  A    between atoms: N_20  and  C_21
REMARK    9  A    between atoms: C_21  and  C_22
REMARK   10  A    between atoms: C_25  and  O_26
REMARK                            x       y       z     vdW  Elec       q    Type
REMARK                         _______ _______ _______ _____ _____    ______ ____
ROOT
ATOM      1  N   UNL     1       1.184   9.322  19.341  0.00  0.00    +0.000 N 
ATOM      2  C   UNL     1       1.179   8.766  20.598  0.00  0.00    +0.000 A 
ATOM      3  O   UNL     1       0.746   9.381  21.571  0.00  0.00    +0.000 OA
ATOM      4  N   UNL     1       1.679   7.506  20.753  0.00  0.00    +0.000 NA
ATOM      5  C   UNL     1       2.251   6.888  19.774  0.00  0.00    +0.000 A 
ATOM      6  N   UNL     1       2.724   5.610  19.951  0.00  0.00    +0.000 N 
ATOM      7  N   UNL     1       2.373   7.474  18.534  0.00  0.00    +0.000 N 
ATOM      8  C   UNL     1       1.832   8.723  18.292  0.00  0.00    +0.000 A 
ATOM      9  O   UNL     1       1.917   9.267  17.186  0.00  0.00    +0.000 OA
ATOM     10  H   UNL     1       3.599   5.370  19.483  0.00  0.00    +0.000 HD
ENDROOT
BRANCH   1  11
ATOM     11  C   UNL     1       0.564  10.626  19.142  0.00  0.00    +0.000 C 
BRANCH  11  15
ATOM     12  C   UNL     1       3.227  14.031  19.613  0.00  0.00    +0.000 A 
ATOM     13  C   UNL     1       3.115  13.383  18.381  0.00  0.00    +0.000 A 
ATOM     14  C   UNL     1       2.266  12.278  18.228  0.00  0.00    +0.000 A 
ATOM     15  C   UNL     1       1.524  11.789  19.314  0.00  0.00    +0.000 A 
ATOM     16  C   UNL     1       1.675  12.423  20.557  0.00  0.00    +0.000 A 
ATOM     17  C   UNL     1       2.516  13.537  20.701  0.00  0.00    +0.000 A 
BRANCH  12  19
ATOM     18  C   UNL     1       4.622  15.496  18.382  0.00  0.00    +0.000 C 
ATOM     19  O   UNL     1       4.090  15.097  19.638  0.00  0.00    +0.000 OA
ENDBRANCH  12  19
ENDBRANCH  11  15
ENDBRANCH   1  11
BRANCH   6  20
ATOM     20  C   UNL     1       2.440   4.812  21.138  0.00  0.00    +0.000 C 
BRANCH  20  21
ATOM     21  C   UNL     1       1.381   3.730  20.853  0.00  0.00    +0.000 C 
BRANCH  21  22
ATOM     22  N   UNL     1       1.871   2.674  19.977  0.00  0.00    +0.000 N 
ATOM     23  C   UNL     1       1.810   2.679  18.630  0.00  0.00    +0.000 C 
ATOM     24  N   UNL     1       1.203   3.511  17.873  0.00  0.00    +0.000 NA
ATOM     25  N   UNL     1       2.498   1.656  18.090  0.00  0.00    +0.000 N 
ATOM     26  H   UNL     1       2.658   2.156  20.351  0.00  0.00    +0.000 HD
ATOM     27  H   UNL     1       0.710   4.202  18.436  0.00  0.00    +0.000 HD
ATOM     28  H   UNL     1       2.328   0.767  18.543  0.00  0.00    +0.000 HD
ATOM     29  H   UNL     1       2.282   1.592  17.099  0.00  0.00    +0.000 HD
ENDBRANCH  21  22
ENDBRANCH  20  21
ENDBRANCH   6  20
BRANCH   7  30
ATOM     30  C   UNL     1       2.813   6.712  17.364  0.00  0.00    +0.000 C 
BRANCH  30  31
ATOM     31  C   UNL     1       4.244   6.212  17.352  0.00  0.00    +0.000 A 
ATOM     32  C   UNL     1       5.366   6.996  17.648  0.00  0.00    +0.000 A 
ATOM     33  C   UNL     1       6.649   6.429  17.645  0.00  0.00    +0.000 A 
ATOM     34  C   UNL     1       6.811   5.081  17.342  0.00  0.00    +0.000 A 
ATOM     35  C   UNL     1       5.718   4.294  17.018  0.00  0.00    +0.000 A 
ATOM     36  C   UNL     1       4.443   4.858  17.022  0.00  0.00    +0.000 A 
BRANCH  34  37
ATOM     37  O   UNL     1       8.037   4.483  17.358  0.00  0.00    +0.000 OA
ATOM     38  H   UNL     1       8.615   4.950  16.734  0.00  0.00    +0.000 HD
ENDBRANCH  34  37
ENDBRANCH  30  31
ENDBRANCH   7  30
TORSDOF 9
ENDMDL
MODEL 8
REMARK VINA RESULT:      -7.5      2.286      4.059
REMARK  Name = 
REMARK  10 active torsions:
REMARK  status: ('A' for Active; 'I' for Inactive)
REMARK    1  A    between atoms: C_1  and  O_2
REMARK    2  A    between atoms: O_2  and  C_3
REMARK    3  A    between atoms: C_6  and  C_7
REMARK    4  A    between atoms: C_7  and  N_8
REMARK    5  A    between atoms: N_13  and  C_14
REMARK    6  A    between atoms: C_14  and  C_15
REMARK    7  A    between atoms: C_15  and  N_16
REMARK    8  A    between atoms: N_20  and  C_21
REMARK    9  A    between atoms: C_21  and  C_22
REMARK   10  A    between atoms: C_25  and  O_26
REMARK                            x       y       z     vdW  Elec       q    Type
REMARK                         _______ _______ _______ _____ _____    ______ ____
ROOT
ATOM      1  N   UNL     1       1.575   9.657  19.254  0.00  0.00    +0.000 N 
ATOM      2  C   UNL     1       2.205   9.864  18.051  0.00  0.00    +0.000 A 
ATOM      3  O   UNL     1       2.054  10.908  17.417  0.00  0.00    +0.000 OA
ATOM      4  N   UNL     1       3.006   8.876  17.557  0.00  0.00    +0.000 NA
ATOM      5  C   UNL     1       3.084   7.725  18.139  0.00  0.00    +0.000 A 
ATOM      6  N   UNL     1       3.917   6.757  17.634  0.00  0.00    +0.000 N 
ATOM      7  N   UNL     1       2.368   7.454  19.283  0.00  0.00    +0.000 N 
ATOM      8  C   UNL     1       1.588   8.432  19.871  0.00  0.00    +0.000 A 
ATOM      9  O   UNL     1       0.944   8.220  20.904  0.00  0.00    +0.000 OA
ATOM     10  H   UNL     1       3.585   5.792  17.675  0.00  0.00    +0.000 HD
ENDROOT
BRANCH   1  11
ATOM     11  C   UNL     1       0.796  10.740  19.842  0.00  0.00    +0.000 C 
BRANCH  11  15
ATOM     12  C   UNL     1      -3.211  11.113  18.195  0.00  0.00    +0.000 A 
ATOM     13  C   UNL     1      -2.344  10.119  17.734  0.00  0.00    +0.000 A 
ATOM     14  C   UNL     1      -1.048  10.002  18.255  0.00  0.00    +0.000 A 
ATOM     15  C   UNL     1      -0.588  10.893  19.236  0.00  0.00    +0.000 A 
ATOM     16  C   UNL     1      -1.452  11.913  19.662  0.00  0.00    +0.000 A 
ATOM     17  C   UNL     1      -2.754  12.016  19.148  0.00  0.00    +0.000 A 
BRANCH  12  19
ATOM     18  C   UNL     1      -4.465  11.222  16.190  0.00  0.00    +0.000 C 
ATOM     19  O   UNL     1      -4.450  11.127  17.608  0.00  0.00    +0.000 OA
ENDBRANCH  12  19
ENDBRANCH  11  15
ENDBRANCH   1  11
BRANCH   6  20
ATOM     20  C   UNL     1       4.890   7.011  16.579  0.00  0.00    +0.000 C 
BRANCH  20  21
ATOM     21  C   UNL     1       6.028   5.973  16.593  0.00  0.00    +0.000 C 
BRANCH  21  22
ATOM     22  N   UNL     1       6.918   6.123  17.737  0.00  0.00    +0.000 N 
ATOM     23  C   UNL     1       6.831   5.440  18.895  0.00  0.00    +0.000 C 
ATOM     24  N   UNL     1       5.900   4.653  19.276  0.00  0.00    +0.000 NA
ATOM     25  N   UNL     1       7.891   5.665  19.693  0.00  0.00    +0.000 N 
ATOM     26  H   UNL     1       7.862   6.403  17.494  0.00  0.00    +0.000 HD
ATOM     27  H   UNL     1       5.164   4.615  18.574  0.00  0.00    +0.000 HD
ATOM     28  H   UNL     1       8.146   6.641  19.767  0.00  0.00    +0.000 HD
ATOM     29  H   UNL     1       7.705   5.280  20.616  0.00  0.00    +0.000 HD
ENDBRANCH  21  22
ENDBRANCH  20  21
ENDBRANCH   6  20
BRANCH   7  30
ATOM     30  C   UNL     1       2.612   6.247  20.074  0.00  0.00    +0.000 C 
BRANCH  30  31
ATOM     31  C   UNL     1       2.008   4.949  19.577  0.00  0.00    +0.000 A 
ATOM     32  C   UNL     1       2.054   4.504  18.250  0.00  0.00    +0.000 A 
ATOM     33  C   UNL     1       1.495   3.268  17.896  0.00  0.00    +0.000 A 
ATOM     34  C   UNL     1       0.887   2.478  18.867  0.00  0.00    +0.000 A 
ATOM     35  C   UNL     1       0.805   2.911  20.180  0.00  0.00    +0.000 A 
ATOM     36  C   UNL     1       1.361   4.140  20.531  0.00  0.00    +0.000 A 
BRANCH  34  37
ATOM     37  O   UNL     1       0.359   1.255  18.572  0.00  0.00    +0.000 OA
ATOM     38  H   UNL     1       0.999   0.766  18.032  0.00  0.00    +0.000 HD
ENDBRANCH  34  37
ENDBRANCH  30  31
ENDBRANCH   7  30
TORSDOF 9
ENDMDL
MODEL 9
REMARK VINA RESULT:      -7.5      2.660      4.341
REMARK  Name = 
REMARK  10 active torsions:
REMARK  status: ('A' for Active; 'I' for Inactive)
REMARK    1  A    between atoms: C_1  and  O_2
REMARK    2  A    between atoms: O_2  and  C_3
REMARK    3  A    between atoms: C_6  and  C_7
REMARK    4  A    between atoms: C_7  and  N_8
REMARK    5  A    between atoms: N_13  and  C_14
REMARK    6  A    between atoms: C_14  and  C_15
REMARK    7  A    between atoms: C_15  and  N_16
REMARK    8  A    between atoms: N_20  and  C_21
REMARK    9  A    between atoms: C_21  and  C_22
REMARK   10  A    between atoms: C_25  and  O_26
REMARK                            x       y       z     vdW  Elec       q    Type
REMARK                         _______ _______ _______ _____ _____    ______ ____
ROOT
ATOM      1  N   UNL     1       1.404   9.737  19.162  0.00  0.00    +0.000 N 
ATOM      2  C   UNL     1       2.091   9.905  17.984  0.00  0.00    +0.000 A 
ATOM      3  O   UNL     1       1.959  10.921  17.303  0.00  0.00    +0.000 OA
ATOM      4  N   UNL     1       2.926   8.909  17.570  0.00  0.00    +0.000 NA
ATOM      5  C   UNL     1       2.989   7.784  18.200  0.00  0.00    +0.000 A 
ATOM      6  N   UNL     1       3.856   6.807  17.776  0.00  0.00    +0.000 N 
ATOM      7  N   UNL     1       2.219   7.548  19.318  0.00  0.00    +0.000 N 
ATOM      8  C   UNL     1       1.400   8.537  19.827  0.00  0.00    +0.000 A 
ATOM      9  O   UNL     1       0.708   8.358  20.835  0.00  0.00    +0.000 OA
ATOM     10  H   UNL     1       3.533   5.840  17.839  0.00  0.00    +0.000 HD
ENDROOT
BRANCH   1  11
ATOM     11  C   UNL     1       0.585  10.832  19.667  0.00  0.00    +0.000 C 
BRANCH  11  15
ATOM     12  C   UNL     1      -3.402  10.974  17.938  0.00  0.00    +0.000 A 
ATOM     13  C   UNL     1      -2.476  10.021  17.507  0.00  0.00    +0.000 A 
ATOM     14  C   UNL     1      -1.186   9.979  18.055  0.00  0.00    +0.000 A 
ATOM     15  C   UNL     1      -0.793  10.905  19.033  0.00  0.00    +0.000 A 
ATOM     16  C   UNL     1      -1.718  11.883  19.429  0.00  0.00    +0.000 A 
ATOM     17  C   UNL     1      -3.013  11.911  18.888  0.00  0.00    +0.000 A 
BRANCH  12  19
ATOM     18  C   UNL     1      -5.696  11.554  18.015  0.00  0.00    +0.000 C 
ATOM     19  O   UNL     1      -4.629  10.916  17.327  0.00  0.00    +0.000 OA
ENDBRANCH  12  19
ENDBRANCH  11  15
ENDBRANCH   1  11
BRANCH   6  20
ATOM     20  C   UNL     1       4.878   7.033  16.760  0.00  0.00    +0.000 C 
BRANCH  20  21
ATOM     21  C   UNL     1       5.211   5.739  15.994  0.00  0.00    +0.000 C 
BRANCH  21  22
ATOM     22  N   UNL     1       6.437   5.843  15.214  0.00  0.00    +0.000 N 
ATOM     23  C   UNL     1       6.889   4.926  14.336  0.00  0.00    +0.000 C 
ATOM     24  N   UNL     1       6.433   3.752  14.119  0.00  0.00    +0.000 NA
ATOM     25  N   UNL     1       7.950   5.374  13.640  0.00  0.00    +0.000 N 
ATOM     26  H   UNL     1       6.709   6.794  14.991  0.00  0.00    +0.000 HD
ATOM     27  H   UNL     1       5.653   3.558  14.744  0.00  0.00    +0.000 HD
ATOM     28  H   UNL     1       8.649   5.830  14.212  0.00  0.00    +0.000 HD
ATOM     29  H   UNL     1       8.366   4.601  13.126  0.00  0.00    +0.000 HD
ENDBRANCH  21  22
ENDBRANCH  20  21
ENDBRANCH   6  20
BRANCH   7  30
ATOM     30  C   UNL     1       2.438   6.376  20.167  0.00  0.00    +0.000 C 
BRANCH  30  31
ATOM     31  C   UNL     1       1.891   5.048  19.683  0.00  0.00    +0.000 A 
ATOM     32  C   UNL     1       1.915   4.613  18.353  0.00  0.00    +0.000 A 
ATOM     33  C   UNL     1       1.415   3.348  18.011  0.00  0.00    +0.000 A 
ATOM     34  C   UNL     1       0.890   2.519  18.997  0.00  0.00    +0.000 A 
ATOM     35  C   UNL     1       0.830   2.941  20.316  0.00  0.00    +0.000 A 
ATOM     36  C   UNL     1       1.327   4.199  20.655  0.00  0.00    +0.000 A 
BRANCH  34  37
ATOM     37  O   UNL     1       0.422   1.270  18.713  0.00  0.00    +0.000 OA
ATOM     38  H   UNL     1       1.175   0.708  18.468  0.00  0.00    +0.000 HD
ENDBRANCH  34  37
ENDBRANCH  30  31
ENDBRANCH   7  30
TORSDOF 9
ENDMDL
