MODEL 1
REMARK VINA RESULT:      -7.3      0.000      0.000
REMARK  Name = 
REMARK  11 active torsions:
REMARK  status: ('A' for Active; 'I' for Inactive)
REMARK    1  A    between atoms: C_1  and  C_2
REMARK    2  A    between atoms: C_2  and  O_3
REMARK    3  A    between atoms: O_3  and  C_4
REMARK    4  A    between atoms: C_4  and  C_6
REMARK    5  A    between atoms: C_7  and  N_8
REMARK    6  A    between atoms: C_12  and  O_14
REMARK    7  A    between atoms: O_14  and  C_15
REMARK    8  A    between atoms: C_15  and  C_16
REMARK    9  A    between atoms: C_15  and  C_17
REMARK   10  A    between atoms: C_15  and  C_18
REMARK   11  A    between atoms: N_27  and  C_28
REMARK                            x       y       z     vdW  Elec       q    Type
REMARK                         _______ _______ _______ _____ _____    ______ ____
ROOT
ATOM      1  C   UNL     1      -1.017  11.635  20.705  0.00  0.00    +0.000 A 
ATOM      2  C   UNL     1      -0.755  10.789  19.676  0.00  0.00    +0.000 A 
ATOM      3  C   UNL     1      -1.757  10.717  18.557  0.00  0.00    +0.000 A 
ATOM      4  C   UNL     1      -1.524   9.909  17.425  0.00  0.00    +0.000 A 
ATOM      5  C   UNL     1      -2.429   9.790  16.376  0.00  0.00    +0.000 A 
ATOM      6  C   UNL     1      -3.585  10.541  16.405  0.00  0.00    +0.000 A 
ATOM      7  C   UNL     1      -3.828  11.386  17.488  0.00  0.00    +0.000 A 
ATOM      8  C   UNL     1      -2.936  11.480  18.575  0.00  0.00    +0.000 A 
ATOM      9  N   UNL     1      -3.186  12.320  19.686  0.00  0.00    +0.000 N 
ATOM     10  C   UNL     1      -4.393  13.121  19.811  0.00  0.00    +0.000 C 
ATOM     11  C   UNL     1      -2.315  12.388  20.768  0.00  0.00    +0.000 A 
ATOM     12  O   UNL     1      -2.627  13.034  21.770  0.00  0.00    +0.000 OA
ENDROOT
BRANCH   2  13
ATOM     13  N   UNL     1       0.379   9.969  19.497  0.00  0.00    +0.000 N 
ATOM     14  C   UNL     1       0.898   9.094  20.582  0.00  0.00    +0.000 C 
ATOM     15  C   UNL     1       1.319   7.726  20.009  0.00  0.00    +0.000 C 
ATOM     16  N   UNL     1       2.204   7.861  18.854  0.00  0.00    +0.000 N 
ATOM     17  C   UNL     1       3.231   6.958  18.730  0.00  0.00    +0.000 C 
ATOM     18  O   UNL     1       3.411   6.059  19.550  0.00  0.00    +0.000 OA
ATOM     19  C   UNL     1       1.776   8.815  17.819  0.00  0.00    +0.000 C 
ATOM     20  C   UNL     1       1.393  10.178  18.436  0.00  0.00    +0.000 C 
BRANCH  17  21
ATOM     21  O   UNL     1       4.041   7.186  17.662  0.00  0.00    +0.000 OA
BRANCH  21  22
ATOM     22  C   UNL     1       4.832   6.079  17.151  0.00  0.00    +0.000 C 
ATOM     23  C   UNL     1       4.021   4.776  17.121  0.00  0.00    +0.000 C 
ATOM     24  C   UNL     1       5.199   6.447  15.704  0.00  0.00    +0.000 C 
ATOM     25  C   UNL     1       6.144   5.932  17.941  0.00  0.00    +0.000 C 
ENDBRANCH  21  22
ENDBRANCH  17  21
ENDBRANCH   2  13
BRANCH   1  26
ATOM     26  C   UNL     1      -0.086  11.750  21.866  0.00  0.00    +0.000 C 
ATOM     27  O   UNL     1      -0.296  11.305  22.989  0.00  0.00    +0.000 OA
BRANCH  26  28
ATOM     28  O   UNL     1       1.021  12.477  21.546  0.00  0.00    +0.000 OA
BRANCH  28  30
ATOM     29  C   UNL     1       1.397  14.322  20.015  0.00  0.00    +0.000 C 
ATOM     30  C   UNL     1       0.802  13.882  21.346  0.00  0.00    +0.000 C 
ENDBRANCH  28  30
ENDBRANCH  26  28
ENDBRANCH   1  26
TORSDOF 6
ENDMDL
MODEL 2
REMARK VINA RESULT:      -7.2      2.429      8.655
REMARK  Name = 
REMARK  11 active torsions:
REMARK  status: ('A' for Active; 'I' for Inactive)
REMARK    1  A    between atoms: C_1  and  C_2
REMARK    2  A    between atoms: C_2  and  O_3
REMARK    3  A    between atoms: O_3  and  C_4
REMARK    4  A    between atoms: C_4  and  C_6
REMARK    5  A    between atoms: C_7  and  N_8
REMARK    6  A    between atoms: C_12  and  O_14
REMARK    7  A    between atoms: O_14  and  C_15
REMARK    8  A    between atoms: C_15  and  C_16
REMARK    9  A    between atoms: C_15  and  C_17
REMARK   10  A    between atoms: C_15  and  C_18
REMARK   11  A    between atoms: N_27  and  C_28
REMARK                            x       y       z     vdW  Elec       q    Type
REMARK                         _______ _______ _______ _____ _____    ______ ____
ROOT
ATOM      1  C   UNL     1       4.248   5.454  17.379  0.00  0.00    +0.000 A 
ATOM      2  C   UNL     1       3.232   5.792  18.214  0.00  0.00    +0.000 A 
ATOM      3  C   UNL     1       2.458   4.675  18.860  0.00  0.00    +0.000 A 
ATOM      4  C   UNL     1       1.430   4.947  19.786  0.00  0.00    +0.000 A 
ATOM      5  C   UNL     1       0.670   3.952  20.393  0.00  0.00    +0.000 A 
ATOM      6  C   UNL     1       0.967   2.633  20.128  0.00  0.00    +0.000 A 
ATOM      7  C   UNL     1       2.008   2.326  19.251  0.00  0.00    +0.000 A 
ATOM      8  C   UNL     1       2.755   3.328  18.600  0.00  0.00    +0.000 A 
ATOM      9  N   UNL     1       3.798   3.023  17.693  0.00  0.00    +0.000 N 
ATOM     10  C   UNL     1       4.156   1.660  17.336  0.00  0.00    +0.000 C 
ATOM     11  C   UNL     1       4.513   4.017  17.035  0.00  0.00    +0.000 A 
ATOM     12  O   UNL     1       5.327   3.712  16.161  0.00  0.00    +0.000 OA
ENDROOT
BRANCH   2  13
ATOM     13  N   UNL     1       2.815   7.085  18.592  0.00  0.00    +0.000 N 
ATOM     14  C   UNL     1       2.716   8.199  17.610  0.00  0.00    +0.000 C 
ATOM     15  C   UNL     1       1.443   9.028  17.869  0.00  0.00    +0.000 C 
ATOM     16  N   UNL     1       1.323   9.431  19.268  0.00  0.00    +0.000 N 
ATOM     17  C   UNL     1       0.827  10.685  19.530  0.00  0.00    +0.000 C 
ATOM     18  O   UNL     1       0.487  11.452  18.630  0.00  0.00    +0.000 OA
ATOM     19  C   UNL     1       1.538   8.373  20.268  0.00  0.00    +0.000 C 
ATOM     20  C   UNL     1       2.838   7.589  19.985  0.00  0.00    +0.000 C 
BRANCH  17  21
ATOM     21  O   UNL     1       0.800  11.004  20.851  0.00  0.00    +0.000 OA
BRANCH  21  22
ATOM     22  C   UNL     1      -0.462  11.436  21.428  0.00  0.00    +0.000 C 
ATOM     23  C   UNL     1      -0.803  10.634  22.692  0.00  0.00    +0.000 C 
ATOM     24  C   UNL     1      -0.267  12.906  21.834  0.00  0.00    +0.000 C 
ATOM     25  C   UNL     1      -1.590  11.386  20.384  0.00  0.00    +0.000 C 
ENDBRANCH  21  22
ENDBRANCH  17  21
ENDBRANCH   2  13
BRANCH   1  26
ATOM     26  C   UNL     1       5.052   6.500  16.679  0.00  0.00    +0.000 C 
ATOM     27  O   UNL     1       4.949   6.797  15.495  0.00  0.00    +0.000 OA
BRANCH  26  28
ATOM     28  O   UNL     1       5.977   7.055  17.512  0.00  0.00    +0.000 OA
BRANCH  28  30
ATOM     29  C   UNL     1       7.713   5.897  18.750  0.00  0.00    +0.000 C 
ATOM     30  C   UNL     1       7.301   6.508  17.417  0.00  0.00    +0.000 C 
ENDBRANCH  28  30
ENDBRANCH  26  28
ENDBRANCH   1  26
TORSDOF 6
ENDMDL
MODEL 3
REMARK VINA RESULT:      -7.0      0.716      1.691
REMARK  Name = 
REMARK  11 active torsions:
REMARK  status: ('A' for Active; 'I' for Inactive)
REMARK    1  A    between atoms: C_1  and  C_2
REMARK    2  A    between atoms: C_2  and  O_3
REMARK    3  A    between atoms: O_3  and  C_4
REMARK    4  A    between atoms: C_4  and  C_6
REMARK    5  A    between atoms: C_7  and  N_8
REMARK    6  A    between atoms: C_12  and  O_14
REMARK    7  A    between atoms: O_14  and  C_15
REMARK    8  A    between atoms: C_15  and  C_16
REMARK    9  A    between atoms: C_15  and  C_17
REMARK   10  A    between atoms: C_15  and  C_18
REMARK   11  A    between atoms: N_27  and  C_28
REMARK                            x       y       z     vdW  Elec       q    Type
REMARK                         _______ _______ _______ _____ _____    ______ ____
ROOT
ATOM      1  C   UNL     1      -0.906  11.805  20.588  0.00  0.00    +0.000 A 
ATOM      2  C   UNL     1      -0.693  10.897  19.601  0.00  0.00    +0.000 A 
ATOM      3  C   UNL     1      -1.752  10.754  18.542  0.00  0.00    +0.000 A 
ATOM      4  C   UNL     1      -1.574   9.878  17.452  0.00  0.00    +0.000 A 
ATOM      5  C   UNL     1      -2.533   9.691  16.461  0.00  0.00    +0.000 A 
ATOM      6  C   UNL     1      -3.690  10.439  16.506  0.00  0.00    +0.000 A 
ATOM      7  C   UNL     1      -3.881  11.349  17.546  0.00  0.00    +0.000 A 
ATOM      8  C   UNL     1      -2.933  11.512  18.577  0.00  0.00    +0.000 A 
ATOM      9  N   UNL     1      -3.130  12.419  19.646  0.00  0.00    +0.000 N 
ATOM     10  C   UNL     1      -4.335  13.222  19.785  0.00  0.00    +0.000 C 
ATOM     11  C   UNL     1      -2.204  12.556  20.673  0.00  0.00    +0.000 A 
ATOM     12  O   UNL     1      -2.467  13.262  21.649  0.00  0.00    +0.000 OA
ENDROOT
BRANCH   2  13
ATOM     13  N   UNL     1       0.435  10.072  19.412  0.00  0.00    +0.000 N 
ATOM     14  C   UNL     1       0.911   9.136  20.465  0.00  0.00    +0.000 C 
ATOM     15  C   UNL     1       1.331   7.793  19.835  0.00  0.00    +0.000 C 
ATOM     16  N   UNL     1       2.251   7.974  18.715  0.00  0.00    +0.000 N 
ATOM     17  C   UNL     1       3.270   7.064  18.573  0.00  0.00    +0.000 C 
ATOM     18  O   UNL     1       3.415   6.122  19.352  0.00  0.00    +0.000 OA
ATOM     19  C   UNL     1       1.866   8.985  17.718  0.00  0.00    +0.000 C 
ATOM     20  C   UNL     1       1.482  10.320  18.392  0.00  0.00    +0.000 C 
BRANCH  17  21
ATOM     21  O   UNL     1       4.113   7.334  17.542  0.00  0.00    +0.000 OA
BRANCH  21  22
ATOM     22  C   UNL     1       4.850   6.231  16.949  0.00  0.00    +0.000 C 
ATOM     23  C   UNL     1       5.201   6.516  15.483  0.00  0.00    +0.000 C 
ATOM     24  C   UNL     1       6.163   6.118  17.741  0.00  0.00    +0.000 C 
ATOM     25  C   UNL     1       4.087   4.906  17.120  0.00  0.00    +0.000 C 
ENDBRANCH  21  22
ENDBRANCH  17  21
ENDBRANCH   2  13
BRANCH   1  26
ATOM     26  C   UNL     1       0.084  11.994  21.689  0.00  0.00    +0.000 C 
ATOM     27  O   UNL     1       1.258  12.314  21.539  0.00  0.00    +0.000 OA
BRANCH  26  28
ATOM     28  O   UNL     1      -0.462  11.704  22.903  0.00  0.00    +0.000 OA
BRANCH  28  30
ATOM     29  C   UNL     1       0.134   9.463  23.619  0.00  0.00    +0.000 C 
ATOM     30  C   UNL     1      -0.956  10.364  23.055  0.00  0.00    +0.000 C 
ENDBRANCH  28  30
ENDBRANCH  26  28
ENDBRANCH   1  26
TORSDOF 6
ENDMDL
MODEL 4
REMARK VINA RESULT:      -6.8      4.493      5.761
REMARK  Name = 
REMARK  11 active torsions:
REMARK  status: ('A' for Active; 'I' for Inactive)
REMARK    1  A    between atoms: C_1  and  C_2
REMARK    2  A    between atoms: C_2  and  O_3
REMARK    3  A    between atoms: O_3  and  C_4
REMARK    4  A    between atoms: C_4  and  C_6
REMARK    5  A    between atoms: C_7  and  N_8
REMARK    6  A    between atoms: C_12  and  O_14
REMARK    7  A    between atoms: O_14  and  C_15
REMARK    8  A    between atoms: C_15  and  C_16
REMARK    9  A    between atoms: C_15  and  C_17
REMARK   10  A    between atoms: C_15  and  C_18
REMARK   11  A    between atoms: N_27  and  C_28
REMARK                            x       y       z     vdW  Elec       q    Type
REMARK                         _______ _______ _______ _____ _____    ______ ____
ROOT
ATOM      1  C   UNL     1      -4.397  12.629  21.098  0.00  0.00    +0.000 A 
ATOM      2  C   UNL     1      -3.309  12.537  20.292  0.00  0.00    +0.000 A 
ATOM      3  C   UNL     1      -3.499  11.933  18.927  0.00  0.00    +0.000 A 
ATOM      4  C   UNL     1      -2.430  11.861  18.010  0.00  0.00    +0.000 A 
ATOM      5  C   UNL     1      -2.548  11.291  16.747  0.00  0.00    +0.000 A 
ATOM      6  C   UNL     1      -3.779  10.825  16.339  0.00  0.00    +0.000 A 
ATOM      7  C   UNL     1      -4.870  10.921  17.203  0.00  0.00    +0.000 A 
ATOM      8  C   UNL     1      -4.749  11.459  18.501  0.00  0.00    +0.000 A 
ATOM      9  N   UNL     1      -5.848  11.540  19.389  0.00  0.00    +0.000 N 
ATOM     10  C   UNL     1      -7.173  11.045  19.050  0.00  0.00    +0.000 C 
ATOM     11  C   UNL     1      -5.715  12.047  20.677  0.00  0.00    +0.000 A 
ATOM     12  O   UNL     1      -6.664  11.986  21.463  0.00  0.00    +0.000 OA
ENDROOT
BRANCH   2  13
ATOM     13  N   UNL     1      -1.994  12.975  20.557  0.00  0.00    +0.000 N 
ATOM     14  C   UNL     1      -1.081  12.224  21.460  0.00  0.00    +0.000 C 
ATOM     15  C   UNL     1       0.343  12.191  20.871  0.00  0.00    +0.000 C 
ATOM     16  N   UNL     1       0.814  13.521  20.492  0.00  0.00    +0.000 N 
ATOM     17  C   UNL     1       2.135  13.818  20.719  0.00  0.00    +0.000 C 
ATOM     18  O   UNL     1       2.910  13.003  21.219  0.00  0.00    +0.000 OA
ATOM     19  C   UNL     1      -0.121  14.337  19.701  0.00  0.00    +0.000 C 
ATOM     20  C   UNL     1      -1.524  14.364  20.343  0.00  0.00    +0.000 C 
BRANCH  17  21
ATOM     21  O   UNL     1       2.480  15.091  20.392  0.00  0.00    +0.000 OA
BRANCH  21  22
ATOM     22  C   UNL     1       3.376  15.293  19.266  0.00  0.00    +0.000 C 
ATOM     23  C   UNL     1       3.223  14.179  18.221  0.00  0.00    +0.000 C 
ATOM     24  C   UNL     1       2.953  16.620  18.614  0.00  0.00    +0.000 C 
ATOM     25  C   UNL     1       4.830  15.450  19.742  0.00  0.00    +0.000 C 
ENDBRANCH  21  22
ENDBRANCH  17  21
ENDBRANCH   2  13
BRANCH   1  26
ATOM     26  C   UNL     1      -4.291  13.195  22.475  0.00  0.00    +0.000 C 
ATOM     27  O   UNL     1      -4.140  12.540  23.500  0.00  0.00    +0.000 OA
BRANCH  26  28
ATOM     28  O   UNL     1      -4.449  14.549  22.470  0.00  0.00    +0.000 OA
BRANCH  28  30
ATOM     29  C   UNL     1      -5.179  16.229  24.061  0.00  0.00    +0.000 C 
ATOM     30  C   UNL     1      -5.585  15.042  23.196  0.00  0.00    +0.000 C 
ENDBRANCH  28  30
ENDBRANCH  26  28
ENDBRANCH   1  26
TORSDOF 6
ENDMDL
MODEL 5
REMARK VINA RESULT:      -6.7      1.135      1.803
REMARK  Name = 
REMARK  11 active torsions:
REMARK  status: ('A' for Active; 'I' for Inactive)
REMARK    1  A    between atoms: C_1  and  C_2
REMARK    2  A    between atoms: C_2  and  O_3
REMARK    3  A    between atoms: O_3  and  C_4
REMARK    4  A    between atoms: C_4  and  C_6
REMARK    5  A    between atoms: C_7  and  N_8
REMARK    6  A    between atoms: C_12  and  O_14
REMARK    7  A    between atoms: O_14  and  C_15
REMARK    8  A    between atoms: C_15  and  C_16
REMARK    9  A    between atoms: C_15  and  C_17
REMARK   10  A    between atoms: C_15  and  C_18
REMARK   11  A    between atoms: N_27  and  C_28
REMARK                            x       y       z     vdW  Elec       q    Type
REMARK                         _______ _______ _______ _____ _____    ______ ____
ROOT
ATOM      1  C   UNL     1      -0.825  11.461  20.686  0.00  0.00    +0.000 A 
ATOM      2  C   UNL     1      -0.880  10.602  19.637  0.00  0.00    +0.000 A 
ATOM      3  C   UNL     1      -2.033  10.741  18.679  0.00  0.00    +0.000 A 
ATOM      4  C   UNL     1      -2.125   9.928  17.532  0.00  0.00    +0.000 A 
ATOM      5  C   UNL     1      -3.182  10.000  16.630  0.00  0.00    +0.000 A 
ATOM      6  C   UNL     1      -4.160  10.952  16.826  0.00  0.00    +0.000 A 
ATOM      7  C   UNL     1      -4.077  11.805  17.927  0.00  0.00    +0.000 A 
ATOM      8  C   UNL     1      -3.032  11.709  18.868  0.00  0.00    +0.000 A 
ATOM      9  N   UNL     1      -2.954  12.558  19.998  0.00  0.00    +0.000 N 
ATOM     10  C   UNL     1      -3.959  13.566  20.296  0.00  0.00    +0.000 C 
ATOM     11  C   UNL     1      -1.935  12.440  20.937  0.00  0.00    +0.000 A 
ATOM     12  O   UNL     1      -1.970  13.112  21.970  0.00  0.00    +0.000 OA
ENDROOT
BRANCH   2  13
ATOM     13  N   UNL     1       0.042   9.590  19.295  0.00  0.00    +0.000 N 
ATOM     14  C   UNL     1       0.582   9.450  17.916  0.00  0.00    +0.000 C 
ATOM     15  C   UNL     1       2.088   9.125  17.963  0.00  0.00    +0.000 C 
ATOM     16  N   UNL     1       2.383   8.006  18.854  0.00  0.00    +0.000 N 
ATOM     17  C   UNL     1       3.358   7.121  18.465  0.00  0.00    +0.000 C 
ATOM     18  O   UNL     1       3.975   7.255  17.409  0.00  0.00    +0.000 OA
ATOM     19  C   UNL     1       1.760   8.057  20.187  0.00  0.00    +0.000 C 
ATOM     20  C   UNL     1       0.248   8.356  20.088  0.00  0.00    +0.000 C 
BRANCH  17  21
ATOM     21  O   UNL     1       3.533   6.079  19.320  0.00  0.00    +0.000 OA
BRANCH  21  22
ATOM     22  C   UNL     1       2.960   4.792  18.962  0.00  0.00    +0.000 C 
ATOM     23  C   UNL     1       1.883   4.941  17.879  0.00  0.00    +0.000 C 
ATOM     24  C   UNL     1       4.111   3.957  18.379  0.00  0.00    +0.000 C 
ATOM     25  C   UNL     1       2.436   4.058  20.208  0.00  0.00    +0.000 C 
ENDBRANCH  21  22
ENDBRANCH  17  21
ENDBRANCH   2  13
BRANCH   1  26
ATOM     26  C   UNL     1       0.273  11.377  21.695  0.00  0.00    +0.000 C 
ATOM     27  O   UNL     1       0.152  10.954  22.839  0.00  0.00    +0.000 OA
BRANCH  26  28
ATOM     28  O   UNL     1       1.436  11.894  21.208  0.00  0.00    +0.000 OA
BRANCH  28  30
ATOM     29  C   UNL     1       2.721  13.721  20.260  0.00  0.00    +0.000 C 
ATOM     30  C   UNL     1       1.417  13.302  20.925  0.00  0.00    +0.000 C 
ENDBRANCH  28  30
ENDBRANCH  26  28
ENDBRANCH   1  26
TORSDOF 6
ENDMDL
MODEL 6
REMARK VINA RESULT:      -6.7      1.324      2.298
REMARK  Name = 
REMARK  11 active torsions:
REMARK  status: ('A' for Active; 'I' for Inactive)
REMARK    1  A    between atoms: C_1  and  C_2
REMARK    2  A    between atoms: C_2  and  O_3
REMARK    3  A    between atoms: O_3  and  C_4
REMARK    4  A    between atoms: C_4  and  C_6
REMARK    5  A    between atoms: C_7  and  N_8
REMARK    6  A    between atoms: C_12  and  O_14
REMARK    7  A    between atoms: O_14  and  C_15
REMARK    8  A    between atoms: C_15  and  C_16
REMARK    9  A    between atoms: C_15  and  C_17
REMARK   10  A    between atoms: C_15  and  C_18
REMARK   11  A    between atoms: N_27  and  C_28
REMARK                            x       y       z     vdW  Elec       q    Type
REMARK                         _______ _______ _______ _____ _____    ______ ____
ROOT
ATOM      1  C   UNL     1      -0.925  11.797  20.590  0.00  0.00    +0.000 A 
ATOM      2  C   UNL     1      -1.035  10.855  19.618  0.00  0.00    +0.000 A 
ATOM      3  C   UNL     1      -2.246  10.908  18.727  0.00  0.00    +0.000 A 
ATOM      4  C   UNL     1      -2.399  10.004  17.656  0.00  0.00    +0.000 A 
ATOM      5  C   UNL     1      -3.510   9.996  16.819  0.00  0.00    +0.000 A 
ATOM      6  C   UNL     1      -4.485  10.953  16.999  0.00  0.00    +0.000 A 
ATOM      7  C   UNL     1      -4.345  11.893  18.020  0.00  0.00    +0.000 A 
ATOM      8  C   UNL     1      -3.244  11.881  18.899  0.00  0.00    +0.000 A 
ATOM      9  N   UNL     1      -3.106  12.819  19.950  0.00  0.00    +0.000 N 
ATOM     10  C   UNL     1      -4.103  13.841  20.228  0.00  0.00    +0.000 C 
ATOM     11  C   UNL     1      -2.030  12.785  20.830  0.00  0.00    +0.000 A 
ATOM     12  O   UNL     1      -2.009  13.538  21.806  0.00  0.00    +0.000 OA
ENDROOT
BRANCH   2  13
ATOM     13  N   UNL     1      -0.123   9.826  19.302  0.00  0.00    +0.000 N 
ATOM     14  C   UNL     1       0.436   9.662  17.934  0.00  0.00    +0.000 C 
ATOM     15  C   UNL     1       1.936   9.315  18.008  0.00  0.00    +0.000 C 
ATOM     16  N   UNL     1       2.200   8.202  18.915  0.00  0.00    +0.000 N 
ATOM     17  C   UNL     1       3.168   7.298  18.551  0.00  0.00    +0.000 C 
ATOM     18  O   UNL     1       3.803   7.411  17.503  0.00  0.00    +0.000 OA
ATOM     19  C   UNL     1       1.557   8.277  20.237  0.00  0.00    +0.000 C 
ATOM     20  C   UNL     1       0.052   8.597  20.112  0.00  0.00    +0.000 C 
BRANCH  17  21
ATOM     21  O   UNL     1       3.313   6.263  19.419  0.00  0.00    +0.000 OA
BRANCH  21  22
ATOM     22  C   UNL     1       2.943   4.931  18.971  0.00  0.00    +0.000 C 
ATOM     23  C   UNL     1       2.355   4.097  20.117  0.00  0.00    +0.000 C 
ATOM     24  C   UNL     1       1.847   5.125  17.910  0.00  0.00    +0.000 C 
ATOM     25  C   UNL     1       4.132   4.231  18.290  0.00  0.00    +0.000 C 
ENDBRANCH  21  22
ENDBRANCH  17  21
ENDBRANCH   2  13
BRANCH   1  26
ATOM     26  C   UNL     1       0.233  11.803  21.532  0.00  0.00    +0.000 C 
ATOM     27  O   UNL     1       1.412  11.875  21.204  0.00  0.00    +0.000 OA
BRANCH  26  28
ATOM     28  O   UNL     1      -0.175  11.651  22.823  0.00  0.00    +0.000 OA
BRANCH  28  30
ATOM     29  C   UNL     1       0.146   9.362  23.561  0.00  0.00    +0.000 C 
ATOM     30  C   UNL     1      -0.855  10.421  23.117  0.00  0.00    +0.000 C 
ENDBRANCH  28  30
ENDBRANCH  26  28
ENDBRANCH   1  26
TORSDOF 6
ENDMDL
MODEL 7
REMARK VINA RESULT:      -6.7      4.386      5.787
REMARK  Name = 
REMARK  11 active torsions:
REMARK  status: ('A' for Active; 'I' for Inactive)
REMARK    1  A    between atoms: C_1  and  C_2
REMARK    2  A    between atoms: C_2  and  O_3
REMARK    3  A    between atoms: O_3  and  C_4
REMARK    4  A    between atoms: C_4  and  C_6
REMARK    5  A    between atoms: C_7  and  N_8
REMARK    6  A    between atoms: C_12  and  O_14
REMARK    7  A    between atoms: O_14  and  C_15
REMARK    8  A    between atoms: C_15  and  C_16
REMARK    9  A    between atoms: C_15  and  C_17
REMARK   10  A    between atoms: C_15  and  C_18
REMARK   11  A    between atoms: N_27  and  C_28
REMARK                            x       y       z     vdW  Elec       q    Type
REMARK                         _______ _______ _______ _____ _____    ______ ____
ROOT
ATOM      1  C   UNL     1      -4.028  13.336  20.500  0.00  0.00    +0.000 A 
ATOM      2  C   UNL     1      -2.841  12.908  19.999  0.00  0.00    +0.000 A 
ATOM      3  C   UNL     1      -2.874  11.843  18.937  0.00  0.00    +0.000 A 
ATOM      4  C   UNL     1      -1.687  11.393  18.324  0.00  0.00    +0.000 A 
ATOM      5  C   UNL     1      -1.661  10.394  17.356  0.00  0.00    +0.000 A 
ATOM      6  C   UNL     1      -2.854   9.854  16.925  0.00  0.00    +0.000 A 
ATOM      7  C   UNL     1      -4.052  10.307  17.477  0.00  0.00    +0.000 A 
ATOM      8  C   UNL     1      -4.083  11.288  18.489  0.00  0.00    +0.000 A 
ATOM      9  N   UNL     1      -5.295  11.737  19.067  0.00  0.00    +0.000 N 
ATOM     10  C   UNL     1      -6.593  11.199  18.692  0.00  0.00    +0.000 C 
ATOM     11  C   UNL     1      -5.316  12.686  20.083  0.00  0.00    +0.000 A 
ATOM     12  O   UNL     1      -6.378  12.960  20.647  0.00  0.00    +0.000 OA
ENDROOT
BRANCH   2  13
ATOM     13  N   UNL     1      -1.548  13.366  20.325  0.00  0.00    +0.000 N 
ATOM     14  C   UNL     1      -0.765  12.781  21.447  0.00  0.00    +0.000 C 
ATOM     15  C   UNL     1       0.712  12.615  21.038  0.00  0.00    +0.000 C 
ATOM     16  N   UNL     1       1.269  13.843  20.477  0.00  0.00    +0.000 N 
ATOM     17  C   UNL     1       2.569  14.155  20.793  0.00  0.00    +0.000 C 
ATOM     18  O   UNL     1       3.255  13.435  21.517  0.00  0.00    +0.000 OA
ATOM     19  C   UNL     1       0.456  14.513  19.450  0.00  0.00    +0.000 C 
ATOM     20  C   UNL     1      -1.006  14.683  19.915  0.00  0.00    +0.000 C 
BRANCH  17  21
ATOM     21  O   UNL     1       2.994  15.339  20.278  0.00  0.00    +0.000 OA
BRANCH  21  22
ATOM     22  C   UNL     1       4.033  15.315  19.263  0.00  0.00    +0.000 C 
ATOM     23  C   UNL     1       3.862  14.121  18.314  0.00  0.00    +0.000 C 
ATOM     24  C   UNL     1       3.863  16.604  18.444  0.00  0.00    +0.000 C 
ATOM     25  C   UNL     1       5.430  15.352  19.906  0.00  0.00    +0.000 C 
ENDBRANCH  21  22
ENDBRANCH  17  21
ENDBRANCH   2  13
BRANCH   1  26
ATOM     26  C   UNL     1      -4.084  14.374  21.572  0.00  0.00    +0.000 C 
ATOM     27  O   UNL     1      -4.192  15.580  21.384  0.00  0.00    +0.000 OA
BRANCH  26  28
ATOM     28  O   UNL     1      -3.936  13.820  22.808  0.00  0.00    +0.000 OA
BRANCH  28  30
ATOM     29  C   UNL     1      -5.664  12.754  24.137  0.00  0.00    +0.000 C 
ATOM     30  C   UNL     1      -5.009  14.068  23.729  0.00  0.00    +0.000 C 
ENDBRANCH  28  30
ENDBRANCH  26  28
ENDBRANCH   1  26
TORSDOF 6
ENDMDL
MODEL 8
REMARK VINA RESULT:      -6.7      4.500      5.893
REMARK  Name = 
REMARK  11 active torsions:
REMARK  status: ('A' for Active; 'I' for Inactive)
REMARK    1  A    between atoms: C_1  and  C_2
REMARK    2  A    between atoms: C_2  and  O_3
REMARK    3  A    between atoms: O_3  and  C_4
REMARK    4  A    between atoms: C_4  and  C_6
REMARK    5  A    between atoms: C_7  and  N_8
REMARK    6  A    between atoms: C_12  and  O_14
REMARK    7  A    between atoms: O_14  and  C_15
REMARK    8  A    between atoms: C_15  and  C_16
REMARK    9  A    between atoms: C_15  and  C_17
REMARK   10  A    between atoms: C_15  and  C_18
REMARK   11  A    between atoms: N_27  and  C_28
REMARK                            x       y       z     vdW  Elec       q    Type
REMARK                         _______ _______ _______ _____ _____    ______ ____
ROOT
ATOM      1  C   UNL     1      -4.401  12.662  20.675  0.00  0.00    +0.000 A 
ATOM      2  C   UNL     1      -3.236  12.530  19.990  0.00  0.00    +0.000 A 
ATOM      3  C   UNL     1      -3.284  11.836  18.656  0.00  0.00    +0.000 A 
ATOM      4  C   UNL     1      -2.128  11.717  17.858  0.00  0.00    +0.000 A 
ATOM      5  C   UNL     1      -2.115  11.063  16.630  0.00  0.00    +0.000 A 
ATOM      6  C   UNL     1      -3.297  10.557  16.133  0.00  0.00    +0.000 A 
ATOM      7  C   UNL     1      -4.470  10.697  16.875  0.00  0.00    +0.000 A 
ATOM      8  C   UNL     1      -4.483  11.320  18.139  0.00  0.00    +0.000 A 
ATOM      9  N   UNL     1      -5.666  11.446  18.906  0.00  0.00    +0.000 N 
ATOM     10  C   UNL     1      -6.948  10.914  18.469  0.00  0.00    +0.000 C 
ATOM     11  C   UNL     1      -5.667  12.038  20.164  0.00  0.00    +0.000 A 
ATOM     12  O   UNL     1      -6.689  12.018  20.853  0.00  0.00    +0.000 OA
ENDROOT
BRANCH   2  13
ATOM     13  N   UNL     1      -1.958  13.001  20.356  0.00  0.00    +0.000 N 
ATOM     14  C   UNL     1      -1.082  12.250  21.296  0.00  0.00    +0.000 C 
ATOM     15  C   UNL     1       0.378  12.279  20.804  0.00  0.00    +0.000 C 
ATOM     16  N   UNL     1       0.829  13.634  20.496  0.00  0.00    +0.000 N 
ATOM     17  C   UNL     1       2.122  13.965  20.820  0.00  0.00    +0.000 C 
ATOM     18  O   UNL     1       2.888  13.159  21.348  0.00  0.00    +0.000 OA
ATOM     19  C   UNL     1      -0.077  14.445  19.668  0.00  0.00    +0.000 C 
ATOM     20  C   UNL     1      -1.521  14.409  20.215  0.00  0.00    +0.000 C 
BRANCH  17  21
ATOM     21  O   UNL     1       2.445  15.258  20.554  0.00  0.00    +0.000 OA
BRANCH  21  22
ATOM     22  C   UNL     1       3.306  15.532  19.415  0.00  0.00    +0.000 C 
ATOM     23  C   UNL     1       2.783  16.715  18.590  0.00  0.00    +0.000 C 
ATOM     24  C   UNL     1       4.674  15.922  19.996  0.00  0.00    +0.000 C 
ATOM     25  C   UNL     1       3.505  14.268  18.561  0.00  0.00    +0.000 C 
ENDBRANCH  21  22
ENDBRANCH  17  21
ENDBRANCH   2  13
BRANCH   1  26
ATOM     26  C   UNL     1      -4.437  13.319  22.015  0.00  0.00    +0.000 C 
ATOM     27  O   UNL     1      -4.512  14.526  22.210  0.00  0.00    +0.000 OA
BRANCH  26  28
ATOM     28  O   UNL     1      -4.311  12.406  23.019  0.00  0.00    +0.000 OA
BRANCH  28  30
ATOM     29  C   UNL     1      -4.077  12.997  25.361  0.00  0.00    +0.000 C 
ATOM     30  C   UNL     1      -5.042  12.702  24.219  0.00  0.00    +0.000 C 
ENDBRANCH  28  30
ENDBRANCH  26  28
ENDBRANCH   1  26
TORSDOF 6
ENDMDL
MODEL 9
REMARK VINA RESULT:      -6.6      3.845      8.743
REMARK  Name = 
REMARK  11 active torsions:
REMARK  status: ('A' for Active; 'I' for Inactive)
REMARK    1  A    between atoms: C_1  and  C_2
REMARK    2  A    between atoms: C_2  and  O_3
REMARK    3  A    between atoms: O_3  and  C_4
REMARK    4  A    between atoms: C_4  and  C_6
REMARK    5  A    between atoms: C_7  and  N_8
REMARK    6  A    between atoms: C_12  and  O_14
REMARK    7  A    between atoms: O_14  and  C_15
REMARK    8  A    between atoms: C_15  and  C_16
REMARK    9  A    between atoms: C_15  and  C_17
REMARK   10  A    between atoms: C_15  and  C_18
REMARK   11  A    between atoms: N_27  and  C_28
REMARK                            x       y       z     vdW  Elec       q    Type
REMARK                         _______ _______ _______ _____ _____    ______ ____
ROOT
ATOM      1  C   UNL     1       0.583  12.191  19.316  0.00  0.00    +0.000 A 
ATOM      2  C   UNL     1      -0.014  12.935  20.282  0.00  0.00    +0.000 A 
ATOM      3  C   UNL     1       0.636  14.237  20.663  0.00  0.00    +0.000 A 
ATOM      4  C   UNL     1       0.042  15.094  21.612  0.00  0.00    +0.000 A 
ATOM      5  C   UNL     1       0.614  16.296  22.017  0.00  0.00    +0.000 A 
ATOM      6  C   UNL     1       1.787  16.707  21.422  0.00  0.00    +0.000 A 
ATOM      7  C   UNL     1       2.380  15.907  20.446  0.00  0.00    +0.000 A 
ATOM      8  C   UNL     1       1.829  14.667  20.062  0.00  0.00    +0.000 A 
ATOM      9  N   UNL     1       2.437  13.841  19.087  0.00  0.00    +0.000 N 
ATOM     10  C   UNL     1       3.690  14.185  18.434  0.00  0.00    +0.000 C 
ATOM     11  C   UNL     1       1.902  12.608  18.732  0.00  0.00    +0.000 A 
ATOM     12  O   UNL     1       2.525  11.863  17.972  0.00  0.00    +0.000 OA
ENDROOT
BRANCH   2  13
ATOM     13  N   UNL     1      -1.213  12.658  20.971  0.00  0.00    +0.000 N 
ATOM     14  C   UNL     1      -1.234  11.857  22.224  0.00  0.00    +0.000 C 
ATOM     15  C   UNL     1      -2.213  12.480  23.240  0.00  0.00    +0.000 C 
ATOM     16  N   UNL     1      -3.526  12.735  22.653  0.00  0.00    +0.000 N 
ATOM     17  C   UNL     1      -4.630  12.511  23.439  0.00  0.00    +0.000 C 
ATOM     18  O   UNL     1      -4.533  12.114  24.600  0.00  0.00    +0.000 OA
ATOM     19  C   UNL     1      -3.532  13.419  21.350  0.00  0.00    +0.000 C 
ATOM     20  C   UNL     1      -2.560  12.744  20.358  0.00  0.00    +0.000 C 
BRANCH  17  21
ATOM     21  O   UNL     1      -5.813  12.718  22.803  0.00  0.00    +0.000 OA
BRANCH  21  22
ATOM     22  C   UNL     1      -6.597  13.886  23.170  0.00  0.00    +0.000 C 
ATOM     23  C   UNL     1      -7.392  14.426  21.974  0.00  0.00    +0.000 C 
ATOM     24  C   UNL     1      -7.600  13.412  24.235  0.00  0.00    +0.000 C 
ATOM     25  C   UNL     1      -5.708  14.963  23.814  0.00  0.00    +0.000 C 
ENDBRANCH  21  22
ENDBRANCH  17  21
ENDBRANCH   2  13
BRANCH   1  26
ATOM     26  C   UNL     1       0.016  10.876  18.894  0.00  0.00    +0.000 C 
ATOM     27  O   UNL     1       0.334   9.787  19.357  0.00  0.00    +0.000 OA
BRANCH  26  28
ATOM     28  O   UNL     1      -0.868  11.023  17.868  0.00  0.00    +0.000 OA
BRANCH  28  30
ATOM     29  C   UNL     1      -2.989   9.864  17.647  0.00  0.00    +0.000 C 
ATOM     30  C   UNL     1      -1.486   9.812  17.405  0.00  0.00    +0.000 C 
ENDBRANCH  28  30
ENDBRANCH  26  28
ENDBRANCH   1  26
TORSDOF 6
ENDMDL
