MODEL 1
REMARK VINA RESULT:      -8.2      0.000      0.000
REMARK  Name = 
REMARK  9 active torsions:
REMARK  status: ('A' for Active; 'I' for Inactive)
REMARK    1  A    between atoms: C_1  and  C_2
REMARK    2  A    between atoms: C_5  and  C_6
REMARK    3  A    between atoms: C_11  and  O_12
REMARK    4  A    between atoms: O_12  and  C_13
REMARK    5  A    between atoms: C_15  and  C_16
REMARK    6  A    between atoms: C_16  and  O_17
REMARK    7  A    between atoms: C_18  and  O_19
REMARK    8  A    between atoms: C_20  and  O_21
REMARK    9  A    between atoms: C_22  and  O_23
REMARK                            x       y       z     vdW  Elec       q    Type
REMARK                         _______ _______ _______ _____ _____    ______ ____
ROOT
ATOM      1  C   UNL     1       0.289  11.019  20.965  0.00  0.00    +0.000 A 
ATOM      2  C   UNL     1       0.172  10.143  21.975  0.00  0.00    +0.000 A 
ATOM      3  O   UNL     1       0.585   8.818  21.979  0.00  0.00    +0.000 OA
ATOM      4  C   UNL     1       1.168   8.319  20.832  0.00  0.00    +0.000 A 
ATOM      5  C   UNL     1       1.589   6.980  20.810  0.00  0.00    +0.000 A 
ATOM      6  C   UNL     1       2.199   6.439  19.658  0.00  0.00    +0.000 A 
ATOM      7  C   UNL     1       2.373   7.265  18.546  0.00  0.00    +0.000 A 
ATOM      8  C   UNL     1       1.957   8.594  18.572  0.00  0.00    +0.000 A 
ATOM      9  C   UNL     1       1.361   9.119  19.715  0.00  0.00    +0.000 A 
ATOM     10  C   UNL     1       0.972  10.537  19.741  0.00  0.00    +0.000 A 
ATOM     11  O   UNL     1       1.251  11.251  18.785  0.00  0.00    +0.000 OA
ENDROOT
BRANCH   1  16
ATOM     12  C   UNL     1       0.240  15.731  22.400  0.00  0.00    +0.000 C 
ATOM     13  C   UNL     1      -0.276  14.537  21.683  0.00  0.00    +0.000 A 
ATOM     14  C   UNL     1      -1.357  14.502  20.833  0.00  0.00    +0.000 A 
ATOM     15  S   UNL     1      -1.599  12.915  20.261  0.00  0.00    +0.000 S 
ATOM     16  C   UNL     1      -0.169  12.373  21.098  0.00  0.00    +0.000 A 
ATOM     17  N   UNL     1       0.373  13.317  21.854  0.00  0.00    +0.000 NA
ENDBRANCH   1  16
BRANCH   6  18
ATOM     18  O   UNL     1       2.615   5.128  19.730  0.00  0.00    +0.000 OA
BRANCH  18  19
ATOM     19  C   UNL     1       3.416   4.611  18.659  0.00  0.00    +0.000 C 
ATOM     20  O   UNL     1       2.679   3.811  17.717  0.00  0.00    +0.000 OA
ATOM     21  C   UNL     1       2.126   2.586  18.238  0.00  0.00    +0.000 C 
ATOM     22  C   UNL     1       3.143   1.713  19.015  0.00  0.00    +0.000 C 
ATOM     23  C   UNL     1       4.143   2.521  19.857  0.00  0.00    +0.000 C 
ATOM     24  C   UNL     1       4.620   3.781  19.137  0.00  0.00    +0.000 C 
BRANCH  22  25
ATOM     25  O   UNL     1       3.889   0.902  18.073  0.00  0.00    +0.000 OA
ATOM     26  H   UNL     1       4.831   1.125  18.154  0.00  0.00    +0.000 HD
ENDBRANCH  22  25
BRANCH  23  27
ATOM     27  O   UNL     1       5.280   1.700  20.175  0.00  0.00    +0.000 OA
ATOM     28  H   UNL     1       5.034   0.799  19.876  0.00  0.00    +0.000 HD
ENDBRANCH  23  27
BRANCH  24  29
ATOM     29  O   UNL     1       5.430   3.406  17.994  0.00  0.00    +0.000 OA
ATOM     30  H   UNL     1       5.070   3.871  17.215  0.00  0.00    +0.000 HD
ENDBRANCH  24  29
BRANCH  21  31
ATOM     31  C   UNL     1       0.796   2.842  18.957  0.00  0.00    +0.000 C 
BRANCH  31  32
ATOM     32  O   UNL     1       0.961   2.798  20.368  0.00  0.00    +0.000 OA
ATOM     33  H   UNL     1       1.280   1.909  20.604  0.00  0.00    +0.000 HD
ENDBRANCH  31  32
ENDBRANCH  21  31
ENDBRANCH  18  19
ENDBRANCH   6  18
TORSDOF 8
ENDMDL
MODEL 2
REMARK VINA RESULT:      -8.2      1.172      1.467
REMARK  Name = 
REMARK  9 active torsions:
REMARK  status: ('A' for Active; 'I' for Inactive)
REMARK    1  A    between atoms: C_1  and  C_2
REMARK    2  A    between atoms: C_5  and  C_6
REMARK    3  A    between atoms: C_11  and  O_12
REMARK    4  A    between atoms: O_12  and  C_13
REMARK    5  A    between atoms: C_15  and  C_16
REMARK    6  A    between atoms: C_16  and  O_17
REMARK    7  A    between atoms: C_18  and  O_19
REMARK    8  A    between atoms: C_20  and  O_21
REMARK    9  A    between atoms: C_22  and  O_23
REMARK                            x       y       z     vdW  Elec       q    Type
REMARK                         _______ _______ _______ _____ _____    ______ ____
ROOT
ATOM      1  C   UNL     1      -0.407  10.964  20.885  0.00  0.00    +0.000 A 
ATOM      2  C   UNL     1      -0.280  10.133  21.931  0.00  0.00    +0.000 A 
ATOM      3  O   UNL     1       0.430   8.941  21.964  0.00  0.00    +0.000 OA
ATOM      4  C   UNL     1       1.073   8.539  20.811  0.00  0.00    +0.000 A 
ATOM      5  C   UNL     1       1.794   7.334  20.818  0.00  0.00    +0.000 A 
ATOM      6  C   UNL     1       2.472   6.896  19.661  0.00  0.00    +0.000 A 
ATOM      7  C   UNL     1       2.410   7.689  18.513  0.00  0.00    +0.000 A 
ATOM      8  C   UNL     1       1.696   8.885  18.509  0.00  0.00    +0.000 A 
ATOM      9  C   UNL     1       1.035   9.310  19.658  0.00  0.00    +0.000 A 
ATOM     10  C   UNL     1       0.326  10.598  19.650  0.00  0.00    +0.000 A 
ATOM     11  O   UNL     1       0.397  11.313  18.657  0.00  0.00    +0.000 OA
ENDROOT
BRANCH   1  16
ATOM     12  C   UNL     1      -4.287  13.992  20.685  0.00  0.00    +0.000 C 
ATOM     13  C   UNL     1      -2.869  13.637  20.947  0.00  0.00    +0.000 A 
ATOM     14  C   UNL     1      -1.911  14.461  21.491  0.00  0.00    +0.000 A 
ATOM     15  S   UNL     1      -0.420  13.642  21.582  0.00  0.00    +0.000 S 
ATOM     16  C   UNL     1      -1.162  12.180  20.989  0.00  0.00    +0.000 A 
ATOM     17  N   UNL     1      -2.428  12.355  20.634  0.00  0.00    +0.000 NA
ENDBRANCH   1  16
BRANCH   6  18
ATOM     18  O   UNL     1       3.185   5.722  19.762  0.00  0.00    +0.000 OA
BRANCH  18  19
ATOM     19  C   UNL     1       3.430   4.973  18.564  0.00  0.00    +0.000 C 
ATOM     20  O   UNL     1       2.270   4.285  18.063  0.00  0.00    +0.000 OA
ATOM     21  C   UNL     1       1.746   3.245  18.913  0.00  0.00    +0.000 C 
ATOM     22  C   UNL     1       2.811   2.232  19.404  0.00  0.00    +0.000 C 
ATOM     23  C   UNL     1       4.175   2.865  19.719  0.00  0.00    +0.000 C 
ATOM     24  C   UNL     1       4.563   3.941  18.707  0.00  0.00    +0.000 C 
BRANCH  22  25
ATOM     25  O   UNL     1       3.003   1.217  18.386  0.00  0.00    +0.000 OA
ATOM     26  H   UNL     1       2.368   1.377  17.669  0.00  0.00    +0.000 HD
ENDBRANCH  22  25
BRANCH  23  27
ATOM     27  O   UNL     1       5.189   1.845  19.735  0.00  0.00    +0.000 OA
ATOM     28  H   UNL     1       5.819   2.124  20.433  0.00  0.00    +0.000 HD
ENDBRANCH  23  27
BRANCH  24  29
ATOM     29  O   UNL     1       4.813   3.323  17.419  0.00  0.00    +0.000 OA
ATOM     30  H   UNL     1       5.780   3.254  17.310  0.00  0.00    +0.000 HD
ENDBRANCH  24  29
BRANCH  21  31
ATOM     31  C   UNL     1       0.843   3.829  20.006  0.00  0.00    +0.000 C 
BRANCH  31  32
ATOM     32  O   UNL     1       1.473   3.764  21.279  0.00  0.00    +0.000 OA
ATOM     33  H   UNL     1       2.280   3.229  21.185  0.00  0.00    +0.000 HD
ENDBRANCH  31  32
ENDBRANCH  21  31
ENDBRANCH  18  19
ENDBRANCH   6  18
TORSDOF 8
ENDMDL
MODEL 3
REMARK VINA RESULT:      -8.0      2.252      3.196
REMARK  Name = 
REMARK  9 active torsions:
REMARK  status: ('A' for Active; 'I' for Inactive)
REMARK    1  A    between atoms: C_1  and  C_2
REMARK    2  A    between atoms: C_5  and  C_6
REMARK    3  A    between atoms: C_11  and  O_12
REMARK    4  A    between atoms: O_12  and  C_13
REMARK    5  A    between atoms: C_15  and  C_16
REMARK    6  A    between atoms: C_16  and  O_17
REMARK    7  A    between atoms: C_18  and  O_19
REMARK    8  A    between atoms: C_20  and  O_21
REMARK    9  A    between atoms: C_22  and  O_23
REMARK                            x       y       z     vdW  Elec       q    Type
REMARK                         _______ _______ _______ _____ _____    ______ ____
ROOT
ATOM      1  C   UNL     1      -0.693  10.858  22.041  0.00  0.00    +0.000 A 
ATOM      2  C   UNL     1      -0.050   9.881  22.699  0.00  0.00    +0.000 A 
ATOM      3  O   UNL     1       0.797   8.928  22.151  0.00  0.00    +0.000 OA
ATOM      4  C   UNL     1       1.009   8.958  20.788  0.00  0.00    +0.000 A 
ATOM      5  C   UNL     1       1.858   8.001  20.210  0.00  0.00    +0.000 A 
ATOM      6  C   UNL     1       2.106   8.007  18.821  0.00  0.00    +0.000 A 
ATOM      7  C   UNL     1       1.489   8.986  18.038  0.00  0.00    +0.000 A 
ATOM      8  C   UNL     1       0.649   9.936  18.616  0.00  0.00    +0.000 A 
ATOM      9  C   UNL     1       0.415   9.923  19.988  0.00  0.00    +0.000 A 
ATOM     10  C   UNL     1      -0.436  10.962  20.585  0.00  0.00    +0.000 A 
ATOM     11  O   UNL     1      -0.861  11.868  19.877  0.00  0.00    +0.000 OA
ENDROOT
BRANCH   1  16
ATOM     12  C   UNL     1      -4.487  12.526  24.703  0.00  0.00    +0.000 C 
ATOM     13  C   UNL     1      -3.211  12.650  23.953  0.00  0.00    +0.000 A 
ATOM     14  C   UNL     1      -2.443  13.785  23.837  0.00  0.00    +0.000 A 
ATOM     15  S   UNL     1      -1.082  13.471  22.861  0.00  0.00    +0.000 S 
ATOM     16  C   UNL     1      -1.534  11.793  22.734  0.00  0.00    +0.000 A 
ATOM     17  N   UNL     1      -2.706  11.532  23.297  0.00  0.00    +0.000 NA
ENDBRANCH   1  16
BRANCH   6  18
ATOM     18  O   UNL     1       2.979   7.057  18.338  0.00  0.00    +0.000 OA
BRANCH  18  19
ATOM     19  C   UNL     1       3.334   5.965  19.197  0.00  0.00    +0.000 C 
ATOM     20  O   UNL     1       4.678   5.490  19.005  0.00  0.00    +0.000 OA
ATOM     21  C   UNL     1       4.954   4.904  17.717  0.00  0.00    +0.000 C 
ATOM     22  C   UNL     1       3.928   3.828  17.278  0.00  0.00    +0.000 C 
ATOM     23  C   UNL     1       2.480   4.149  17.680  0.00  0.00    +0.000 C 
ATOM     24  C   UNL     1       2.388   4.758  19.077  0.00  0.00    +0.000 C 
BRANCH  22  25
ATOM     25  O   UNL     1       4.295   2.555  17.866  0.00  0.00    +0.000 OA
ATOM     26  H   UNL     1       5.113   2.246  17.444  0.00  0.00    +0.000 HD
ENDBRANCH  22  25
BRANCH  23  27
ATOM     27  O   UNL     1       1.690   2.947  17.635  0.00  0.00    +0.000 OA
ATOM     28  H   UNL     1       1.432   2.779  18.566  0.00  0.00    +0.000 HD
ENDBRANCH  23  27
BRANCH  24  29
ATOM     29  O   UNL     1       2.756   3.760  20.063  0.00  0.00    +0.000 OA
ATOM     30  H   UNL     1       2.168   2.992  19.936  0.00  0.00    +0.000 HD
ENDBRANCH  24  29
BRANCH  21  31
ATOM     31  C   UNL     1       5.261   5.984  16.673  0.00  0.00    +0.000 C 
BRANCH  31  32
ATOM     32  O   UNL     1       5.911   7.100  17.267  0.00  0.00    +0.000 OA
ATOM     33  H   UNL     1       5.225   7.679  17.644  0.00  0.00    +0.000 HD
ENDBRANCH  31  32
ENDBRANCH  21  31
ENDBRANCH  18  19
ENDBRANCH   6  18
TORSDOF 8
ENDMDL
MODEL 4
REMARK VINA RESULT:      -8.0      1.537      2.097
REMARK  Name = 
REMARK  9 active torsions:
REMARK  status: ('A' for Active; 'I' for Inactive)
REMARK    1  A    between atoms: C_1  and  C_2
REMARK    2  A    between atoms: C_5  and  C_6
REMARK    3  A    between atoms: C_11  and  O_12
REMARK    4  A    between atoms: O_12  and  C_13
REMARK    5  A    between atoms: C_15  and  C_16
REMARK    6  A    between atoms: C_16  and  O_17
REMARK    7  A    between atoms: C_18  and  O_19
REMARK    8  A    between atoms: C_20  and  O_21
REMARK    9  A    between atoms: C_22  and  O_23
REMARK                            x       y       z     vdW  Elec       q    Type
REMARK                         _______ _______ _______ _____ _____    ______ ____
ROOT
ATOM      1  C   UNL     1       1.388  11.167  18.972  0.00  0.00    +0.000 A 
ATOM      2  C   UNL     1       1.990  10.559  17.938  0.00  0.00    +0.000 A 
ATOM      3  O   UNL     1       2.327   9.216  17.846  0.00  0.00    +0.000 OA
ATOM      4  C   UNL     1       2.033   8.399  18.919  0.00  0.00    +0.000 A 
ATOM      5  C   UNL     1       2.367   7.038  18.850  0.00  0.00    +0.000 A 
ATOM      6  C   UNL     1       2.073   6.171  19.924  0.00  0.00    +0.000 A 
ATOM      7  C   UNL     1       1.441   6.699  21.052  0.00  0.00    +0.000 A 
ATOM      8  C   UNL     1       1.107   8.050  21.115  0.00  0.00    +0.000 A 
ATOM      9  C   UNL     1       1.398   8.895  20.048  0.00  0.00    +0.000 A 
ATOM     10  C   UNL     1       0.996  10.308  20.114  0.00  0.00    +0.000 A 
ATOM     11  O   UNL     1       0.340  10.699  21.073  0.00  0.00    +0.000 OA
ENDROOT
BRANCH   1  16
ATOM     12  C   UNL     1       2.114  16.035  19.175  0.00  0.00    +0.000 C 
ATOM     13  C   UNL     1       1.309  14.801  18.990  0.00  0.00    +0.000 A 
ATOM     14  C   UNL     1      -0.012  14.740  18.611  0.00  0.00    +0.000 A 
ATOM     15  S   UNL     1      -0.529  13.118  18.554  0.00  0.00    +0.000 S 
ATOM     16  C   UNL     1       1.081  12.569  18.934  0.00  0.00    +0.000 A 
ATOM     17  N   UNL     1       1.913  13.565  19.204  0.00  0.00    +0.000 NA
ENDBRANCH   1  16
BRANCH   6  18
ATOM     18  O   UNL     1       2.402   4.844  19.763  0.00  0.00    +0.000 OA
BRANCH  18  19
ATOM     19  C   UNL     1       3.350   4.499  18.744  0.00  0.00    +0.000 C 
ATOM     20  O   UNL     1       2.789   3.729  17.665  0.00  0.00    +0.000 OA
ATOM     21  C   UNL     1       2.307   2.418  18.020  0.00  0.00    +0.000 C 
ATOM     22  C   UNL     1       3.321   1.568  18.826  0.00  0.00    +0.000 C 
ATOM     23  C   UNL     1       4.151   2.378  19.834  0.00  0.00    +0.000 C 
ATOM     24  C   UNL     1       4.575   3.736  19.277  0.00  0.00    +0.000 C 
BRANCH  22  25
ATOM     25  O   UNL     1       4.231   0.915  17.905  0.00  0.00    +0.000 OA
ATOM     26  H   UNL     1       3.758   0.749  17.073  0.00  0.00    +0.000 HD
ENDBRANCH  22  25
BRANCH  23  27
ATOM     27  O   UNL     1       5.325   1.632  20.203  0.00  0.00    +0.000 OA
ATOM     28  H   UNL     1       6.000   2.311  20.416  0.00  0.00    +0.000 HD
ENDBRANCH  23  27
BRANCH  24  29
ATOM     29  O   UNL     1       5.526   3.539  18.200  0.00  0.00    +0.000 OA
ATOM     30  H   UNL     1       5.902   4.412  17.979  0.00  0.00    +0.000 HD
ENDBRANCH  24  29
BRANCH  21  31
ATOM     31  C   UNL     1       0.894   2.491  18.612  0.00  0.00    +0.000 C 
BRANCH  31  32
ATOM     32  O   UNL     1       0.934   2.479  20.033  0.00  0.00    +0.000 OA
ATOM     33  H   UNL     1       1.782   2.868  20.311  0.00  0.00    +0.000 HD
ENDBRANCH  31  32
ENDBRANCH  21  31
ENDBRANCH  18  19
ENDBRANCH   6  18
TORSDOF 8
ENDMDL
MODEL 5
REMARK VINA RESULT:      -8.0      1.760      2.792
REMARK  Name = 
REMARK  9 active torsions:
REMARK  status: ('A' for Active; 'I' for Inactive)
REMARK    1  A    between atoms: C_1  and  C_2
REMARK    2  A    between atoms: C_5  and  C_6
REMARK    3  A    between atoms: C_11  and  O_12
REMARK    4  A    between atoms: O_12  and  C_13
REMARK    5  A    between atoms: C_15  and  C_16
REMARK    6  A    between atoms: C_16  and  O_17
REMARK    7  A    between atoms: C_18  and  O_19
REMARK    8  A    between atoms: C_20  and  O_21
REMARK    9  A    between atoms: C_22  and  O_23
REMARK                            x       y       z     vdW  Elec       q    Type
REMARK                         _______ _______ _______ _____ _____    ______ ____
ROOT
ATOM      1  C   UNL     1      -0.396  11.188  22.110  0.00  0.00    +0.000 A 
ATOM      2  C   UNL     1      -0.089  10.045  22.744  0.00  0.00    +0.000 A 
ATOM      3  O   UNL     1       0.582   8.954  22.212  0.00  0.00    +0.000 OA
ATOM      4  C   UNL     1       0.976   9.018  20.891  0.00  0.00    +0.000 A 
ATOM      5  C   UNL     1       1.653   7.924  20.329  0.00  0.00    +0.000 A 
ATOM      6  C   UNL     1       2.080   7.958  18.984  0.00  0.00    +0.000 A 
ATOM      7  C   UNL     1       1.816   9.104  18.231  0.00  0.00    +0.000 A 
ATOM      8  C   UNL     1       1.148  10.189  18.792  0.00  0.00    +0.000 A 
ATOM      9  C   UNL     1       0.734  10.146  20.121  0.00  0.00    +0.000 A 
ATOM     10  C   UNL     1       0.072  11.319  20.710  0.00  0.00    +0.000 A 
ATOM     11  O   UNL     1      -0.033  12.343  20.045  0.00  0.00    +0.000 OA
ENDROOT
BRANCH   1  16
ATOM     12  C   UNL     1      -1.084  15.519  24.353  0.00  0.00    +0.000 C 
ATOM     13  C   UNL     1      -1.507  14.205  23.805  0.00  0.00    +0.000 A 
ATOM     14  C   UNL     1      -2.795  13.728  23.737  0.00  0.00    +0.000 A 
ATOM     15  S   UNL     1      -2.804  12.166  23.059  0.00  0.00    +0.000 S 
ATOM     16  C   UNL     1      -1.084  12.251  22.785  0.00  0.00    +0.000 A 
ATOM     17  N   UNL     1      -0.538  13.347  23.293  0.00  0.00    +0.000 NA
ENDBRANCH   1  16
BRANCH   6  18
ATOM     18  O   UNL     1       2.768   6.859  18.520  0.00  0.00    +0.000 OA
BRANCH  18  19
ATOM     19  C   UNL     1       2.916   5.732  19.395  0.00  0.00    +0.000 C 
ATOM     20  O   UNL     1       4.284   5.353  19.627  0.00  0.00    +0.000 OA
ATOM     21  C   UNL     1       5.002   4.876  18.472  0.00  0.00    +0.000 C 
ATOM     22  C   UNL     1       4.259   3.774  17.674  0.00  0.00    +0.000 C 
ATOM     23  C   UNL     1       2.738   3.978  17.600  0.00  0.00    +0.000 C 
ATOM     24  C   UNL     1       2.156   4.481  18.920  0.00  0.00    +0.000 C 
BRANCH  22  25
ATOM     25  O   UNL     1       4.519   2.487  18.289  0.00  0.00    +0.000 OA
ATOM     26  H   UNL     1       4.688   1.840  17.586  0.00  0.00    +0.000 HD
ENDBRANCH  22  25
BRANCH  23  27
ATOM     27  O   UNL     1       2.102   2.737  17.246  0.00  0.00    +0.000 OA
ATOM     28  H   UNL     1       2.615   2.398  16.482  0.00  0.00    +0.000 HD
ENDBRANCH  23  27
BRANCH  24  29
ATOM     29  O   UNL     1       2.268   3.441  19.924  0.00  0.00    +0.000 OA
ATOM     30  H   UNL     1       3.113   2.978  19.773  0.00  0.00    +0.000 HD
ENDBRANCH  24  29
BRANCH  21  31
ATOM     31  C   UNL     1       5.540   6.043  17.634  0.00  0.00    +0.000 C 
BRANCH  31  32
ATOM     32  O   UNL     1       4.789   6.201  16.437  0.00  0.00    +0.000 OA
ATOM     33  H   UNL     1       5.088   7.020  16.005  0.00  0.00    +0.000 HD
ENDBRANCH  31  32
ENDBRANCH  21  31
ENDBRANCH  18  19
ENDBRANCH   6  18
TORSDOF 8
ENDMDL
MODEL 6
REMARK VINA RESULT:      -8.0      1.708      2.056
REMARK  Name = 
REMARK  9 active torsions:
REMARK  status: ('A' for Active; 'I' for Inactive)
REMARK    1  A    between atoms: C_1  and  C_2
REMARK    2  A    between atoms: C_5  and  C_6
REMARK    3  A    between atoms: C_11  and  O_12
REMARK    4  A    between atoms: O_12  and  C_13
REMARK    5  A    between atoms: C_15  and  C_16
REMARK    6  A    between atoms: C_16  and  O_17
REMARK    7  A    between atoms: C_18  and  O_19
REMARK    8  A    between atoms: C_20  and  O_21
REMARK    9  A    between atoms: C_22  and  O_23
REMARK                            x       y       z     vdW  Elec       q    Type
REMARK                         _______ _______ _______ _____ _____    ______ ____
ROOT
ATOM      1  C   UNL     1      -0.853  11.231  21.775  0.00  0.00    +0.000 A 
ATOM      2  C   UNL     1      -0.617  10.274  22.686  0.00  0.00    +0.000 A 
ATOM      3  O   UNL     1       0.133   9.121  22.506  0.00  0.00    +0.000 OA
ATOM      4  C   UNL     1       0.697   8.904  21.266  0.00  0.00    +0.000 A 
ATOM      5  C   UNL     1       1.458   7.742  21.057  0.00  0.00    +0.000 A 
ATOM      6  C   UNL     1       2.058   7.492  19.805  0.00  0.00    +0.000 A 
ATOM      7  C   UNL     1       1.880   8.426  18.783  0.00  0.00    +0.000 A 
ATOM      8  C   UNL     1       1.128   9.580  18.994  0.00  0.00    +0.000 A 
ATOM      9  C   UNL     1       0.544   9.819  20.234  0.00  0.00    +0.000 A 
ATOM     10  C   UNL     1      -0.206  11.064  20.452  0.00  0.00    +0.000 A 
ATOM     11  O   UNL     1      -0.237  11.907  19.563  0.00  0.00    +0.000 OA
ENDROOT
BRANCH   1  16
ATOM     12  C   UNL     1      -4.848  14.052  22.359  0.00  0.00    +0.000 C 
ATOM     13  C   UNL     1      -3.395  13.748  22.413  0.00  0.00    +0.000 A 
ATOM     14  C   UNL     1      -2.412  14.562  22.926  0.00  0.00    +0.000 A 
ATOM     15  S   UNL     1      -0.890  13.818  22.753  0.00  0.00    +0.000 S 
ATOM     16  C   UNL     1      -1.639  12.388  22.097  0.00  0.00    +0.000 A 
ATOM     17  N   UNL     1      -2.944  12.530  21.914  0.00  0.00    +0.000 NA
ENDBRANCH   1  16
BRANCH   6  18
ATOM     18  O   UNL     1       2.816   6.347  19.694  0.00  0.00    +0.000 OA
BRANCH  18  19
ATOM     19  C   UNL     1       2.957   5.750  18.398  0.00  0.00    +0.000 C 
ATOM     20  O   UNL     1       2.165   4.562  18.217  0.00  0.00    +0.000 OA
ATOM     21  C   UNL     1       2.520   3.443  19.054  0.00  0.00    +0.000 C 
ATOM     22  C   UNL     1       4.031   3.099  19.043  0.00  0.00    +0.000 C 
ATOM     23  C   UNL     1       4.950   4.328  18.977  0.00  0.00    +0.000 C 
ATOM     24  C   UNL     1       4.411   5.404  18.036  0.00  0.00    +0.000 C 
BRANCH  22  25
ATOM     25  O   UNL     1       4.315   2.253  17.900  0.00  0.00    +0.000 OA
ATOM     26  H   UNL     1       3.564   2.302  17.287  0.00  0.00    +0.000 HD
ENDBRANCH  22  25
BRANCH  23  27
ATOM     27  O   UNL     1       6.260   3.929  18.536  0.00  0.00    +0.000 OA
ATOM     28  H   UNL     1       6.882   4.459  19.078  0.00  0.00    +0.000 HD
ENDBRANCH  23  27
BRANCH  24  29
ATOM     29  O   UNL     1       4.464   4.921  16.669  0.00  0.00    +0.000 OA
ATOM     30  H   UNL     1       4.196   5.657  16.088  0.00  0.00    +0.000 HD
ENDBRANCH  24  29
BRANCH  21  31
ATOM     31  C   UNL     1       1.887   3.571  20.445  0.00  0.00    +0.000 C 
BRANCH  31  32
ATOM     32  O   UNL     1       0.582   4.131  20.363  0.00  0.00    +0.000 OA
ATOM     33  H   UNL     1       0.608   5.008  20.783  0.00  0.00    +0.000 HD
ENDBRANCH  31  32
ENDBRANCH  21  31
ENDBRANCH  18  19
ENDBRANCH   6  18
TORSDOF 8
ENDMDL
MODEL 7
REMARK VINA RESULT:      -7.8      2.031      2.940
REMARK  Name = 
REMARK  9 active torsions:
REMARK  status: ('A' for Active; 'I' for Inactive)
REMARK    1  A    between atoms: C_1  and  C_2
REMARK    2  A    between atoms: C_5  and  C_6
REMARK    3  A    between atoms: C_11  and  O_12
REMARK    4  A    between atoms: O_12  and  C_13
REMARK    5  A    between atoms: C_15  and  C_16
REMARK    6  A    between atoms: C_16  and  O_17
REMARK    7  A    between atoms: C_18  and  O_19
REMARK    8  A    between atoms: C_20  and  O_21
REMARK    9  A    between atoms: C_22  and  O_23
REMARK                            x       y       z     vdW  Elec       q    Type
REMARK                         _______ _______ _______ _____ _____    ______ ____
ROOT
ATOM      1  C   UNL     1      -0.517  10.908  20.900  0.00  0.00    +0.000 A 
ATOM      2  C   UNL     1      -0.169   9.975  21.800  0.00  0.00    +0.000 A 
ATOM      3  O   UNL     1       0.660   8.883  21.586  0.00  0.00    +0.000 OA
ATOM      4  C   UNL     1       1.184   8.706  20.322  0.00  0.00    +0.000 A 
ATOM      5  C   UNL     1       2.022   7.605  20.081  0.00  0.00    +0.000 A 
ATOM      6  C   UNL     1       2.584   7.398  18.803  0.00  0.00    +0.000 A 
ATOM      7  C   UNL     1       2.290   8.313  17.790  0.00  0.00    +0.000 A 
ATOM      8  C   UNL     1       1.461   9.406  18.034  0.00  0.00    +0.000 A 
ATOM      9  C   UNL     1       0.915   9.603  19.299  0.00  0.00    +0.000 A 
ATOM     10  C   UNL     1       0.082  10.787  19.550  0.00  0.00    +0.000 A 
ATOM     11  O   UNL     1      -0.053  11.623  18.663  0.00  0.00    +0.000 OA
ENDROOT
BRANCH   1  16
ATOM     12  C   UNL     1      -4.466  13.853  20.856  0.00  0.00    +0.000 C 
ATOM     13  C   UNL     1      -3.134  13.394  21.326  0.00  0.00    +0.000 A 
ATOM     14  C   UNL     1      -2.416  13.920  22.375  0.00  0.00    +0.000 A 
ATOM     15  S   UNL     1      -0.932  13.100  22.536  0.00  0.00    +0.000 S 
ATOM     16  C   UNL     1      -1.375  12.002  21.257  0.00  0.00    +0.000 A 
ATOM     17  N   UNL     1      -2.521  12.327  20.675  0.00  0.00    +0.000 NA
ENDBRANCH   1  16
BRANCH   6  18
ATOM     18  O   UNL     1       3.422   6.315  18.659  0.00  0.00    +0.000 OA
BRANCH  18  19
ATOM     19  C   UNL     1       4.031   6.095  17.379  0.00  0.00    +0.000 C 
ATOM     20  O   UNL     1       4.175   4.704  17.037  0.00  0.00    +0.000 OA
ATOM     21  C   UNL     1       5.066   3.945  17.878  0.00  0.00    +0.000 C 
ATOM     22  C   UNL     1       6.454   4.602  18.087  0.00  0.00    +0.000 C 
ATOM     23  C   UNL     1       6.406   6.133  18.206  0.00  0.00    +0.000 C 
ATOM     24  C   UNL     1       5.411   6.760  17.233  0.00  0.00    +0.000 C 
BRANCH  22  25
ATOM     25  O   UNL     1       7.314   4.257  16.972  0.00  0.00    +0.000 OA
ATOM     26  H   UNL     1       7.037   4.774  16.199  0.00  0.00    +0.000 HD
ENDBRANCH  22  25
BRANCH  23  27
ATOM     27  O   UNL     1       7.715   6.677  17.958  0.00  0.00    +0.000 OA
ATOM     28  H   UNL     1       7.565   7.434  17.354  0.00  0.00    +0.000 HD
ENDBRANCH  23  27
BRANCH  24  29
ATOM     29  O   UNL     1       5.887   6.583  15.875  0.00  0.00    +0.000 OA
ATOM     30  H   UNL     1       5.666   5.672  15.603  0.00  0.00    +0.000 HD
ENDBRANCH  24  29
BRANCH  21  31
ATOM     31  C   UNL     1       4.358   3.485  19.158  0.00  0.00    +0.000 C 
BRANCH  31  32
ATOM     32  O   UNL     1       5.031   2.379  19.746  0.00  0.00    +0.000 OA
ATOM     33  H   UNL     1       4.443   1.997  20.420  0.00  0.00    +0.000 HD
ENDBRANCH  31  32
ENDBRANCH  21  31
ENDBRANCH  18  19
ENDBRANCH   6  18
TORSDOF 8
ENDMDL
MODEL 8
REMARK VINA RESULT:      -7.8      2.281      2.986
REMARK  Name = 
REMARK  9 active torsions:
REMARK  status: ('A' for Active; 'I' for Inactive)
REMARK    1  A    between atoms: C_1  and  C_2
REMARK    2  A    between atoms: C_5  and  C_6
REMARK    3  A    between atoms: C_11  and  O_12
REMARK    4  A    between atoms: O_12  and  C_13
REMARK    5  A    between atoms: C_15  and  C_16
REMARK    6  A    between atoms: C_16  and  O_17
REMARK    7  A    between atoms: C_18  and  O_19
REMARK    8  A    between atoms: C_20  and  O_21
REMARK    9  A    between atoms: C_22  and  O_23
REMARK                            x       y       z     vdW  Elec       q    Type
REMARK                         _______ _______ _______ _____ _____    ______ ____
ROOT
ATOM      1  C   UNL     1      -0.025  10.529  21.475  0.00  0.00    +0.000 A 
ATOM      2  C   UNL     1       0.413   9.483  22.193  0.00  0.00    +0.000 A 
ATOM      3  O   UNL     1       1.175   8.419  21.730  0.00  0.00    +0.000 OA
ATOM      4  C   UNL     1       1.523   8.405  20.395  0.00  0.00    +0.000 A 
ATOM      5  C   UNL     1       2.291   7.337  19.903  0.00  0.00    +0.000 A 
ATOM      6  C   UNL     1       2.674   7.294  18.546  0.00  0.00    +0.000 A 
ATOM      7  C   UNL     1       2.274   8.337  17.708  0.00  0.00    +0.000 A 
ATOM      8  C   UNL     1       1.516   9.397  18.200  0.00  0.00    +0.000 A 
ATOM      9  C   UNL     1       1.147   9.431  19.542  0.00  0.00    +0.000 A 
ATOM     10  C   UNL     1       0.387  10.581  20.053  0.00  0.00    +0.000 A 
ATOM     11  O   UNL     1       0.160  11.527  19.308  0.00  0.00    +0.000 OA
ENDROOT
BRANCH   1  16
ATOM     12  C   UNL     1      -3.656  12.671  24.024  0.00  0.00    +0.000 C 
ATOM     13  C   UNL     1      -2.396  12.646  23.238  0.00  0.00    +0.000 A 
ATOM     14  C   UNL     1      -1.574  13.719  22.986  0.00  0.00    +0.000 A 
ATOM     15  S   UNL     1      -0.257  13.232  22.021  0.00  0.00    +0.000 S 
ATOM     16  C   UNL     1      -0.798  11.576  22.082  0.00  0.00    +0.000 A 
ATOM     17  N   UNL     1      -1.966  11.439  22.694  0.00  0.00    +0.000 NA
ENDBRANCH   1  16
BRANCH   6  18
ATOM     18  O   UNL     1       3.455   6.230  18.152  0.00  0.00    +0.000 OA
BRANCH  18  19
ATOM     19  C   UNL     1       4.416   6.446  17.109  0.00  0.00    +0.000 C 
ATOM     20  O   UNL     1       4.647   5.289  16.285  0.00  0.00    +0.000 OA
ATOM     21  C   UNL     1       5.242   4.157  16.952  0.00  0.00    +0.000 C 
ATOM     22  C   UNL     1       6.509   4.502  17.776  0.00  0.00    +0.000 C 
ATOM     23  C   UNL     1       6.437   5.861  18.489  0.00  0.00    +0.000 C 
ATOM     24  C   UNL     1       5.781   6.935  17.624  0.00  0.00    +0.000 C 
BRANCH  22  25
ATOM     25  O   UNL     1       7.659   4.507  16.894  0.00  0.00    +0.000 OA
ATOM     26  H   UNL     1       7.345   4.579  15.979  0.00  0.00    +0.000 HD
ENDBRANCH  22  25
BRANCH  23  27
ATOM     27  O   UNL     1       7.764   6.288  18.846  0.00  0.00    +0.000 OA
ATOM     28  H   UNL     1       8.300   5.466  18.858  0.00  0.00    +0.000 HD
ENDBRANCH  23  27
BRANCH  24  29
ATOM     29  O   UNL     1       6.640   7.237  16.495  0.00  0.00    +0.000 OA
ATOM     30  H   UNL     1       6.427   6.601  15.786  0.00  0.00    +0.000 HD
ENDBRANCH  24  29
BRANCH  21  31
ATOM     31  C   UNL     1       4.181   3.333  17.693  0.00  0.00    +0.000 C 
BRANCH  31  32
ATOM     32  O   UNL     1       4.321   3.467  19.101  0.00  0.00    +0.000 OA
ATOM     33  H   UNL     1       4.017   4.358  19.347  0.00  0.00    +0.000 HD
ENDBRANCH  31  32
ENDBRANCH  21  31
ENDBRANCH  18  19
ENDBRANCH   6  18
TORSDOF 8
ENDMDL
MODEL 9
REMARK VINA RESULT:      -7.7      1.613      2.589
REMARK  Name = 
REMARK  9 active torsions:
REMARK  status: ('A' for Active; 'I' for Inactive)
REMARK    1  A    between atoms: C_1  and  C_2
REMARK    2  A    between atoms: C_5  and  C_6
REMARK    3  A    between atoms: C_11  and  O_12
REMARK    4  A    between atoms: O_12  and  C_13
REMARK    5  A    between atoms: C_15  and  C_16
REMARK    6  A    between atoms: C_16  and  O_17
REMARK    7  A    between atoms: C_18  and  O_19
REMARK    8  A    between atoms: C_20  and  O_21
REMARK    9  A    between atoms: C_22  and  O_23
REMARK                            x       y       z     vdW  Elec       q    Type
REMARK                         _______ _______ _______ _____ _____    ______ ____
ROOT
ATOM      1  C   UNL     1       0.032  10.786  21.474  0.00  0.00    +0.000 A 
ATOM      2  C   UNL     1       0.449   9.776  22.252  0.00  0.00    +0.000 A 
ATOM      3  O   UNL     1       1.127   8.637  21.843  0.00  0.00    +0.000 OA
ATOM      4  C   UNL     1       1.405   8.497  20.498  0.00  0.00    +0.000 A 
ATOM      5  C   UNL     1       2.087   7.351  20.059  0.00  0.00    +0.000 A 
ATOM      6  C   UNL     1       2.396   7.179  18.693  0.00  0.00    +0.000 A 
ATOM      7  C   UNL     1       2.011   8.175  17.793  0.00  0.00    +0.000 A 
ATOM      8  C   UNL     1       1.338   9.312  18.232  0.00  0.00    +0.000 A 
ATOM      9  C   UNL     1       1.041   9.474  19.583  0.00  0.00    +0.000 A 
ATOM     10  C   UNL     1       0.373  10.702  20.034  0.00  0.00    +0.000 A 
ATOM     11  O   UNL     1       0.159  11.599  19.226  0.00  0.00    +0.000 OA
ENDROOT
BRANCH   1  16
ATOM     12  C   UNL     1      -3.391  13.336  23.933  0.00  0.00    +0.000 C 
ATOM     13  C   UNL     1      -2.147  13.172  23.139  0.00  0.00    +0.000 A 
ATOM     14  C   UNL     1      -1.248  14.163  22.821  0.00  0.00    +0.000 A 
ATOM     15  S   UNL     1       0.015  13.524  21.873  0.00  0.00    +0.000 S 
ATOM     16  C   UNL     1      -0.650  11.920  22.030  0.00  0.00    +0.000 A 
ATOM     17  N   UNL     1      -1.818  11.908  22.658  0.00  0.00    +0.000 NA
ENDBRANCH   1  16
BRANCH   6  18
ATOM     18  O   UNL     1       3.098   6.044  18.350  0.00  0.00    +0.000 OA
BRANCH  18  19
ATOM     19  C   UNL     1       3.228   5.006  19.331  0.00  0.00    +0.000 C 
ATOM     20  O   UNL     1       4.362   4.146  19.118  0.00  0.00    +0.000 OA
ATOM     21  C   UNL     1       4.329   3.357  17.913  0.00  0.00    +0.000 C 
ATOM     22  C   UNL     1       3.007   2.577  17.703  0.00  0.00    +0.000 C 
ATOM     23  C   UNL     1       1.753   3.343  18.152  0.00  0.00    +0.000 C 
ATOM     24  C   UNL     1       1.980   4.114  19.451  0.00  0.00    +0.000 C 
BRANCH  22  25
ATOM     25  O   UNL     1       3.070   1.331  18.442  0.00  0.00    +0.000 OA
ATOM     26  H   UNL     1       3.393   1.521  19.337  0.00  0.00    +0.000 HD
ENDBRANCH  22  25
BRANCH  23  27
ATOM     27  O   UNL     1       0.664   2.421  18.335  0.00  0.00    +0.000 OA
ATOM     28  H   UNL     1       0.964   1.811  19.042  0.00  0.00    +0.000 HD
ENDBRANCH  23  27
BRANCH  24  29
ATOM     29  O   UNL     1       2.162   3.177  20.543  0.00  0.00    +0.000 OA
ATOM     30  H   UNL     1       2.639   2.404  20.188  0.00  0.00    +0.000 HD
ENDBRANCH  24  29
BRANCH  21  31
ATOM     31  C   UNL     1       4.808   4.173  16.705  0.00  0.00    +0.000 C 
BRANCH  31  32
ATOM     32  O   UNL     1       5.769   5.146  17.094  0.00  0.00    +0.000 OA
ATOM     33  H   UNL     1       5.835   5.128  18.064  0.00  0.00    +0.000 HD
ENDBRANCH  31  32
ENDBRANCH  21  31
ENDBRANCH  18  19
ENDBRANCH   6  18
TORSDOF 8
ENDMDL
