MODEL 1
REMARK VINA RESULT:      -8.8      0.000      0.000
REMARK  Name = 
REMARK  5 active torsions:
REMARK  status: ('A' for Active; 'I' for Inactive)
REMARK    1  A    between atoms: C_1  and  N_2
REMARK    2  A    between atoms: C_4  and  C_5
REMARK    3  A    between atoms: C_10  and  N_11
REMARK    4  A    between atoms: C_12  and  C_14
REMARK    5  A    between atoms: C_22  and  C_23
REMARK                            x       y       z     vdW  Elec       q    Type
REMARK                         _______ _______ _______ _____ _____    ______ ____
ROOT
ATOM      1  C   UNL     1       2.500   6.557  18.785  0.00  0.00    +0.000 A 
ATOM      2  C   UNL     1       2.513   7.497  17.640  0.00  0.00    +0.000 A 
ATOM      3  C   UNL     1       2.045   8.725  17.870  0.00  0.00    +0.000 A 
ATOM      4  C   UNL     1       1.582   9.064  19.165  0.00  0.00    +0.000 A 
ATOM      5  N   UNL     1       1.096  10.183  19.632  0.00  0.00    +0.000 NA
ATOM      6  C   UNL     1       0.818   9.952  20.948  0.00  0.00    +0.000 A 
ATOM      7  C   UNL     1       1.129   8.652  21.285  0.00  0.00    +0.000 A 
ATOM      8  N   UNL     1       1.631   8.092  20.134  0.00  0.00    +0.000 N 
ATOM      9  N   UNL     1       2.094   6.820  19.990  0.00  0.00    +0.000 NA
ENDROOT
BRANCH   1  13
ATOM     10  C   UNL     1       2.691   1.664  17.882  0.00  0.00    +0.000 C 
ATOM     11  N   UNL     1       3.023   3.059  18.039  0.00  0.00    +0.000 N 
ATOM     12  C   UNL     1       2.173   4.071  18.364  0.00  0.00    +0.000 A 
ATOM     13  C   UNL     1       2.944   5.217  18.450  0.00  0.00    +0.000 A 
ATOM     14  C   UNL     1       4.273   4.769  18.166  0.00  0.00    +0.000 A 
ATOM     15  N   UNL     1       4.296   3.453  17.895  0.00  0.00    +0.000 NA
BRANCH  14  16
ATOM     16  C   UNL     1       5.496   5.565  18.198  0.00  0.00    +0.000 A 
ATOM     17  C   UNL     1       6.477   5.309  19.171  0.00  0.00    +0.000 A 
ATOM     18  C   UNL     1       7.607   6.113  19.272  0.00  0.00    +0.000 A 
ATOM     19  C   UNL     1       7.776   7.146  18.368  0.00  0.00    +0.000 A 
ATOM     20  F   UNL     1       8.866   7.920  18.455  0.00  0.00    +0.000 F 
ATOM     21  C   UNL     1       6.841   7.394  17.367  0.00  0.00    +0.000 A 
ATOM     22  C   UNL     1       5.698   6.599  17.278  0.00  0.00    +0.000 A 
ENDBRANCH  14  16
ENDBRANCH   1  13
BRANCH   6  23
ATOM     23  N   UNL     1       0.286  10.911  21.781  0.00  0.00    +0.000 N 
ATOM     24  C   UNL     1      -0.854  11.649  21.450  0.00  0.00    +0.000 C 
ATOM     25  O   UNL     1      -1.474  11.534  20.405  0.00  0.00    +0.000 OA
ATOM     26  H   UNL     1       0.715  11.075  22.680  0.00  0.00    +0.000 HD
BRANCH  24  27
ATOM     27  C   UNL     1      -1.263  12.605  22.485  0.00  0.00    +0.000 A 
ATOM     28  N   UNL     1      -0.469  13.490  23.061  0.00  0.00    +0.000 NA
ATOM     29  C   UNL     1      -1.229  14.288  23.906  0.00  0.00    +0.000 A 
ATOM     30  C   UNL     1      -2.559  13.949  24.026  0.00  0.00    +0.000 A 
ATOM     31  S   UNL     1      -2.908  12.626  23.002  0.00  0.00    +0.000 S 
ENDBRANCH  24  27
ENDBRANCH   6  23
TORSDOF 4
ENDMDL
MODEL 2
REMARK VINA RESULT:      -8.5      6.484      8.119
REMARK  Name = 
REMARK  5 active torsions:
REMARK  status: ('A' for Active; 'I' for Inactive)
REMARK    1  A    between atoms: C_1  and  N_2
REMARK    2  A    between atoms: C_4  and  C_5
REMARK    3  A    between atoms: C_10  and  N_11
REMARK    4  A    between atoms: C_12  and  C_14
REMARK    5  A    between atoms: C_22  and  C_23
REMARK                            x       y       z     vdW  Elec       q    Type
REMARK                         _______ _______ _______ _____ _____    ______ ____
ROOT
ATOM      1  C   UNL     1       7.058   6.145  16.835  0.00  0.00    +0.000 A 
ATOM      2  C   UNL     1       7.560   5.474  18.058  0.00  0.00    +0.000 A 
ATOM      3  C   UNL     1       8.178   6.248  18.952  0.00  0.00    +0.000 A 
ATOM      4  C   UNL     1       8.310   7.636  18.701  0.00  0.00    +0.000 A 
ATOM      5  N   UNL     1       8.855   8.584  19.415  0.00  0.00    +0.000 NA
ATOM      6  C   UNL     1       8.694   9.734  18.697  0.00  0.00    +0.000 A 
ATOM      7  C   UNL     1       8.047   9.474  17.509  0.00  0.00    +0.000 A 
ATOM      8  N   UNL     1       7.793   8.122  17.525  0.00  0.00    +0.000 N 
ATOM      9  N   UNL     1       7.147   7.411  16.562  0.00  0.00    +0.000 NA
ENDROOT
BRANCH   1  13
ATOM     10  C   UNL     1       6.144   3.421  12.769  0.00  0.00    +0.000 C 
ATOM     11  N   UNL     1       6.076   4.026  14.076  0.00  0.00    +0.000 N 
ATOM     12  C   UNL     1       6.976   4.884  14.629  0.00  0.00    +0.000 A 
ATOM     13  C   UNL     1       6.470   5.237  15.868  0.00  0.00    +0.000 A 
ATOM     14  C   UNL     1       5.229   4.531  15.955  0.00  0.00    +0.000 A 
ATOM     15  N   UNL     1       5.018   3.779  14.861  0.00  0.00    +0.000 NA
BRANCH  14  16
ATOM     16  C   UNL     1       4.247   4.606  17.033  0.00  0.00    +0.000 A 
ATOM     17  C   UNL     1       3.763   3.429  17.627  0.00  0.00    +0.000 A 
ATOM     18  C   UNL     1       2.764   3.478  18.593  0.00  0.00    +0.000 A 
ATOM     19  C   UNL     1       2.283   4.709  18.997  0.00  0.00    +0.000 A 
ATOM     20  F   UNL     1       1.325   4.765  19.932  0.00  0.00    +0.000 F 
ATOM     21  C   UNL     1       2.776   5.894  18.455  0.00  0.00    +0.000 A 
ATOM     22  C   UNL     1       3.765   5.844  17.472  0.00  0.00    +0.000 A 
ENDBRANCH  14  16
ENDBRANCH   1  13
BRANCH   6  23
ATOM     23  N   UNL     1       9.145  10.959  19.135  0.00  0.00    +0.000 N 
ATOM     24  C   UNL     1      10.165  11.663  18.486  0.00  0.00    +0.000 C 
ATOM     25  O   UNL     1      10.759  11.266  17.496  0.00  0.00    +0.000 OA
ATOM     26  H   UNL     1       8.710  11.387  19.940  0.00  0.00    +0.000 HD
BRANCH  24  27
ATOM     27  C   UNL     1      10.480  12.956  19.105  0.00  0.00    +0.000 A 
ATOM     28  N   UNL     1      10.486  13.197  20.404  0.00  0.00    +0.000 NA
ATOM     29  C   UNL     1      10.935  14.495  20.615  0.00  0.00    +0.000 A 
ATOM     30  C   UNL     1      11.180  15.242  19.484  0.00  0.00    +0.000 A 
ATOM     31  S   UNL     1      10.908  14.285  18.094  0.00  0.00    +0.000 S 
ENDBRANCH  24  27
ENDBRANCH   6  23
TORSDOF 4
ENDMDL
MODEL 3
REMARK VINA RESULT:      -8.4      2.992      3.349
REMARK  Name = 
REMARK  5 active torsions:
REMARK  status: ('A' for Active; 'I' for Inactive)
REMARK    1  A    between atoms: C_1  and  N_2
REMARK    2  A    between atoms: C_4  and  C_5
REMARK    3  A    between atoms: C_10  and  N_11
REMARK    4  A    between atoms: C_12  and  C_14
REMARK    5  A    between atoms: C_22  and  C_23
REMARK                            x       y       z     vdW  Elec       q    Type
REMARK                         _______ _______ _______ _____ _____    ______ ____
ROOT
ATOM      1  C   UNL     1       2.423   6.608  19.266  0.00  0.00    +0.000 A 
ATOM      2  C   UNL     1       3.134   6.762  17.975  0.00  0.00    +0.000 A 
ATOM      3  C   UNL     1       3.046   7.954  17.383  0.00  0.00    +0.000 A 
ATOM      4  C   UNL     1       2.308   8.990  18.007  0.00  0.00    +0.000 A 
ATOM      5  N   UNL     1       2.088  10.223  17.637  0.00  0.00    +0.000 NA
ATOM      6  C   UNL     1       1.319  10.778  18.618  0.00  0.00    +0.000 A 
ATOM      7  C   UNL     1       1.052   9.852  19.603  0.00  0.00    +0.000 A 
ATOM      8  N   UNL     1       1.702   8.707  19.206  0.00  0.00    +0.000 N 
ATOM      9  N   UNL     1       1.742   7.526  19.882  0.00  0.00    +0.000 NA
ENDROOT
BRANCH   1  13
ATOM     10  C   UNL     1       1.657   2.509  21.986  0.00  0.00    +0.000 C 
ATOM     11  N   UNL     1       2.140   3.455  21.011  0.00  0.00    +0.000 N 
ATOM     12  C   UNL     1       1.704   4.730  20.822  0.00  0.00    +0.000 A 
ATOM     13  C   UNL     1       2.490   5.268  19.817  0.00  0.00    +0.000 A 
ATOM     14  C   UNL     1       3.394   4.212  19.476  0.00  0.00    +0.000 A 
ATOM     15  N   UNL     1       3.148   3.107  20.200  0.00  0.00    +0.000 NA
BRANCH  14  16
ATOM     16  C   UNL     1       4.494   4.271  18.517  0.00  0.00    +0.000 A 
ATOM     17  C   UNL     1       5.737   4.799  18.905  0.00  0.00    +0.000 A 
ATOM     18  C   UNL     1       6.767   4.944  17.984  0.00  0.00    +0.000 A 
ATOM     19  C   UNL     1       6.568   4.518  16.684  0.00  0.00    +0.000 A 
ATOM     20  F   UNL     1       7.558   4.648  15.792  0.00  0.00    +0.000 F 
ATOM     21  C   UNL     1       5.360   3.951  16.283  0.00  0.00    +0.000 A 
ATOM     22  C   UNL     1       4.320   3.823  17.204  0.00  0.00    +0.000 A 
ENDBRANCH  14  16
ENDBRANCH   1  13
BRANCH   6  23
ATOM     23  N   UNL     1       0.881  12.083  18.579  0.00  0.00    +0.000 N 
ATOM     24  C   UNL     1       1.536  13.119  19.253  0.00  0.00    +0.000 C 
ATOM     25  O   UNL     1       2.532  12.974  19.944  0.00  0.00    +0.000 OA
ATOM     26  H   UNL     1       0.072  12.316  18.021  0.00  0.00    +0.000 HD
BRANCH  24  27
ATOM     27  C   UNL     1       0.916  14.436  19.063  0.00  0.00    +0.000 A 
ATOM     28  N   UNL     1      -0.376  14.690  19.164  0.00  0.00    +0.000 NA
ATOM     29  C   UNL     1      -0.573  16.059  19.028  0.00  0.00    +0.000 A 
ATOM     30  C   UNL     1       0.548  16.807  18.743  0.00  0.00    +0.000 A 
ATOM     31  S   UNL     1       1.921  15.789  18.705  0.00  0.00    +0.000 S 
ENDBRANCH  24  27
ENDBRANCH   6  23
TORSDOF 4
ENDMDL
MODEL 4
REMARK VINA RESULT:      -8.4      6.335      8.081
REMARK  Name = 
REMARK  5 active torsions:
REMARK  status: ('A' for Active; 'I' for Inactive)
REMARK    1  A    between atoms: C_1  and  N_2
REMARK    2  A    between atoms: C_4  and  C_5
REMARK    3  A    between atoms: C_10  and  N_11
REMARK    4  A    between atoms: C_12  and  C_14
REMARK    5  A    between atoms: C_22  and  C_23
REMARK                            x       y       z     vdW  Elec       q    Type
REMARK                         _______ _______ _______ _____ _____    ______ ____
ROOT
ATOM      1  C   UNL     1       7.052   6.138  16.834  0.00  0.00    +0.000 A 
ATOM      2  C   UNL     1       7.531   5.446  18.054  0.00  0.00    +0.000 A 
ATOM      3  C   UNL     1       8.153   6.199  18.962  0.00  0.00    +0.000 A 
ATOM      4  C   UNL     1       8.311   7.588  18.728  0.00  0.00    +0.000 A 
ATOM      5  N   UNL     1       8.864   8.519  19.458  0.00  0.00    +0.000 NA
ATOM      6  C   UNL     1       8.730   9.679  18.752  0.00  0.00    +0.000 A 
ATOM      7  C   UNL     1       8.090   9.443  17.554  0.00  0.00    +0.000 A 
ATOM      8  N   UNL     1       7.814   8.096  17.553  0.00  0.00    +0.000 N 
ATOM      9  N   UNL     1       7.165   7.405  16.575  0.00  0.00    +0.000 NA
ENDROOT
BRANCH   1  13
ATOM     10  C   UNL     1       6.154   3.442  12.746  0.00  0.00    +0.000 C 
ATOM     11  N   UNL     1       6.071   4.052  14.050  0.00  0.00    +0.000 N 
ATOM     12  C   UNL     1       6.986   4.876  14.627  0.00  0.00    +0.000 A 
ATOM     13  C   UNL     1       6.458   5.252  15.851  0.00  0.00    +0.000 A 
ATOM     14  C   UNL     1       5.189   4.592  15.903  0.00  0.00    +0.000 A 
ATOM     15  N   UNL     1       4.982   3.847  14.804  0.00  0.00    +0.000 NA
BRANCH  14  16
ATOM     16  C   UNL     1       4.180   4.708  16.952  0.00  0.00    +0.000 A 
ATOM     17  C   UNL     1       3.822   5.973  17.447  0.00  0.00    +0.000 A 
ATOM     18  C   UNL     1       2.929   6.097  18.505  0.00  0.00    +0.000 A 
ATOM     19  C   UNL     1       2.359   4.955  19.036  0.00  0.00    +0.000 A 
ATOM     20  F   UNL     1       1.492   5.067  20.051  0.00  0.00    +0.000 F 
ATOM     21  C   UNL     1       2.663   3.691  18.535  0.00  0.00    +0.000 A 
ATOM     22  C   UNL     1       3.574   3.566  17.486  0.00  0.00    +0.000 A 
ENDBRANCH  14  16
ENDBRANCH   1  13
BRANCH   6  23
ATOM     23  N   UNL     1       9.197  10.891  19.207  0.00  0.00    +0.000 N 
ATOM     24  C   UNL     1      10.168  11.630  18.524  0.00  0.00    +0.000 C 
ATOM     25  O   UNL     1      10.702  11.278  17.484  0.00  0.00    +0.000 OA
ATOM     26  H   UNL     1       8.810  11.283  20.053  0.00  0.00    +0.000 HD
BRANCH  24  27
ATOM     27  C   UNL     1      10.511  12.902  19.171  0.00  0.00    +0.000 A 
ATOM     28  N   UNL     1      11.075  13.934  18.570  0.00  0.00    +0.000 NA
ATOM     29  C   UNL     1      11.146  14.990  19.470  0.00  0.00    +0.000 A 
ATOM     30  C   UNL     1      10.719  14.723  20.752  0.00  0.00    +0.000 A 
ATOM     31  S   UNL     1      10.142  13.117  20.841  0.00  0.00    +0.000 S 
ENDBRANCH  24  27
ENDBRANCH   6  23
TORSDOF 4
ENDMDL
MODEL 5
REMARK VINA RESULT:      -8.4      2.896      3.240
REMARK  Name = 
REMARK  5 active torsions:
REMARK  status: ('A' for Active; 'I' for Inactive)
REMARK    1  A    between atoms: C_1  and  N_2
REMARK    2  A    between atoms: C_4  and  C_5
REMARK    3  A    between atoms: C_10  and  N_11
REMARK    4  A    between atoms: C_12  and  C_14
REMARK    5  A    between atoms: C_22  and  C_23
REMARK                            x       y       z     vdW  Elec       q    Type
REMARK                         _______ _______ _______ _____ _____    ______ ____
ROOT
ATOM      1  C   UNL     1       2.295   6.673  19.426  0.00  0.00    +0.000 A 
ATOM      2  C   UNL     1       2.804   6.849  18.045  0.00  0.00    +0.000 A 
ATOM      3  C   UNL     1       2.650   8.058  17.502  0.00  0.00    +0.000 A 
ATOM      4  C   UNL     1       2.036   9.089  18.256  0.00  0.00    +0.000 A 
ATOM      5  N   UNL     1       1.787  10.334  17.953  0.00  0.00    +0.000 NA
ATOM      6  C   UNL     1       1.186  10.875  19.054  0.00  0.00    +0.000 A 
ATOM      7  C   UNL     1       1.055   9.927  20.045  0.00  0.00    +0.000 A 
ATOM      8  N   UNL     1       1.615   8.783  19.527  0.00  0.00    +0.000 N 
ATOM      9  N   UNL     1       1.733   7.584  20.160  0.00  0.00    +0.000 NA
ENDROOT
BRANCH   1  13
ATOM     10  C   UNL     1       1.671   2.434  21.963  0.00  0.00    +0.000 C 
ATOM     11  N   UNL     1       2.132   3.442  21.041  0.00  0.00    +0.000 N 
ATOM     12  C   UNL     1       1.632   4.698  20.885  0.00  0.00    +0.000 A 
ATOM     13  C   UNL     1       2.418   5.317  19.928  0.00  0.00    +0.000 A 
ATOM     14  C   UNL     1       3.390   4.326  19.578  0.00  0.00    +0.000 A 
ATOM     15  N   UNL     1       3.183   3.182  20.252  0.00  0.00    +0.000 NA
BRANCH  14  16
ATOM     16  C   UNL     1       4.515   4.483  18.661  0.00  0.00    +0.000 A 
ATOM     17  C   UNL     1       4.413   4.020  17.338  0.00  0.00    +0.000 A 
ATOM     18  C   UNL     1       5.502   4.081  16.477  0.00  0.00    +0.000 A 
ATOM     19  C   UNL     1       6.680   4.647  16.926  0.00  0.00    +0.000 A 
ATOM     20  F   UNL     1       7.732   4.715  16.100  0.00  0.00    +0.000 F 
ATOM     21  C   UNL     1       6.795   5.153  18.219  0.00  0.00    +0.000 A 
ATOM     22  C   UNL     1       5.708   5.074  19.089  0.00  0.00    +0.000 A 
ENDBRANCH  14  16
ENDBRANCH   1  13
BRANCH   6  23
ATOM     23  N   UNL     1       0.774  12.187  19.113  0.00  0.00    +0.000 N 
ATOM     24  C   UNL     1       1.654  13.263  18.957  0.00  0.00    +0.000 C 
ATOM     25  O   UNL     1       2.856  13.152  18.773  0.00  0.00    +0.000 OA
ATOM     26  H   UNL     1      -0.206  12.391  19.247  0.00  0.00    +0.000 HD
BRANCH  24  27
ATOM     27  C   UNL     1       1.006  14.577  19.036  0.00  0.00    +0.000 A 
ATOM     28  N   UNL     1       1.550  15.718  18.652  0.00  0.00    +0.000 NA
ATOM     29  C   UNL     1       0.603  16.727  18.776  0.00  0.00    +0.000 A 
ATOM     30  C   UNL     1      -0.605  16.360  19.327  0.00  0.00    +0.000 A 
ATOM     31  S   UNL     1      -0.602  14.681  19.649  0.00  0.00    +0.000 S 
ENDBRANCH  24  27
ENDBRANCH   6  23
TORSDOF 4
ENDMDL
MODEL 6
REMARK VINA RESULT:      -8.4      2.561      3.765
REMARK  Name = 
REMARK  5 active torsions:
REMARK  status: ('A' for Active; 'I' for Inactive)
REMARK    1  A    between atoms: C_1  and  N_2
REMARK    2  A    between atoms: C_4  and  C_5
REMARK    3  A    between atoms: C_10  and  N_11
REMARK    4  A    between atoms: C_12  and  C_14
REMARK    5  A    between atoms: C_22  and  C_23
REMARK                            x       y       z     vdW  Elec       q    Type
REMARK                         _______ _______ _______ _____ _____    ______ ____
ROOT
ATOM      1  C   UNL     1       2.973   7.336  18.509  0.00  0.00    +0.000 A 
ATOM      2  C   UNL     1       2.659   8.247  17.383  0.00  0.00    +0.000 A 
ATOM      3  C   UNL     1       1.759   9.203  17.620  0.00  0.00    +0.000 A 
ATOM      4  C   UNL     1       1.173   9.305  18.906  0.00  0.00    +0.000 A 
ATOM      5  N   UNL     1       0.292  10.146  19.378  0.00  0.00    +0.000 NA
ATOM      6  C   UNL     1       0.091   9.787  20.680  0.00  0.00    +0.000 A 
ATOM      7  C   UNL     1       0.859   8.690  21.002  0.00  0.00    +0.000 A 
ATOM      8  N   UNL     1       1.561   8.393  19.857  0.00  0.00    +0.000 N 
ATOM      9  N   UNL     1       2.471   7.392  19.705  0.00  0.00    +0.000 NA
ENDROOT
BRANCH   1  13
ATOM     10  C   UNL     1       6.623   4.648  16.449  0.00  0.00    +0.000 C 
ATOM     11  N   UNL     1       5.516   5.091  17.261  0.00  0.00    +0.000 N 
ATOM     12  C   UNL     1       4.950   6.328  17.267  0.00  0.00    +0.000 A 
ATOM     13  C   UNL     1       3.896   6.271  18.163  0.00  0.00    +0.000 A 
ATOM     14  C   UNL     1       3.910   4.921  18.637  0.00  0.00    +0.000 A 
ATOM     15  N   UNL     1       4.921   4.224  18.092  0.00  0.00    +0.000 NA
BRANCH  14  16
ATOM     16  C   UNL     1       2.956   4.299  19.550  0.00  0.00    +0.000 A 
ATOM     17  C   UNL     1       3.300   4.100  20.898  0.00  0.00    +0.000 A 
ATOM     18  C   UNL     1       2.440   3.431  21.761  0.00  0.00    +0.000 A 
ATOM     19  C   UNL     1       1.215   3.002  21.285  0.00  0.00    +0.000 A 
ATOM     20  F   UNL     1       0.377   2.362  22.113  0.00  0.00    +0.000 F 
ATOM     21  C   UNL     1       0.830   3.224  19.965  0.00  0.00    +0.000 A 
ATOM     22  C   UNL     1       1.702   3.879  19.095  0.00  0.00    +0.000 A 
ENDBRANCH  14  16
ENDBRANCH   1  13
BRANCH   6  23
ATOM     23  N   UNL     1      -0.781  10.452  21.513  0.00  0.00    +0.000 N 
ATOM     24  C   UNL     1      -0.530  11.741  21.994  0.00  0.00    +0.000 C 
ATOM     25  O   UNL     1       0.473  12.391  21.743  0.00  0.00    +0.000 OA
ATOM     26  H   UNL     1      -1.651  10.009  21.772  0.00  0.00    +0.000 HD
BRANCH  24  27
ATOM     27  C   UNL     1      -1.596  12.273  22.852  0.00  0.00    +0.000 A 
ATOM     28  N   UNL     1      -2.670  11.605  23.232  0.00  0.00    +0.000 NA
ATOM     29  C   UNL     1      -3.392  12.392  24.121  0.00  0.00    +0.000 A 
ATOM     30  C   UNL     1      -2.908  13.664  24.336  0.00  0.00    +0.000 A 
ATOM     31  S   UNL     1      -1.460  13.882  23.453  0.00  0.00    +0.000 S 
ENDBRANCH  24  27
ENDBRANCH   6  23
TORSDOF 4
ENDMDL
MODEL 7
REMARK VINA RESULT:      -8.3      2.444      2.779
REMARK  Name = 
REMARK  5 active torsions:
REMARK  status: ('A' for Active; 'I' for Inactive)
REMARK    1  A    between atoms: C_1  and  N_2
REMARK    2  A    between atoms: C_4  and  C_5
REMARK    3  A    between atoms: C_10  and  N_11
REMARK    4  A    between atoms: C_12  and  C_14
REMARK    5  A    between atoms: C_22  and  C_23
REMARK                            x       y       z     vdW  Elec       q    Type
REMARK                         _______ _______ _______ _____ _____    ______ ____
ROOT
ATOM      1  C   UNL     1       2.185   6.850  19.490  0.00  0.00    +0.000 A 
ATOM      2  C   UNL     1       2.594   7.095  18.087  0.00  0.00    +0.000 A 
ATOM      3  C   UNL     1       2.419   8.332  17.621  0.00  0.00    +0.000 A 
ATOM      4  C   UNL     1       1.876   9.328  18.471  0.00  0.00    +0.000 A 
ATOM      5  N   UNL     1       1.624  10.591  18.253  0.00  0.00    +0.000 NA
ATOM      6  C   UNL     1       1.114  11.078  19.422  0.00  0.00    +0.000 A 
ATOM      7  C   UNL     1       1.041  10.080  20.369  0.00  0.00    +0.000 A 
ATOM      8  N   UNL     1       1.545   8.960  19.752  0.00  0.00    +0.000 N 
ATOM      9  N   UNL     1       1.691   7.727  20.310  0.00  0.00    +0.000 NA
ENDROOT
BRANCH   1  13
ATOM     10  C   UNL     1       1.645   2.473  21.801  0.00  0.00    +0.000 C 
ATOM     11  N   UNL     1       2.075   3.533  20.923  0.00  0.00    +0.000 N 
ATOM     12  C   UNL     1       1.570   4.795  20.856  0.00  0.00    +0.000 A 
ATOM     13  C   UNL     1       2.324   5.468  19.910  0.00  0.00    +0.000 A 
ATOM     14  C   UNL     1       3.284   4.501  19.472  0.00  0.00    +0.000 A 
ATOM     15  N   UNL     1       3.099   3.320  20.086  0.00  0.00    +0.000 NA
BRANCH  14  16
ATOM     16  C   UNL     1       4.377   4.711  18.528  0.00  0.00    +0.000 A 
ATOM     17  C   UNL     1       4.241   4.300  17.191  0.00  0.00    +0.000 A 
ATOM     18  C   UNL     1       5.302   4.411  16.300  0.00  0.00    +0.000 A 
ATOM     19  C   UNL     1       6.485   4.977  16.736  0.00  0.00    +0.000 A 
ATOM     20  F   UNL     1       7.510   5.095  15.882  0.00  0.00    +0.000 F 
ATOM     21  C   UNL     1       6.633   5.433  18.045  0.00  0.00    +0.000 A 
ATOM     22  C   UNL     1       5.574   5.304  18.943  0.00  0.00    +0.000 A 
ENDBRANCH  14  16
ENDBRANCH   1  13
BRANCH   6  23
ATOM     23  N   UNL     1       0.726  12.390  19.580  0.00  0.00    +0.000 N 
ATOM     24  C   UNL     1      -0.520  12.864  19.159  0.00  0.00    +0.000 C 
ATOM     25  O   UNL     1      -1.369  12.183  18.605  0.00  0.00    +0.000 OA
ATOM     26  H   UNL     1       1.350  13.036  20.042  0.00  0.00    +0.000 HD
BRANCH  24  27
ATOM     27  C   UNL     1      -0.740  14.288  19.440  0.00  0.00    +0.000 A 
ATOM     28  N   UNL     1      -0.219  15.288  18.751  0.00  0.00    +0.000 NA
ATOM     29  C   UNL     1      -0.735  16.482  19.240  0.00  0.00    +0.000 A 
ATOM     30  C   UNL     1      -1.563  16.380  20.336  0.00  0.00    +0.000 A 
ATOM     31  S   UNL     1      -1.771  14.734  20.747  0.00  0.00    +0.000 S 
ENDBRANCH  24  27
ENDBRANCH   6  23
TORSDOF 4
ENDMDL
MODEL 8
REMARK VINA RESULT:      -8.2      2.321      2.556
REMARK  Name = 
REMARK  5 active torsions:
REMARK  status: ('A' for Active; 'I' for Inactive)
REMARK    1  A    between atoms: C_1  and  N_2
REMARK    2  A    between atoms: C_4  and  C_5
REMARK    3  A    between atoms: C_10  and  N_11
REMARK    4  A    between atoms: C_12  and  C_14
REMARK    5  A    between atoms: C_22  and  C_23
REMARK                            x       y       z     vdW  Elec       q    Type
REMARK                         _______ _______ _______ _____ _____    ______ ____
ROOT
ATOM      1  C   UNL     1       2.239   6.587  19.512  0.00  0.00    +0.000 A 
ATOM      2  C   UNL     1       2.588   6.844  18.095  0.00  0.00    +0.000 A 
ATOM      3  C   UNL     1       2.339   8.070  17.631  0.00  0.00    +0.000 A 
ATOM      4  C   UNL     1       1.778   9.042  18.495  0.00  0.00    +0.000 A 
ATOM      5  N   UNL     1       1.458  10.290  18.282  0.00  0.00    +0.000 NA
ATOM      6  C   UNL     1       0.963  10.759  19.465  0.00  0.00    +0.000 A 
ATOM      7  C   UNL     1       0.971   9.763  20.418  0.00  0.00    +0.000 A 
ATOM      8  N   UNL     1       1.507   8.665  19.788  0.00  0.00    +0.000 N 
ATOM      9  N   UNL     1       1.731   7.444  20.346  0.00  0.00    +0.000 NA
ENDROOT
BRANCH   1  13
ATOM     10  C   UNL     1       1.962   2.189  21.830  0.00  0.00    +0.000 C 
ATOM     11  N   UNL     1       2.325   3.271  20.948  0.00  0.00    +0.000 N 
ATOM     12  C   UNL     1       1.750   4.502  20.883  0.00  0.00    +0.000 A 
ATOM     13  C   UNL     1       2.459   5.216  19.932  0.00  0.00    +0.000 A 
ATOM     14  C   UNL     1       3.468   4.303  19.488  0.00  0.00    +0.000 A 
ATOM     15  N   UNL     1       3.355   3.114  20.104  0.00  0.00    +0.000 NA
BRANCH  14  16
ATOM     16  C   UNL     1       4.542   4.574  18.536  0.00  0.00    +0.000 A 
ATOM     17  C   UNL     1       5.677   5.295  18.943  0.00  0.00    +0.000 A 
ATOM     18  C   UNL     1       6.667   5.637  18.030  0.00  0.00    +0.000 A 
ATOM     19  C   UNL     1       6.543   5.217  16.718  0.00  0.00    +0.000 A 
ATOM     20  F   UNL     1       7.497   5.538  15.834  0.00  0.00    +0.000 F 
ATOM     21  C   UNL     1       5.449   4.464  16.298  0.00  0.00    +0.000 A 
ATOM     22  C   UNL     1       4.446   4.137  17.211  0.00  0.00    +0.000 A 
ENDBRANCH  14  16
ENDBRANCH   1  13
BRANCH   6  23
ATOM     23  N   UNL     1       0.518  12.051  19.632  0.00  0.00    +0.000 N 
ATOM     24  C   UNL     1      -0.839  12.387  19.634  0.00  0.00    +0.000 C 
ATOM     25  O   UNL     1      -1.750  11.589  19.477  0.00  0.00    +0.000 OA
ATOM     26  H   UNL     1       1.191  12.788  19.785  0.00  0.00    +0.000 HD
BRANCH  24  27
ATOM     27  C   UNL     1      -1.097  13.816  19.846  0.00  0.00    +0.000 A 
ATOM     28  N   UNL     1      -2.065  14.312  20.594  0.00  0.00    +0.000 NA
ATOM     29  C   UNL     1      -1.930  15.694  20.641  0.00  0.00    +0.000 A 
ATOM     30  C   UNL     1      -0.924  16.230  19.868  0.00  0.00    +0.000 A 
ATOM     31  S   UNL     1      -0.062  14.972  19.095  0.00  0.00    +0.000 S 
ENDBRANCH  24  27
ENDBRANCH   6  23
TORSDOF 4
ENDMDL
MODEL 9
REMARK VINA RESULT:      -8.2      2.346      2.649
REMARK  Name = 
REMARK  5 active torsions:
REMARK  status: ('A' for Active; 'I' for Inactive)
REMARK    1  A    between atoms: C_1  and  N_2
REMARK    2  A    between atoms: C_4  and  C_5
REMARK    3  A    between atoms: C_10  and  N_11
REMARK    4  A    between atoms: C_12  and  C_14
REMARK    5  A    between atoms: C_22  and  C_23
REMARK                            x       y       z     vdW  Elec       q    Type
REMARK                         _______ _______ _______ _____ _____    ______ ____
ROOT
ATOM      1  C   UNL     1       2.115   6.932  19.609  0.00  0.00    +0.000 A 
ATOM      2  C   UNL     1       2.394   7.264  18.192  0.00  0.00    +0.000 A 
ATOM      3  C   UNL     1       2.128   8.513  17.808  0.00  0.00    +0.000 A 
ATOM      4  C   UNL     1       1.617   9.439  18.751  0.00  0.00    +0.000 A 
ATOM      5  N   UNL     1       1.293  10.698  18.621  0.00  0.00    +0.000 NA
ATOM      6  C   UNL     1       0.863  11.103  19.852  0.00  0.00    +0.000 A 
ATOM      7  C   UNL     1       0.912  10.058  20.748  0.00  0.00    +0.000 A 
ATOM      8  N   UNL     1       1.409   8.993  20.033  0.00  0.00    +0.000 N 
ATOM      9  N   UNL     1       1.655   7.743  20.512  0.00  0.00    +0.000 NA
ENDROOT
BRANCH   1  13
ATOM     10  C   UNL     1       1.904   2.405  21.672  0.00  0.00    +0.000 C 
ATOM     11  N   UNL     1       2.243   3.537  20.846  0.00  0.00    +0.000 N 
ATOM     12  C   UNL     1       1.664   4.768  20.867  0.00  0.00    +0.000 A 
ATOM     13  C   UNL     1       2.348   5.539  19.943  0.00  0.00    +0.000 A 
ATOM     14  C   UNL     1       3.348   4.658  19.422  0.00  0.00    +0.000 A 
ATOM     15  N   UNL     1       3.252   3.434  19.970  0.00  0.00    +0.000 NA
BRANCH  14  16
ATOM     16  C   UNL     1       4.398   4.987  18.463  0.00  0.00    +0.000 A 
ATOM     17  C   UNL     1       4.235   4.666  17.104  0.00  0.00    +0.000 A 
ATOM     18  C   UNL     1       5.258   4.892  16.192  0.00  0.00    +0.000 A 
ATOM     19  C   UNL     1       6.429   5.482  16.631  0.00  0.00    +0.000 A 
ATOM     20  F   UNL     1       7.417   5.709  15.756  0.00  0.00    +0.000 F 
ATOM     21  C   UNL     1       6.600   5.850  17.964  0.00  0.00    +0.000 A 
ATOM     22  C   UNL     1       5.580   5.606  18.883  0.00  0.00    +0.000 A 
ENDBRANCH  14  16
ENDBRANCH   1  13
BRANCH   6  23
ATOM     23  N   UNL     1       0.434  12.386  20.110  0.00  0.00    +0.000 N 
ATOM     24  C   UNL     1       1.234  13.333  20.756  0.00  0.00    +0.000 C 
ATOM     25  O   UNL     1       2.366  13.122  21.163  0.00  0.00    +0.000 OA
ATOM     26  H   UNL     1      -0.484  12.671  19.800  0.00  0.00    +0.000 HD
BRANCH  24  27
ATOM     27  C   UNL     1       0.593  14.644  20.915  0.00  0.00    +0.000 A 
ATOM     28  N   UNL     1       0.534  15.580  19.985  0.00  0.00    +0.000 NA
ATOM     29  C   UNL     1      -0.241  16.631  20.459  0.00  0.00    +0.000 A 
ATOM     30  C   UNL     1      -0.684  16.519  21.759  0.00  0.00    +0.000 A 
ATOM     31  S   UNL     1      -0.179  15.021  22.409  0.00  0.00    +0.000 S 
ENDBRANCH  24  27
ENDBRANCH   6  23
TORSDOF 4
ENDMDL
