MODEL 1
REMARK VINA RESULT:      -7.6      0.000      0.000
REMARK  Name = 
REMARK  12 active torsions:
REMARK  status: ('A' for Active; 'I' for Inactive)
REMARK    1  A    between atoms: C_1  and  O_2
REMARK    2  A    between atoms: O_2  and  C_3
REMARK    3  A    between atoms: C_13  and  C_14
REMARK    4  A    between atoms: C_14  and  C_15
REMARK    5  A    between atoms: C_14  and  C_16
REMARK    6  A    between atoms: C_16  and  C_18
REMARK    7  A    between atoms: C_18  and  C_19
REMARK    8  A    between atoms: C_19  and  C_20
REMARK    9  A    between atoms: C_20  and  C_21
REMARK   10  A    between atoms: C_29  and  C_30
REMARK   11  A    between atoms: C_32  and  C_33
REMARK   12  A    between atoms: C_34  and  O_35
REMARK                            x       y       z     vdW  Elec       q    Type
REMARK                         _______ _______ _______ _____ _____    ______ ____
ROOT
ATOM      1  C   UNL     1      -0.209  13.026  19.554  0.00  0.00    +0.000 C 
ATOM      2  C   UNL     1      -0.095  14.598  19.321  0.00  0.00    +0.000 C 
ATOM      3  C   UNL     1      -0.821  15.728  19.645  0.00  0.00    +0.000 C 
ATOM      4  C   UNL     1      -1.997  15.848  20.615  0.00  0.00    +0.000 C 
ATOM      5  C   UNL     1      -3.313  16.594  21.184  0.00  0.00    +0.000 C 
ATOM      6  C   UNL     1      -4.069  15.447  21.853  0.00  0.00    +0.000 C 
ATOM      7  C   UNL     1      -5.253  15.163  22.428  0.00  0.00    +0.000 C 
ATOM      8  C   UNL     1      -5.745  13.791  22.778  0.00  0.00    +0.000 C 
ATOM      9  O   UNL     1      -6.737  13.718  23.494  0.00  0.00    +0.000 OA
ATOM     10  O   UNL     1      -5.230  12.620  22.295  0.00  0.00    +0.000 OA
ATOM     11  C   UNL     1      -3.910  12.356  21.678  0.00  0.00    +0.000 C 
ATOM     12  C   UNL     1      -4.157  12.672  20.152  0.00  0.00    +0.000 C 
ATOM     13  C   UNL     1      -5.154  13.733  19.650  0.00  0.00    +0.000 C 
ATOM     14  C   UNL     1      -3.670  11.995  19.083  0.00  0.00    +0.000 C 
ATOM     15  C   UNL     1      -2.327  11.313  18.931  0.00  0.00    +0.000 C 
ATOM     16  C   UNL     1      -2.475  10.392  17.681  0.00  0.00    +0.000 C 
ATOM     17  C   UNL     1      -1.428  12.588  18.708  0.00  0.00    +0.000 C 
ENDROOT
BRANCH   1  19
ATOM     18  C   UNL     1       2.105  13.118  18.803  0.00  0.00    +0.000 C 
ATOM     19  O   UNL     1       0.932  12.329  18.978  0.00  0.00    +0.000 OA
ENDBRANCH   1  19
BRANCH  11  20
ATOM     20  C   UNL     1      -2.871  12.689  22.894  0.00  0.00    +0.000 C 
ATOM     21  C   UNL     1      -3.564  12.402  24.242  0.00  0.00    +0.000 C 
BRANCH  20  22
ATOM     22  C   UNL     1      -1.370  12.277  22.980  0.00  0.00    +0.000 C 
ATOM     23  O   UNL     1      -0.506  13.107  23.211  0.00  0.00    +0.000 OA
BRANCH  22  24
ATOM     24  C   UNL     1      -0.988  10.793  23.036  0.00  0.00    +0.000 C 
BRANCH  24  25
ATOM     25  C   UNL     1      -0.315  10.141  21.811  0.00  0.00    +0.000 C 
BRANCH  25  26
ATOM     26  C   UNL     1       0.463   8.823  22.023  0.00  0.00    +0.000 C 
BRANCH  26  27
ATOM     27  C   UNL     1       1.435   8.502  20.851  0.00  0.00    +0.000 C 
ATOM     28  C   UNL     1       0.969   9.093  19.509  0.00  0.00    +0.000 C 
ATOM     29  C   UNL     1       1.930   8.754  18.393  0.00  0.00    +0.000 C 
ATOM     30  O   UNL     1       2.036   9.458  17.393  0.00  0.00    +0.000 OA
ATOM     31  N   UNL     1       2.631   7.583  18.512  0.00  0.00    +0.000 N 
ATOM     32  C   UNL     1       2.529   6.652  19.508  0.00  0.00    +0.000 C 
ATOM     33  O   UNL     1       3.097   5.568  19.406  0.00  0.00    +0.000 OA
ATOM     34  C   UNL     1       1.611   6.986  20.667  0.00  0.00    +0.000 C 
ATOM     35  H   UNL     1       3.216   7.335  17.726  0.00  0.00    +0.000 HD
ENDBRANCH  26  27
ENDBRANCH  25  26
ENDBRANCH  24  25
ENDBRANCH  22  24
ENDBRANCH  20  22
ENDBRANCH  11  20
BRANCH  17  36
ATOM     36  O   UNL     1      -1.086  12.726  17.320  0.00  0.00    +0.000 OA
ATOM     37  H   UNL     1      -0.178  13.085  17.335  0.00  0.00    +0.000 HD
ENDBRANCH  17  36
TORSDOF 8
ENDMDL
MODEL 2
REMARK VINA RESULT:      -6.3      9.214     10.775
REMARK  Name = 
REMARK  12 active torsions:
REMARK  status: ('A' for Active; 'I' for Inactive)
REMARK    1  A    between atoms: C_1  and  O_2
REMARK    2  A    between atoms: O_2  and  C_3
REMARK    3  A    between atoms: C_13  and  C_14
REMARK    4  A    between atoms: C_14  and  C_15
REMARK    5  A    between atoms: C_14  and  C_16
REMARK    6  A    between atoms: C_16  and  C_18
REMARK    7  A    between atoms: C_18  and  C_19
REMARK    8  A    between atoms: C_19  and  C_20
REMARK    9  A    between atoms: C_20  and  C_21
REMARK   10  A    between atoms: C_29  and  C_30
REMARK   11  A    between atoms: C_32  and  C_33
REMARK   12  A    between atoms: C_34  and  O_35
REMARK                            x       y       z     vdW  Elec       q    Type
REMARK                         _______ _______ _______ _____ _____    ______ ____
ROOT
ATOM      1  C   UNL     1      10.268  14.741  18.449  0.00  0.00    +0.000 C 
ATOM      2  C   UNL     1      11.352  15.758  19.021  0.00  0.00    +0.000 C 
ATOM      3  C   UNL     1      11.661  16.335  20.238  0.00  0.00    +0.000 C 
ATOM      4  C   UNL     1      11.112  15.976  21.619  0.00  0.00    +0.000 C 
ATOM      5  C   UNL     1      10.796  16.316  23.167  0.00  0.00    +0.000 C 
ATOM      6  C   UNL     1       9.632  15.375  23.473  0.00  0.00    +0.000 C 
ATOM      7  C   UNL     1       8.722  15.104  24.428  0.00  0.00    +0.000 C 
ATOM      8  C   UNL     1       7.527  14.213  24.266  0.00  0.00    +0.000 C 
ATOM      9  O   UNL     1       6.925  13.895  25.284  0.00  0.00    +0.000 OA
ATOM     10  O   UNL     1       7.007  13.799  23.072  0.00  0.00    +0.000 OA
ATOM     11  C   UNL     1       7.638  13.761  21.733  0.00  0.00    +0.000 C 
ATOM     12  C   UNL     1       7.348  15.202  21.157  0.00  0.00    +0.000 C 
ATOM     13  C   UNL     1       7.243  16.465  22.032  0.00  0.00    +0.000 C 
ATOM     14  C   UNL     1       7.015  15.527  19.885  0.00  0.00    +0.000 C 
ATOM     15  C   UNL     1       7.481  14.887  18.595  0.00  0.00    +0.000 C 
ATOM     16  C   UNL     1       6.493  15.401  17.502  0.00  0.00    +0.000 C 
ATOM     17  C   UNL     1       8.927  15.509  18.521  0.00  0.00    +0.000 C 
ENDROOT
BRANCH   1  19
ATOM     18  C   UNL     1      11.339  13.377  16.740  0.00  0.00    +0.000 C 
ATOM     19  O   UNL     1      10.490  14.483  17.033  0.00  0.00    +0.000 OA
ENDBRANCH   1  19
BRANCH  11  20
ATOM     20  C   UNL     1       8.859  12.695  21.940  0.00  0.00    +0.000 C 
ATOM     21  C   UNL     1       8.339  11.483  22.739  0.00  0.00    +0.000 C 
BRANCH  20  22
ATOM     22  C   UNL     1       9.872  12.212  20.858  0.00  0.00    +0.000 C 
ATOM     23  O   UNL     1      11.061  12.119  21.113  0.00  0.00    +0.000 OA
BRANCH  22  24
ATOM     24  C   UNL     1       9.358  11.603  19.548  0.00  0.00    +0.000 C 
BRANCH  24  25
ATOM     25  C   UNL     1       9.191  10.074  19.442  0.00  0.00    +0.000 C 
BRANCH  25  26
ATOM     26  C   UNL     1       8.796   9.477  18.073  0.00  0.00    +0.000 C 
BRANCH  26  27
ATOM     27  C   UNL     1       7.843   8.254  18.200  0.00  0.00    +0.000 C 
ATOM     28  C   UNL     1       8.435   7.122  19.057  0.00  0.00    +0.000 C 
ATOM     29  C   UNL     1       7.488   5.947  19.151  0.00  0.00    +0.000 C 
ATOM     30  O   UNL     1       7.513   5.170  20.101  0.00  0.00    +0.000 OA
ATOM     31  N   UNL     1       6.644   5.745  18.091  0.00  0.00    +0.000 N 
ATOM     32  C   UNL     1       6.588   6.458  16.927  0.00  0.00    +0.000 C 
ATOM     33  O   UNL     1       5.895   6.067  15.992  0.00  0.00    +0.000 OA
ATOM     34  C   UNL     1       7.489   7.672  16.822  0.00  0.00    +0.000 C 
ATOM     35  H   UNL     1       6.067   4.916  18.137  0.00  0.00    +0.000 HD
ENDBRANCH  26  27
ENDBRANCH  25  26
ENDBRANCH  24  25
ENDBRANCH  22  24
ENDBRANCH  20  22
ENDBRANCH  11  20
BRANCH  17  36
ATOM     36  O   UNL     1       8.967  16.577  17.560  0.00  0.00    +0.000 OA
ATOM     37  H   UNL     1       9.063  16.119  16.702  0.00  0.00    +0.000 HD
ENDBRANCH  17  36
TORSDOF 8
ENDMDL
MODEL 3
REMARK VINA RESULT:      -6.2      4.094     10.366
REMARK  Name = 
REMARK  12 active torsions:
REMARK  status: ('A' for Active; 'I' for Inactive)
REMARK    1  A    between atoms: C_1  and  O_2
REMARK    2  A    between atoms: O_2  and  C_3
REMARK    3  A    between atoms: C_13  and  C_14
REMARK    4  A    between atoms: C_14  and  C_15
REMARK    5  A    between atoms: C_14  and  C_16
REMARK    6  A    between atoms: C_16  and  C_18
REMARK    7  A    between atoms: C_18  and  C_19
REMARK    8  A    between atoms: C_19  and  C_20
REMARK    9  A    between atoms: C_20  and  C_21
REMARK   10  A    between atoms: C_29  and  C_30
REMARK   11  A    between atoms: C_32  and  C_33
REMARK   12  A    between atoms: C_34  and  O_35
REMARK                            x       y       z     vdW  Elec       q    Type
REMARK                         _______ _______ _______ _____ _____    ______ ____
ROOT
ATOM      1  C   UNL     1       5.430   5.904  16.779  0.00  0.00    +0.000 C 
ATOM      2  C   UNL     1       5.011   4.844  15.666  0.00  0.00    +0.000 C 
ATOM      3  C   UNL     1       4.199   3.729  15.580  0.00  0.00    +0.000 C 
ATOM      4  C   UNL     1       3.177   3.225  16.599  0.00  0.00    +0.000 C 
ATOM      5  C   UNL     1       2.253   2.068  17.248  0.00  0.00    +0.000 C 
ATOM      6  C   UNL     1       2.054   2.580  18.675  0.00  0.00    +0.000 C 
ATOM      7  C   UNL     1       1.554   2.200  19.867  0.00  0.00    +0.000 C 
ATOM      8  C   UNL     1       1.757   2.921  21.166  0.00  0.00    +0.000 C 
ATOM      9  O   UNL     1       1.059   2.576  22.111  0.00  0.00    +0.000 OA
ATOM     10  O   UNL     1       2.713   3.869  21.402  0.00  0.00    +0.000 OA
ATOM     11  C   UNL     1       3.484   4.688  20.439  0.00  0.00    +0.000 C 
ATOM     12  C   UNL     1       4.726   3.774  20.102  0.00  0.00    +0.000 C 
ATOM     13  C   UNL     1       4.673   2.236  20.085  0.00  0.00    +0.000 C 
ATOM     14  C   UNL     1       6.011   4.166  19.926  0.00  0.00    +0.000 C 
ATOM     15  C   UNL     1       6.531   5.445  19.307  0.00  0.00    +0.000 C 
ATOM     16  C   UNL     1       8.033   5.521  19.722  0.00  0.00    +0.000 C 
ATOM     17  C   UNL     1       6.284   5.101  17.788  0.00  0.00    +0.000 C 
ENDROOT
BRANCH   1  19
ATOM     18  C   UNL     1       6.768   7.903  17.152  0.00  0.00    +0.000 C 
ATOM     19  O   UNL     1       6.327   6.911  16.230  0.00  0.00    +0.000 OA
ENDBRANCH   1  19
BRANCH  11  20
ATOM     20  C   UNL     1       2.323   5.576  19.710  0.00  0.00    +0.000 C 
ATOM     21  C   UNL     1       1.687   6.524  20.748  0.00  0.00    +0.000 C 
BRANCH  20  22
ATOM     22  C   UNL     1       2.425   6.302  18.335  0.00  0.00    +0.000 C 
ATOM     23  O   UNL     1       1.811   5.891  17.364  0.00  0.00    +0.000 OA
BRANCH  22  24
ATOM     24  C   UNL     1       3.086   7.683  18.247  0.00  0.00    +0.000 C 
BRANCH  24  25
ATOM     25  C   UNL     1       2.248   8.893  17.790  0.00  0.00    +0.000 C 
BRANCH  25  26
ATOM     26  C   UNL     1       1.259   9.518  18.799  0.00  0.00    +0.000 C 
BRANCH  26  27
ATOM     27  C   UNL     1       0.363  10.619  18.163  0.00  0.00    +0.000 C 
ATOM     28  C   UNL     1       0.359  11.927  18.974  0.00  0.00    +0.000 C 
ATOM     29  C   UNL     1      -0.527  12.971  18.334  0.00  0.00    +0.000 C 
ATOM     30  O   UNL     1      -0.342  14.172  18.504  0.00  0.00    +0.000 OA
ATOM     31  N   UNL     1      -1.597  12.515  17.609  0.00  0.00    +0.000 N 
ATOM     32  C   UNL     1      -1.988  11.217  17.432  0.00  0.00    +0.000 C 
ATOM     33  O   UNL     1      -3.062  10.960  16.894  0.00  0.00    +0.000 OA
ATOM     34  C   UNL     1      -1.092  10.145  18.019  0.00  0.00    +0.000 C 
ATOM     35  H   UNL     1      -2.221  13.224  17.246  0.00  0.00    +0.000 HD
ENDBRANCH  26  27
ENDBRANCH  25  26
ENDBRANCH  24  25
ENDBRANCH  22  24
ENDBRANCH  20  22
ENDBRANCH  11  20
BRANCH  17  36
ATOM     36  O   UNL     1       7.518   4.738  17.147  0.00  0.00    +0.000 OA
ATOM     37  H   UNL     1       7.870   4.017  17.704  0.00  0.00    +0.000 HD
ENDBRANCH  17  36
TORSDOF 8
ENDMDL
MODEL 4
REMARK VINA RESULT:      -6.2      3.595      7.124
REMARK  Name = 
REMARK  12 active torsions:
REMARK  status: ('A' for Active; 'I' for Inactive)
REMARK    1  A    between atoms: C_1  and  O_2
REMARK    2  A    between atoms: O_2  and  C_3
REMARK    3  A    between atoms: C_13  and  C_14
REMARK    4  A    between atoms: C_14  and  C_15
REMARK    5  A    between atoms: C_14  and  C_16
REMARK    6  A    between atoms: C_16  and  C_18
REMARK    7  A    between atoms: C_18  and  C_19
REMARK    8  A    between atoms: C_19  and  C_20
REMARK    9  A    between atoms: C_20  and  C_21
REMARK   10  A    between atoms: C_29  and  C_30
REMARK   11  A    between atoms: C_32  and  C_33
REMARK   12  A    between atoms: C_34  and  O_35
REMARK                            x       y       z     vdW  Elec       q    Type
REMARK                         _______ _______ _______ _____ _____    ______ ____
ROOT
ATOM      1  C   UNL     1      -1.930  16.149  20.906  0.00  0.00    +0.000 C 
ATOM      2  C   UNL     1      -2.361  17.204  19.793  0.00  0.00    +0.000 C 
ATOM      3  C   UNL     1      -1.768  17.858  18.730  0.00  0.00    +0.000 C 
ATOM      4  C   UNL     1      -0.403  17.587  18.097  0.00  0.00    +0.000 C 
ATOM      5  C   UNL     1       0.879  18.025  17.216  0.00  0.00    +0.000 C 
ATOM      6  C   UNL     1       1.971  17.102  17.756  0.00  0.00    +0.000 C 
ATOM      7  C   UNL     1       3.299  16.891  17.684  0.00  0.00    +0.000 C 
ATOM      8  C   UNL     1       4.088  15.988  18.584  0.00  0.00    +0.000 C 
ATOM      9  O   UNL     1       5.239  15.734  18.251  0.00  0.00    +0.000 OA
ATOM     10  O   UNL     1       3.657  15.497  19.785  0.00  0.00    +0.000 OA
ATOM     11  C   UNL     1       2.278  15.375  20.311  0.00  0.00    +0.000 C 
ATOM     12  C   UNL     1       2.029  16.776  20.995  0.00  0.00    +0.000 C 
ATOM     13  C   UNL     1       2.655  18.091  20.498  0.00  0.00    +0.000 C 
ATOM     14  C   UNL     1       1.378  17.018  22.159  0.00  0.00    +0.000 C 
ATOM     15  C   UNL     1       0.178  16.298  22.736  0.00  0.00    +0.000 C 
ATOM     16  C   UNL     1       0.116  16.739  24.231  0.00  0.00    +0.000 C 
ATOM     17  C   UNL     1      -0.944  16.918  21.818  0.00  0.00    +0.000 C 
ENDROOT
BRANCH   1  19
ATOM     18  C   UNL     1      -4.333  15.832  21.130  0.00  0.00    +0.000 C 
ATOM     19  O   UNL     1      -3.056  15.802  21.760  0.00  0.00    +0.000 OA
ENDBRANCH   1  19
BRANCH  11  20
ATOM     20  C   UNL     1       1.585  14.328  19.267  0.00  0.00    +0.000 C 
ATOM     21  C   UNL     1       2.596  13.214  18.924  0.00  0.00    +0.000 C 
BRANCH  20  22
ATOM     22  C   UNL     1       0.152  13.721  19.364  0.00  0.00    +0.000 C 
ATOM     23  O   UNL     1      -0.705  14.007  18.544  0.00  0.00    +0.000 OA
BRANCH  22  24
ATOM     24  C   UNL     1      -0.122  12.563  20.331  0.00  0.00    +0.000 C 
BRANCH  24  25
ATOM     25  C   UNL     1      -1.392  11.709  20.144  0.00  0.00    +0.000 C 
BRANCH  25  26
ATOM     26  C   UNL     1      -1.396  10.647  19.021  0.00  0.00    +0.000 C 
BRANCH  26  27
ATOM     27  C   UNL     1      -2.233  11.082  17.784  0.00  0.00    +0.000 C 
ATOM     28  C   UNL     1      -3.726  11.263  18.107  0.00  0.00    +0.000 C 
ATOM     29  C   UNL     1      -4.511  11.676  16.882  0.00  0.00    +0.000 C 
ATOM     30  O   UNL     1      -5.560  12.307  16.967  0.00  0.00    +0.000 OA
ATOM     31  N   UNL     1      -4.035  11.250  15.670  0.00  0.00    +0.000 N 
ATOM     32  C   UNL     1      -2.952  10.450  15.437  0.00  0.00    +0.000 C 
ATOM     33  O   UNL     1      -2.735  10.011  14.311  0.00  0.00    +0.000 OA
ATOM     34  C   UNL     1      -2.115  10.062  16.639  0.00  0.00    +0.000 C 
ATOM     35  H   UNL     1      -4.608  11.473  14.866  0.00  0.00    +0.000 HD
ENDBRANCH  26  27
ENDBRANCH  25  26
ENDBRANCH  24  25
ENDBRANCH  22  24
ENDBRANCH  20  22
ENDBRANCH  11  20
BRANCH  17  36
ATOM     36  O   UNL     1      -1.682  17.922  22.535  0.00  0.00    +0.000 OA
ATOM     37  H   UNL     1      -2.180  18.391  21.837  0.00  0.00    +0.000 HD
ENDBRANCH  17  36
TORSDOF 8
ENDMDL
MODEL 5
REMARK VINA RESULT:      -6.1      3.370      5.806
REMARK  Name = 
REMARK  12 active torsions:
REMARK  status: ('A' for Active; 'I' for Inactive)
REMARK    1  A    between atoms: C_1  and  O_2
REMARK    2  A    between atoms: O_2  and  C_3
REMARK    3  A    between atoms: C_13  and  C_14
REMARK    4  A    between atoms: C_14  and  C_15
REMARK    5  A    between atoms: C_14  and  C_16
REMARK    6  A    between atoms: C_16  and  C_18
REMARK    7  A    between atoms: C_18  and  C_19
REMARK    8  A    between atoms: C_19  and  C_20
REMARK    9  A    between atoms: C_20  and  C_21
REMARK   10  A    between atoms: C_29  and  C_30
REMARK   11  A    between atoms: C_32  and  C_33
REMARK   12  A    between atoms: C_34  and  O_35
REMARK                            x       y       z     vdW  Elec       q    Type
REMARK                         _______ _______ _______ _____ _____    ______ ____
ROOT
ATOM      1  C   UNL     1      -0.229  11.399  19.416  0.00  0.00    +0.000 C 
ATOM      2  C   UNL     1      -1.616  11.320  18.636  0.00  0.00    +0.000 C 
ATOM      3  C   UNL     1      -2.905  11.790  18.806  0.00  0.00    +0.000 C 
ATOM      4  C   UNL     1      -3.408  12.821  19.816  0.00  0.00    +0.000 C 
ATOM      5  C   UNL     1      -4.578  13.523  20.684  0.00  0.00    +0.000 C 
ATOM      6  C   UNL     1      -3.798  14.107  21.861  0.00  0.00    +0.000 C 
ATOM      7  C   UNL     1      -3.986  14.706  23.052  0.00  0.00    +0.000 C 
ATOM      8  C   UNL     1      -2.927  14.938  24.088  0.00  0.00    +0.000 C 
ATOM      9  O   UNL     1      -3.207  15.689  25.015  0.00  0.00    +0.000 OA
ATOM     10  O   UNL     1      -1.710  14.317  24.126  0.00  0.00    +0.000 OA
ATOM     11  C   UNL     1      -0.977  13.616  23.047  0.00  0.00    +0.000 C 
ATOM     12  C   UNL     1      -1.535  12.142  23.133  0.00  0.00    +0.000 C 
ATOM     13  C   UNL     1      -2.969  11.796  23.575  0.00  0.00    +0.000 C 
ATOM     14  C   UNL     1      -0.838  10.989  22.983  0.00  0.00    +0.000 C 
ATOM     15  C   UNL     1       0.332  10.707  22.065  0.00  0.00    +0.000 C 
ATOM     16  C   UNL     1       0.956   9.379  22.593  0.00  0.00    +0.000 C 
ATOM     17  C   UNL     1      -0.452  10.572  20.704  0.00  0.00    +0.000 C 
ENDROOT
BRANCH   1  19
ATOM     18  C   UNL     1       1.982  11.477  18.401  0.00  0.00    +0.000 C 
ATOM     19  O   UNL     1       0.820  10.703  18.686  0.00  0.00    +0.000 OA
ENDBRANCH   1  19
BRANCH  11  20
ATOM     20  C   UNL     1      -0.696  14.809  21.968  0.00  0.00    +0.000 C 
ATOM     21  C   UNL     1      -0.000  15.984  22.685  0.00  0.00    +0.000 C 
BRANCH  20  22
ATOM     22  C   UNL     1      -0.109  14.652  20.532  0.00  0.00    +0.000 C 
ATOM     23  O   UNL     1      -0.808  14.828  19.548  0.00  0.00    +0.000 OA
BRANCH  22  24
ATOM     24  C   UNL     1       1.408  14.534  20.337  0.00  0.00    +0.000 C 
BRANCH  24  25
ATOM     25  C   UNL     1       2.173  15.687  19.660  0.00  0.00    +0.000 C 
BRANCH  25  26
ATOM     26  C   UNL     1       2.620  15.503  18.192  0.00  0.00    +0.000 C 
BRANCH  26  27
ATOM     27  C   UNL     1       4.142  15.751  17.989  0.00  0.00    +0.000 C 
ATOM     28  C   UNL     1       4.974  14.459  18.071  0.00  0.00    +0.000 C 
ATOM     29  C   UNL     1       6.447  14.737  17.879  0.00  0.00    +0.000 C 
ATOM     30  O   UNL     1       7.218  13.883  17.450  0.00  0.00    +0.000 OA
ATOM     31  N   UNL     1       6.902  15.967  18.274  0.00  0.00    +0.000 N 
ATOM     32  C   UNL     1       6.184  16.966  18.871  0.00  0.00    +0.000 C 
ATOM     33  O   UNL     1       6.754  17.955  19.323  0.00  0.00    +0.000 OA
ATOM     34  C   UNL     1       4.695  16.738  19.031  0.00  0.00    +0.000 C 
ATOM     35  H   UNL     1       7.901  16.113  18.206  0.00  0.00    +0.000 HD
ENDBRANCH  26  27
ENDBRANCH  25  26
ENDBRANCH  24  25
ENDBRANCH  22  24
ENDBRANCH  20  22
ENDBRANCH  11  20
BRANCH  17  36
ATOM     36  O   UNL     1      -0.583   9.189  20.334  0.00  0.00    +0.000 OA
ATOM     37  H   UNL     1       0.049   8.728  20.918  0.00  0.00    +0.000 HD
ENDBRANCH  17  36
TORSDOF 8
ENDMDL
MODEL 6
REMARK VINA RESULT:      -6.1      1.960      4.771
REMARK  Name = 
REMARK  12 active torsions:
REMARK  status: ('A' for Active; 'I' for Inactive)
REMARK    1  A    between atoms: C_1  and  O_2
REMARK    2  A    between atoms: O_2  and  C_3
REMARK    3  A    between atoms: C_13  and  C_14
REMARK    4  A    between atoms: C_14  and  C_15
REMARK    5  A    between atoms: C_14  and  C_16
REMARK    6  A    between atoms: C_16  and  C_18
REMARK    7  A    between atoms: C_18  and  C_19
REMARK    8  A    between atoms: C_19  and  C_20
REMARK    9  A    between atoms: C_20  and  C_21
REMARK   10  A    between atoms: C_29  and  C_30
REMARK   11  A    between atoms: C_32  and  C_33
REMARK   12  A    between atoms: C_34  and  O_35
REMARK                            x       y       z     vdW  Elec       q    Type
REMARK                         _______ _______ _______ _____ _____    ______ ____
ROOT
ATOM      1  C   UNL     1      -5.589  12.959  21.202  0.00  0.00    +0.000 C 
ATOM      2  C   UNL     1      -4.811  12.259  20.001  0.00  0.00    +0.000 C 
ATOM      3  C   UNL     1      -3.569  12.356  19.402  0.00  0.00    +0.000 C 
ATOM      4  C   UNL     1      -2.340  13.119  19.895  0.00  0.00    +0.000 C 
ATOM      5  C   UNL     1      -0.911  13.838  19.661  0.00  0.00    +0.000 C 
ATOM      6  C   UNL     1      -0.855  14.828  20.824  0.00  0.00    +0.000 C 
ATOM      7  C   UNL     1      -0.124  15.857  21.293  0.00  0.00    +0.000 C 
ATOM      8  C   UNL     1      -0.530  16.781  22.402  0.00  0.00    +0.000 C 
ATOM      9  O   UNL     1       0.333  17.520  22.858  0.00  0.00    +0.000 OA
ATOM     10  O   UNL     1      -1.801  16.923  22.884  0.00  0.00    +0.000 OA
ATOM     11  C   UNL     1      -2.962  16.011  22.764  0.00  0.00    +0.000 C 
ATOM     12  C   UNL     1      -3.621  16.447  21.398  0.00  0.00    +0.000 C 
ATOM     13  C   UNL     1      -2.823  16.998  20.203  0.00  0.00    +0.000 C 
ATOM     14  C   UNL     1      -4.944  16.542  21.118  0.00  0.00    +0.000 C 
ATOM     15  C   UNL     1      -6.080  15.678  21.621  0.00  0.00    +0.000 C 
ATOM     16  C   UNL     1      -7.379  16.476  21.291  0.00  0.00    +0.000 C 
ATOM     17  C   UNL     1      -5.839  14.408  20.720  0.00  0.00    +0.000 C 
ENDROOT
BRANCH   1  19
ATOM     18  C   UNL     1      -7.379  12.318  22.722  0.00  0.00    +0.000 C 
ATOM     19  O   UNL     1      -6.911  12.376  21.378  0.00  0.00    +0.000 OA
ENDBRANCH   1  19
BRANCH  11  20
ATOM     20  C   UNL     1      -2.459  14.681  23.568  0.00  0.00    +0.000 C 
ATOM     21  C   UNL     1      -1.727  15.115  24.854  0.00  0.00    +0.000 C 
BRANCH  20  22
ATOM     22  C   UNL     1      -3.286  13.389  23.848  0.00  0.00    +0.000 C 
ATOM     23  O   UNL     1      -4.393  13.453  24.354  0.00  0.00    +0.000 OA
BRANCH  22  24
ATOM     24  C   UNL     1      -2.832  12.049  23.254  0.00  0.00    +0.000 C 
BRANCH  24  25
ATOM     25  C   UNL     1      -1.325  11.774  23.080  0.00  0.00    +0.000 C 
BRANCH  25  26
ATOM     26  C   UNL     1      -0.839  10.309  23.158  0.00  0.00    +0.000 C 
BRANCH  26  27
ATOM     27  C   UNL     1       0.143   9.938  22.010  0.00  0.00    +0.000 C 
ATOM     28  C   UNL     1      -0.299  10.491  20.644  0.00  0.00    +0.000 C 
ATOM     29  C   UNL     1       0.672  10.105  19.551  0.00  0.00    +0.000 C 
ATOM     30  O   UNL     1       0.799  10.775  18.530  0.00  0.00    +0.000 OA
ATOM     31  N   UNL     1       1.355   8.929  19.717  0.00  0.00    +0.000 N 
ATOM     32  C   UNL     1       1.229   8.032  20.741  0.00  0.00    +0.000 C 
ATOM     33  O   UNL     1       1.784   6.938  20.680  0.00  0.00    +0.000 OA
ATOM     34  C   UNL     1       0.302   8.414  21.877  0.00  0.00    +0.000 C 
ATOM     35  H   UNL     1       1.947   8.648  18.946  0.00  0.00    +0.000 HD
ENDBRANCH  26  27
ENDBRANCH  25  26
ENDBRANCH  24  25
ENDBRANCH  22  24
ENDBRANCH  20  22
ENDBRANCH  11  20
BRANCH  17  36
ATOM     36  O   UNL     1      -6.792  14.367  19.645  0.00  0.00    +0.000 OA
ATOM     37  H   UNL     1      -7.539  14.904  19.971  0.00  0.00    +0.000 HD
ENDBRANCH  17  36
TORSDOF 8
ENDMDL
MODEL 7
REMARK VINA RESULT:      -6.0      2.010      3.144
REMARK  Name = 
REMARK  12 active torsions:
REMARK  status: ('A' for Active; 'I' for Inactive)
REMARK    1  A    between atoms: C_1  and  O_2
REMARK    2  A    between atoms: O_2  and  C_3
REMARK    3  A    between atoms: C_13  and  C_14
REMARK    4  A    between atoms: C_14  and  C_15
REMARK    5  A    between atoms: C_14  and  C_16
REMARK    6  A    between atoms: C_16  and  C_18
REMARK    7  A    between atoms: C_18  and  C_19
REMARK    8  A    between atoms: C_19  and  C_20
REMARK    9  A    between atoms: C_20  and  C_21
REMARK   10  A    between atoms: C_29  and  C_30
REMARK   11  A    between atoms: C_32  and  C_33
REMARK   12  A    between atoms: C_34  and  O_35
REMARK                            x       y       z     vdW  Elec       q    Type
REMARK                         _______ _______ _______ _____ _____    ______ ____
ROOT
ATOM      1  C   UNL     1      -0.098  11.035  18.464  0.00  0.00    +0.000 C 
ATOM      2  C   UNL     1       1.059  12.104  18.230  0.00  0.00    +0.000 C 
ATOM      3  C   UNL     1       1.537  13.238  18.859  0.00  0.00    +0.000 C 
ATOM      4  C   UNL     1       1.183  13.765  20.250  0.00  0.00    +0.000 C 
ATOM      5  C   UNL     1       1.086  14.944  21.353  0.00  0.00    +0.000 C 
ATOM      6  C   UNL     1      -0.029  14.437  22.267  0.00  0.00    +0.000 C 
ATOM      7  C   UNL     1      -0.799  14.828  23.300  0.00  0.00    +0.000 C 
ATOM      8  C   UNL     1      -2.009  14.104  23.808  0.00  0.00    +0.000 C 
ATOM      9  O   UNL     1      -2.465  14.464  24.886  0.00  0.00    +0.000 OA
ATOM     10  O   UNL     1      -2.691  13.133  23.129  0.00  0.00    +0.000 OA
ATOM     11  C   UNL     1      -2.252  12.296  21.989  0.00  0.00    +0.000 C 
ATOM     12  C   UNL     1      -2.612  13.181  20.733  0.00  0.00    +0.000 C 
ATOM     13  C   UNL     1      -2.589  14.720  20.739  0.00  0.00    +0.000 C 
ATOM     14  C   UNL     1      -3.117  12.759  19.548  0.00  0.00    +0.000 C 
ATOM     15  C   UNL     1      -2.838  11.468  18.809  0.00  0.00    +0.000 C 
ATOM     16  C   UNL     1      -3.965  11.357  17.737  0.00  0.00    +0.000 C 
ATOM     17  C   UNL     1      -1.412  11.818  18.234  0.00  0.00    +0.000 C 
ENDROOT
BRANCH   1  19
ATOM     18  C   UNL     1       1.066   9.156  17.444  0.00  0.00    +0.000 C 
ATOM     19  O   UNL     1      -0.076  10.007  17.433  0.00  0.00    +0.000 OA
ENDBRANCH   1  19
BRANCH  11  20
ATOM     20  C   UNL     1      -1.019  11.435  22.629  0.00  0.00    +0.000 C 
ATOM     21  C   UNL     1      -1.562  10.548  23.768  0.00  0.00    +0.000 C 
BRANCH  20  22
ATOM     22  C   UNL     1       0.086  10.663  21.847  0.00  0.00    +0.000 C 
ATOM     23  O   UNL     1       1.213  11.119  21.744  0.00  0.00    +0.000 OA
BRANCH  22  24
ATOM     24  C   UNL     1      -0.153   9.208  21.424  0.00  0.00    +0.000 C 
BRANCH  24  25
ATOM     25  C   UNL     1       1.011   8.200  21.499  0.00  0.00    +0.000 C 
BRANCH  25  26
ATOM     26  C   UNL     1       1.819   7.924  20.211  0.00  0.00    +0.000 C 
BRANCH  26  27
ATOM     27  C   UNL     1       2.330   6.457  20.123  0.00  0.00    +0.000 C 
ATOM     28  C   UNL     1       2.601   6.005  18.677  0.00  0.00    +0.000 C 
ATOM     29  C   UNL     1       3.087   4.574  18.628  0.00  0.00    +0.000 C 
ATOM     30  O   UNL     1       3.783   4.158  17.706  0.00  0.00    +0.000 OA
ATOM     31  N   UNL     1       2.656   3.738  19.624  0.00  0.00    +0.000 N 
ATOM     32  C   UNL     1       1.792   4.036  20.642  0.00  0.00    +0.000 C 
ATOM     33  O   UNL     1       1.362   3.146  21.371  0.00  0.00    +0.000 OA
ATOM     34  C   UNL     1       1.328   5.474  20.749  0.00  0.00    +0.000 C 
ATOM     35  H   UNL     1       2.930   2.769  19.539  0.00  0.00    +0.000 HD
ENDBRANCH  26  27
ENDBRANCH  25  26
ENDBRANCH  24  25
ENDBRANCH  22  24
ENDBRANCH  20  22
ENDBRANCH  11  20
BRANCH  17  36
ATOM     36  O   UNL     1      -1.501  12.152  16.839  0.00  0.00    +0.000 OA
ATOM     37  H   UNL     1      -0.645  11.856  16.471  0.00  0.00    +0.000 HD
ENDBRANCH  17  36
TORSDOF 8
ENDMDL
MODEL 8
REMARK VINA RESULT:      -6.0      3.180      5.666
REMARK  Name = 
REMARK  12 active torsions:
REMARK  status: ('A' for Active; 'I' for Inactive)
REMARK    1  A    between atoms: C_1  and  O_2
REMARK    2  A    between atoms: O_2  and  C_3
REMARK    3  A    between atoms: C_13  and  C_14
REMARK    4  A    between atoms: C_14  and  C_15
REMARK    5  A    between atoms: C_14  and  C_16
REMARK    6  A    between atoms: C_16  and  C_18
REMARK    7  A    between atoms: C_18  and  C_19
REMARK    8  A    between atoms: C_19  and  C_20
REMARK    9  A    between atoms: C_20  and  C_21
REMARK   10  A    between atoms: C_29  and  C_30
REMARK   11  A    between atoms: C_32  and  C_33
REMARK   12  A    between atoms: C_34  and  O_35
REMARK                            x       y       z     vdW  Elec       q    Type
REMARK                         _______ _______ _______ _____ _____    ______ ____
ROOT
ATOM      1  C   UNL     1      -0.246  10.827  19.030  0.00  0.00    +0.000 C 
ATOM      2  C   UNL     1      -1.705  10.728  18.399  0.00  0.00    +0.000 C 
ATOM      3  C   UNL     1      -2.949  11.287  18.623  0.00  0.00    +0.000 C 
ATOM      4  C   UNL     1      -3.305  12.465  19.530  0.00  0.00    +0.000 C 
ATOM      5  C   UNL     1      -4.351  13.336  20.401  0.00  0.00    +0.000 C 
ATOM      6  C   UNL     1      -3.434  14.021  21.414  0.00  0.00    +0.000 C 
ATOM      7  C   UNL     1      -3.478  14.776  22.528  0.00  0.00    +0.000 C 
ATOM      8  C   UNL     1      -2.313  15.079  23.422  0.00  0.00    +0.000 C 
ATOM      9  O   UNL     1      -2.466  15.956  24.263  0.00  0.00    +0.000 OA
ATOM     10  O   UNL     1      -1.126  14.400  23.430  0.00  0.00    +0.000 OA
ATOM     11  C   UNL     1      -0.534  13.527  22.390  0.00  0.00    +0.000 C 
ATOM     12  C   UNL     1      -1.145  12.109  22.721  0.00  0.00    +0.000 C 
ATOM     13  C   UNL     1      -2.542  11.904  23.335  0.00  0.00    +0.000 C 
ATOM     14  C   UNL     1      -0.517  10.910  22.661  0.00  0.00    +0.000 C 
ATOM     15  C   UNL     1       0.543  10.447  21.685  0.00  0.00    +0.000 C 
ATOM     16  C   UNL     1       1.158   9.164  22.324  0.00  0.00    +0.000 C 
ATOM     17  C   UNL     1      -0.376  10.184  20.431  0.00  0.00    +0.000 C 
ENDROOT
BRANCH   1  19
ATOM     18  C   UNL     1       1.998  10.536  18.132  0.00  0.00    +0.000 C 
ATOM     19  O   UNL     1       0.695   9.986  18.305  0.00  0.00    +0.000 OA
ENDBRANCH   1  19
BRANCH  11  20
ATOM     20  C   UNL     1      -0.309  14.555  21.141  0.00  0.00    +0.000 C 
ATOM     21  C   UNL     1       0.423  15.814  21.650  0.00  0.00    +0.000 C 
BRANCH  20  22
ATOM     22  C   UNL     1       0.203  14.195  19.713  0.00  0.00    +0.000 C 
ATOM     23  O   UNL     1      -0.512  14.343  18.737  0.00  0.00    +0.000 OA
BRANCH  22  24
ATOM     24  C   UNL     1       1.691  13.898  19.489  0.00  0.00    +0.000 C 
BRANCH  24  25
ATOM     25  C   UNL     1       2.527  14.855  18.617  0.00  0.00    +0.000 C 
BRANCH  25  26
ATOM     26  C   UNL     1       3.568  15.757  19.317  0.00  0.00    +0.000 C 
BRANCH  26  27
ATOM     27  C   UNL     1       4.477  14.972  20.306  0.00  0.00    +0.000 C 
ATOM     28  C   UNL     1       4.147  15.263  21.781  0.00  0.00    +0.000 C 
ATOM     29  C   UNL     1       5.053  14.493  22.713  0.00  0.00    +0.000 C 
ATOM     30  O   UNL     1       4.710  14.196  23.854  0.00  0.00    +0.000 OA
ATOM     31  N   UNL     1       6.310  14.200  22.253  0.00  0.00    +0.000 N 
ATOM     32  C   UNL     1       6.863  14.566  21.058  0.00  0.00    +0.000 C 
ATOM     33  O   UNL     1       8.057  14.376  20.842  0.00  0.00    +0.000 OA
ATOM     34  C   UNL     1       5.963  15.295  20.080  0.00  0.00    +0.000 C 
ATOM     35  H   UNL     1       6.929  13.747  22.913  0.00  0.00    +0.000 HD
ENDBRANCH  26  27
ENDBRANCH  25  26
ENDBRANCH  24  25
ENDBRANCH  22  24
ENDBRANCH  20  22
ENDBRANCH  11  20
BRANCH  17  36
ATOM     36  O   UNL     1      -0.604   8.776  20.262  0.00  0.00    +0.000 OA
ATOM     37  H   UNL     1      -1.325   8.576  20.889  0.00  0.00    +0.000 HD
ENDBRANCH  17  36
TORSDOF 8
ENDMDL
MODEL 9
REMARK VINA RESULT:      -6.0      4.038     10.220
REMARK  Name = 
REMARK  12 active torsions:
REMARK  status: ('A' for Active; 'I' for Inactive)
REMARK    1  A    between atoms: C_1  and  O_2
REMARK    2  A    between atoms: O_2  and  C_3
REMARK    3  A    between atoms: C_13  and  C_14
REMARK    4  A    between atoms: C_14  and  C_15
REMARK    5  A    between atoms: C_14  and  C_16
REMARK    6  A    between atoms: C_16  and  C_18
REMARK    7  A    between atoms: C_18  and  C_19
REMARK    8  A    between atoms: C_19  and  C_20
REMARK    9  A    between atoms: C_20  and  C_21
REMARK   10  A    between atoms: C_29  and  C_30
REMARK   11  A    between atoms: C_32  and  C_33
REMARK   12  A    between atoms: C_34  and  O_35
REMARK                            x       y       z     vdW  Elec       q    Type
REMARK                         _______ _______ _______ _____ _____    ______ ____
ROOT
ATOM      1  C   UNL     1       5.476   5.984  16.784  0.00  0.00    +0.000 C 
ATOM      2  C   UNL     1       5.068   4.935  15.657  0.00  0.00    +0.000 C 
ATOM      3  C   UNL     1       4.254   3.823  15.551  0.00  0.00    +0.000 C 
ATOM      4  C   UNL     1       3.217   3.314  16.553  0.00  0.00    +0.000 C 
ATOM      5  C   UNL     1       2.283   2.154  17.182  0.00  0.00    +0.000 C 
ATOM      6  C   UNL     1       2.067   2.654  18.610  0.00  0.00    +0.000 C 
ATOM      7  C   UNL     1       1.552   2.266  19.792  0.00  0.00    +0.000 C 
ATOM      8  C   UNL     1       1.740   2.975  21.099  0.00  0.00    +0.000 C 
ATOM      9  O   UNL     1       1.030   2.625  22.033  0.00  0.00    +0.000 OA
ATOM     10  O   UNL     1       2.696   3.919  21.355  0.00  0.00    +0.000 OA
ATOM     11  C   UNL     1       3.481   4.744  20.409  0.00  0.00    +0.000 C 
ATOM     12  C   UNL     1       4.725   3.829  20.080  0.00  0.00    +0.000 C 
ATOM     13  C   UNL     1       4.667   2.291  20.049  0.00  0.00    +0.000 C 
ATOM     14  C   UNL     1       6.013   4.218  19.923  0.00  0.00    +0.000 C 
ATOM     15  C   UNL     1       6.545   5.501  19.321  0.00  0.00    +0.000 C 
ATOM     16  C   UNL     1       8.041   5.569  19.756  0.00  0.00    +0.000 C 
ATOM     17  C   UNL     1       6.315   5.170  17.797  0.00  0.00    +0.000 C 
ENDROOT
BRANCH   1  19
ATOM     18  C   UNL     1       6.827   7.967  17.193  0.00  0.00    +0.000 C 
ATOM     19  O   UNL     1       6.382   6.993  16.254  0.00  0.00    +0.000 OA
ENDBRANCH   1  19
BRANCH  11  20
ATOM     20  C   UNL     1       2.331   5.641  19.673  0.00  0.00    +0.000 C 
ATOM     21  C   UNL     1       1.597   6.488  20.734  0.00  0.00    +0.000 C 
BRANCH  20  22
ATOM     22  C   UNL     1       2.488   6.468  18.361  0.00  0.00    +0.000 C 
ATOM     23  O   UNL     1       2.004   6.076  17.313  0.00  0.00    +0.000 OA
BRANCH  22  24
ATOM     24  C   UNL     1       3.022   7.905  18.424  0.00  0.00    +0.000 C 
BRANCH  24  25
ATOM     25  C   UNL     1       2.244   9.031  17.714  0.00  0.00    +0.000 C 
BRANCH  25  26
ATOM     26  C   UNL     1       0.753   9.222  18.070  0.00  0.00    +0.000 C 
BRANCH  26  27
ATOM     27  C   UNL     1       0.512  10.420  19.033  0.00  0.00    +0.000 C 
ATOM     28  C   UNL     1       1.511  11.569  18.818  0.00  0.00    +0.000 C 
ATOM     29  C   UNL     1       1.255  12.711  19.775  0.00  0.00    +0.000 C 
ATOM     30  O   UNL     1       1.581  13.865  19.511  0.00  0.00    +0.000 OA
ATOM     31  N   UNL     1       0.704  12.391  20.988  0.00  0.00    +0.000 N 
ATOM     32  C   UNL     1       0.400  11.144  21.459  0.00  0.00    +0.000 C 
ATOM     33  O   UNL     1       0.063  10.987  22.629  0.00  0.00    +0.000 OA
ATOM     34  C   UNL     1       0.598   9.984  20.505  0.00  0.00    +0.000 C 
ATOM     35  H   UNL     1       0.604  13.154  21.645  0.00  0.00    +0.000 HD
ENDBRANCH  26  27
ENDBRANCH  25  26
ENDBRANCH  24  25
ENDBRANCH  22  24
ENDBRANCH  20  22
ENDBRANCH  11  20
BRANCH  17  36
ATOM     36  O   UNL     1       7.556   4.809  17.168  0.00  0.00    +0.000 OA
ATOM     37  H   UNL     1       7.282   4.316  16.371  0.00  0.00    +0.000 HD
ENDBRANCH  17  36
TORSDOF 8
ENDMDL
