MODEL 1
REMARK VINA RESULT:      -7.9      0.000      0.000
REMARK  Name = 
REMARK  7 active torsions:
REMARK  status: ('A' for Active; 'I' for Inactive)
REMARK    1  A    between atoms: C_1  and  C_2
REMARK    2  A    between atoms: C_5  and  C_6
REMARK    3  A    between atoms: C_6  and  O_8
REMARK    4  A    between atoms: O_8  and  C_9
REMARK    5  A    between atoms: C_9  and  C_10
REMARK    6  A    between atoms: C_9  and  C_11
REMARK    7  A    between atoms: N_13  and  C_14
REMARK                            x       y       z     vdW  Elec       q    Type
REMARK                         _______ _______ _______ _____ _____    ______ ____
ROOT
ATOM      1  C   UNL     1       5.369   6.760  17.179  0.00  0.00    +0.000 C 
ATOM      2  O   UNL     1       4.792   7.153  16.166  0.00  0.00    +0.000 OA
ATOM      3  N   UNL     1       4.683   6.278  18.282  0.00  0.00    +0.000 N 
ATOM      4  H   UNL     1       5.210   5.863  19.041  0.00  0.00    +0.000 HD
ENDROOT
BRANCH   3   5
ATOM      5  C   UNL     1       3.244   6.044  18.219  0.00  0.00    +0.000 C 
ATOM      6  C   UNL     1       2.459   7.047  19.090  0.00  0.00    +0.000 C 
ATOM      7  C   UNL     1       2.089   6.501  20.465  0.00  0.00    +0.000 C 
ATOM      8  C   UNL     1       1.261   5.230  20.321  0.00  0.00    +0.000 C 
ATOM      9  C   UNL     1       1.963   4.205  19.470  0.00  0.00    +0.000 A 
ATOM     10  C   UNL     1       1.615   2.853  19.619  0.00  0.00    +0.000 A 
ATOM     11  C   UNL     1       2.224   1.873  18.838  0.00  0.00    +0.000 A 
ATOM     12  C   UNL     1       3.182   2.234  17.898  0.00  0.00    +0.000 A 
ATOM     13  C   UNL     1       3.516   3.577  17.721  0.00  0.00    +0.000 A 
ATOM     14  C   UNL     1       2.908   4.583  18.495  0.00  0.00    +0.000 A 
ENDBRANCH   3   5
BRANCH   1  15
ATOM     15  C   UNL     1       6.900   6.796  17.342  0.00  0.00    +0.000 C 
ATOM     16  C   UNL     1       7.376   8.226  17.605  0.00  0.00    +0.000 C 
BRANCH  15  17
ATOM     17  O   UNL     1       7.504   6.290  16.137  0.00  0.00    +0.000 OA
BRANCH  17  18
ATOM     18  C   UNL     1       7.520   4.935  16.018  0.00  0.00    +0.000 C 
ATOM     19  O   UNL     1       8.013   4.162  16.827  0.00  0.00    +0.000 OA
BRANCH  18  24
ATOM     20  C   UNL     1       4.728   3.204  11.381  0.00  0.00    +0.000 C 
ATOM     21  C   UNL     1       5.490   3.637  12.595  0.00  0.00    +0.000 A 
ATOM     22  C   UNL     1       6.768   4.184  12.501  0.00  0.00    +0.000 A 
ATOM     23  N   UNL     1       7.474   4.619  13.576  0.00  0.00    +0.000 NA
ATOM     24  C   UNL     1       6.848   4.475  14.775  0.00  0.00    +0.000 A 
ATOM     25  C   UNL     1       5.582   3.917  14.876  0.00  0.00    +0.000 A 
ATOM     26  N   UNL     1       4.877   3.493  13.796  0.00  0.00    +0.000 NA
ENDBRANCH  18  24
ENDBRANCH  17  18
ENDBRANCH  15  17
ENDBRANCH   1  15
TORSDOF 5
ENDMDL
MODEL 2
REMARK VINA RESULT:      -7.6      1.096      1.415
REMARK  Name = 
REMARK  7 active torsions:
REMARK  status: ('A' for Active; 'I' for Inactive)
REMARK    1  A    between atoms: C_1  and  C_2
REMARK    2  A    between atoms: C_5  and  C_6
REMARK    3  A    between atoms: C_6  and  O_8
REMARK    4  A    between atoms: O_8  and  C_9
REMARK    5  A    between atoms: C_9  and  C_10
REMARK    6  A    between atoms: C_9  and  C_11
REMARK    7  A    between atoms: N_13  and  C_14
REMARK                            x       y       z     vdW  Elec       q    Type
REMARK                         _______ _______ _______ _____ _____    ______ ____
ROOT
ATOM      1  C   UNL     1       5.553   6.740  17.431  0.00  0.00    +0.000 C 
ATOM      2  O   UNL     1       4.859   7.224  16.538  0.00  0.00    +0.000 OA
ATOM      3  N   UNL     1       5.006   6.046  18.498  0.00  0.00    +0.000 N 
ATOM      4  H   UNL     1       5.628   5.572  19.142  0.00  0.00    +0.000 HD
ENDROOT
BRANCH   3   5
ATOM      5  C   UNL     1       3.588   5.701  18.515  0.00  0.00    +0.000 C 
ATOM      6  C   UNL     1       2.692   6.951  18.625  0.00  0.00    +0.000 C 
ATOM      7  C   UNL     1       2.231   7.247  20.049  0.00  0.00    +0.000 C 
ATOM      8  C   UNL     1       1.471   6.054  20.614  0.00  0.00    +0.000 C 
ATOM      9  C   UNL     1       2.285   4.789  20.528  0.00  0.00    +0.000 A 
ATOM     10  C   UNL     1       1.981   3.734  21.403  0.00  0.00    +0.000 A 
ATOM     11  C   UNL     1       2.694   2.537  21.346  0.00  0.00    +0.000 A 
ATOM     12  C   UNL     1       3.712   2.383  20.412  0.00  0.00    +0.000 A 
ATOM     13  C   UNL     1       4.003   3.414  19.519  0.00  0.00    +0.000 A 
ATOM     14  C   UNL     1       3.291   4.627  19.556  0.00  0.00    +0.000 A 
ENDBRANCH   3   5
BRANCH   1  15
ATOM     15  C   UNL     1       7.085   6.883  17.477  0.00  0.00    +0.000 C 
ATOM     16  C   UNL     1       7.481   8.357  17.580  0.00  0.00    +0.000 C 
BRANCH  15  17
ATOM     17  O   UNL     1       7.638   6.307  16.279  0.00  0.00    +0.000 OA
BRANCH  17  18
ATOM     18  C   UNL     1       7.568   4.952  16.199  0.00  0.00    +0.000 C 
ATOM     19  O   UNL     1       8.057   4.170  17.002  0.00  0.00    +0.000 OA
BRANCH  18  24
ATOM     20  C   UNL     1       4.866   3.190  11.520  0.00  0.00    +0.000 C 
ATOM     21  C   UNL     1       5.551   3.677  12.758  0.00  0.00    +0.000 A 
ATOM     22  C   UNL     1       4.947   3.590  14.011  0.00  0.00    +0.000 A 
ATOM     23  N   UNL     1       5.552   3.990  15.160  0.00  0.00    +0.000 NA
ATOM     24  C   UNL     1       6.804   4.501  15.006  0.00  0.00    +0.000 A 
ATOM     25  C   UNL     1       7.403   4.603  13.760  0.00  0.00    +0.000 A 
ATOM     26  N   UNL     1       6.797   4.192  12.616  0.00  0.00    +0.000 NA
ENDBRANCH  18  24
ENDBRANCH  17  18
ENDBRANCH  15  17
ENDBRANCH   1  15
TORSDOF 5
ENDMDL
MODEL 3
REMARK VINA RESULT:      -7.4      1.116      1.160
REMARK  Name = 
REMARK  7 active torsions:
REMARK  status: ('A' for Active; 'I' for Inactive)
REMARK    1  A    between atoms: C_1  and  C_2
REMARK    2  A    between atoms: C_5  and  C_6
REMARK    3  A    between atoms: C_6  and  O_8
REMARK    4  A    between atoms: O_8  and  C_9
REMARK    5  A    between atoms: C_9  and  C_10
REMARK    6  A    between atoms: C_9  and  C_11
REMARK    7  A    between atoms: N_13  and  C_14
REMARK                            x       y       z     vdW  Elec       q    Type
REMARK                         _______ _______ _______ _____ _____    ______ ____
ROOT
ATOM      1  C   UNL     1       5.657   6.933  17.611  0.00  0.00    +0.000 C 
ATOM      2  O   UNL     1       5.042   7.288  16.606  0.00  0.00    +0.000 OA
ATOM      3  N   UNL     1       5.030   6.322  18.684  0.00  0.00    +0.000 N 
ATOM      4  H   UNL     1       5.599   5.948  19.434  0.00  0.00    +0.000 HD
ENDROOT
BRANCH   3   5
ATOM      5  C   UNL     1       3.633   5.905  18.592  0.00  0.00    +0.000 C 
ATOM      6  C   UNL     1       2.667   7.103  18.695  0.00  0.00    +0.000 C 
ATOM      7  C   UNL     1       2.101   7.311  20.095  0.00  0.00    +0.000 C 
ATOM      8  C   UNL     1       1.371   6.057  20.559  0.00  0.00    +0.000 C 
ATOM      9  C   UNL     1       2.254   4.840  20.476  0.00  0.00    +0.000 A 
ATOM     10  C   UNL     1       1.953   3.732  21.284  0.00  0.00    +0.000 A 
ATOM     11  C   UNL     1       2.730   2.577  21.225  0.00  0.00    +0.000 A 
ATOM     12  C   UNL     1       3.812   2.516  20.354  0.00  0.00    +0.000 A 
ATOM     13  C   UNL     1       4.105   3.600  19.526  0.00  0.00    +0.000 A 
ATOM     14  C   UNL     1       3.328   4.773  19.566  0.00  0.00    +0.000 A 
ENDBRANCH   3   5
BRANCH   1  15
ATOM     15  C   UNL     1       7.168   7.162  17.797  0.00  0.00    +0.000 C 
ATOM     16  C   UNL     1       7.515   8.637  17.590  0.00  0.00    +0.000 C 
BRANCH  15  17
ATOM     17  O   UNL     1       7.878   6.350  16.842  0.00  0.00    +0.000 OA
BRANCH  17  18
ATOM     18  C   UNL     1       7.540   5.033  16.833  0.00  0.00    +0.000 C 
ATOM     19  O   UNL     1       7.626   4.275  17.789  0.00  0.00    +0.000 OA
BRANCH  18  24
ATOM     20  C   UNL     1       5.366   3.311  11.873  0.00  0.00    +0.000 C 
ATOM     21  C   UNL     1       5.971   3.751  13.170  0.00  0.00    +0.000 A 
ATOM     22  C   UNL     1       7.044   4.638  13.213  0.00  0.00    +0.000 A 
ATOM     23  N   UNL     1       7.595   5.085  14.371  0.00  0.00    +0.000 NA
ATOM     24  C   UNL     1       7.030   4.595  15.507  0.00  0.00    +0.000 A 
ATOM     25  C   UNL     1       5.970   3.701  15.470  0.00  0.00    +0.000 A 
ATOM     26  N   UNL     1       5.417   3.264  14.308  0.00  0.00    +0.000 NA
ENDBRANCH  18  24
ENDBRANCH  17  18
ENDBRANCH  15  17
ENDBRANCH   1  15
TORSDOF 5
ENDMDL
MODEL 4
REMARK VINA RESULT:      -7.0      4.226      6.078
REMARK  Name = 
REMARK  7 active torsions:
REMARK  status: ('A' for Active; 'I' for Inactive)
REMARK    1  A    between atoms: C_1  and  C_2
REMARK    2  A    between atoms: C_5  and  C_6
REMARK    3  A    between atoms: C_6  and  O_8
REMARK    4  A    between atoms: O_8  and  C_9
REMARK    5  A    between atoms: C_9  and  C_10
REMARK    6  A    between atoms: C_9  and  C_11
REMARK    7  A    between atoms: N_13  and  C_14
REMARK                            x       y       z     vdW  Elec       q    Type
REMARK                         _______ _______ _______ _____ _____    ______ ____
ROOT
ATOM      1  C   UNL     1       1.874   8.629  18.365  0.00  0.00    +0.000 C 
ATOM      2  O   UNL     1       2.358   9.016  17.302  0.00  0.00    +0.000 OA
ATOM      3  N   UNL     1       1.082   9.445  19.157  0.00  0.00    +0.000 N 
ATOM      4  H   UNL     1       0.618   9.041  19.962  0.00  0.00    +0.000 HD
ENDROOT
BRANCH   3   5
ATOM      5  C   UNL     1       0.636  10.748  18.673  0.00  0.00    +0.000 C 
ATOM      6  C   UNL     1       1.078  11.892  19.608  0.00  0.00    +0.000 C 
ATOM      7  C   UNL     1      -0.003  12.328  20.591  0.00  0.00    +0.000 C 
ATOM      8  C   UNL     1      -1.250  12.771  19.838  0.00  0.00    +0.000 C 
ATOM      9  C   UNL     1      -1.735  11.703  18.893  0.00  0.00    +0.000 A 
ATOM     10  C   UNL     1      -3.082  11.715  18.497  0.00  0.00    +0.000 A 
ATOM     11  C   UNL     1      -3.570  10.758  17.609  0.00  0.00    +0.000 A 
ATOM     12  C   UNL     1      -2.716   9.784  17.104  0.00  0.00    +0.000 A 
ATOM     13  C   UNL     1      -1.369   9.779  17.469  0.00  0.00    +0.000 A 
ATOM     14  C   UNL     1      -0.855  10.741  18.359  0.00  0.00    +0.000 A 
ENDBRANCH   3   5
BRANCH   1  15
ATOM     15  C   UNL     1       2.124   7.224  18.941  0.00  0.00    +0.000 C 
ATOM     16  C   UNL     1       1.829   7.201  20.442  0.00  0.00    +0.000 C 
BRANCH  15  17
ATOM     17  O   UNL     1       3.499   6.866  18.703  0.00  0.00    +0.000 OA
BRANCH  17  18
ATOM     18  C   UNL     1       3.729   5.540  18.508  0.00  0.00    +0.000 C 
ATOM     19  O   UNL     1       3.321   4.639  19.227  0.00  0.00    +0.000 OA
BRANCH  18  24
ATOM     20  C   UNL     1       6.930   4.810  13.870  0.00  0.00    +0.000 C 
ATOM     21  C   UNL     1       6.061   4.981  15.077  0.00  0.00    +0.000 A 
ATOM     22  C   UNL     1       5.662   3.894  15.851  0.00  0.00    +0.000 A 
ATOM     23  N   UNL     1       4.904   4.015  16.972  0.00  0.00    +0.000 NA
ATOM     24  C   UNL     1       4.543   5.287  17.290  0.00  0.00    +0.000 A 
ATOM     25  C   UNL     1       4.926   6.372  16.515  0.00  0.00    +0.000 A 
ATOM     26  N   UNL     1       5.692   6.245  15.400  0.00  0.00    +0.000 NA
ENDBRANCH  18  24
ENDBRANCH  17  18
ENDBRANCH  15  17
ENDBRANCH   1  15
TORSDOF 5
ENDMDL
MODEL 5
REMARK VINA RESULT:      -6.9      2.690      6.869
REMARK  Name = 
REMARK  7 active torsions:
REMARK  status: ('A' for Active; 'I' for Inactive)
REMARK    1  A    between atoms: C_1  and  C_2
REMARK    2  A    between atoms: C_5  and  C_6
REMARK    3  A    between atoms: C_6  and  O_8
REMARK    4  A    between atoms: O_8  and  C_9
REMARK    5  A    between atoms: C_9  and  C_10
REMARK    6  A    between atoms: C_9  and  C_11
REMARK    7  A    between atoms: N_13  and  C_14
REMARK                            x       y       z     vdW  Elec       q    Type
REMARK                         _______ _______ _______ _____ _____    ______ ____
ROOT
ATOM      1  C   UNL     1       4.104   3.210  19.331  0.00  0.00    +0.000 C 
ATOM      2  O   UNL     1       4.884   2.535  20.002  0.00  0.00    +0.000 OA
ATOM      3  N   UNL     1       4.541   4.169  18.432  0.00  0.00    +0.000 N 
ATOM      4  H   UNL     1       3.863   4.613  17.825  0.00  0.00    +0.000 HD
ENDROOT
BRANCH   3   5
ATOM      5  C   UNL     1       5.959   4.295  18.108  0.00  0.00    +0.000 C 
ATOM      6  C   UNL     1       6.650   5.381  18.958  0.00  0.00    +0.000 C 
ATOM      7  C   UNL     1       6.773   6.725  18.248  0.00  0.00    +0.000 C 
ATOM      8  C   UNL     1       7.546   6.562  16.946  0.00  0.00    +0.000 C 
ATOM      9  C   UNL     1       6.932   5.506  16.065  0.00  0.00    +0.000 A 
ATOM     10  C   UNL     1       7.182   5.551  14.685  0.00  0.00    +0.000 A 
ATOM     11  C   UNL     1       6.652   4.583  13.834  0.00  0.00    +0.000 A 
ATOM     12  C   UNL     1       5.871   3.558  14.356  0.00  0.00    +0.000 A 
ATOM     13  C   UNL     1       5.639   3.486  15.730  0.00  0.00    +0.000 A 
ATOM     14  C   UNL     1       6.172   4.451  16.606  0.00  0.00    +0.000 A 
ENDBRANCH   3   5
BRANCH   1  15
ATOM     15  C   UNL     1       2.574   3.087  19.444  0.00  0.00    +0.000 C 
ATOM     16  C   UNL     1       2.035   2.125  18.383  0.00  0.00    +0.000 C 
BRANCH  15  17
ATOM     17  O   UNL     1       1.993   4.393  19.265  0.00  0.00    +0.000 OA
BRANCH  17  18
ATOM     18  C   UNL     1       2.081   5.221  20.340  0.00  0.00    +0.000 C 
ATOM     19  O   UNL     1       2.291   4.865  21.491  0.00  0.00    +0.000 OA
BRANCH  18  24
ATOM     20  C   UNL     1       1.403  10.605  18.653  0.00  0.00    +0.000 C 
ATOM     21  C   UNL     1       1.602   9.199  19.125  0.00  0.00    +0.000 A 
ATOM     22  C   UNL     1       1.193   8.786  20.392  0.00  0.00    +0.000 A 
ATOM     23  N   UNL     1       1.325   7.511  20.840  0.00  0.00    +0.000 NA
ATOM     24  C   UNL     1       1.904   6.648  19.962  0.00  0.00    +0.000 A 
ATOM     25  C   UNL     1       2.327   7.056  18.706  0.00  0.00    +0.000 A 
ATOM     26  N   UNL     1       2.182   8.331  18.260  0.00  0.00    +0.000 NA
ENDBRANCH  18  24
ENDBRANCH  17  18
ENDBRANCH  15  17
ENDBRANCH   1  15
TORSDOF 5
ENDMDL
MODEL 6
REMARK VINA RESULT:      -6.8      4.858      8.809
REMARK  Name = 
REMARK  7 active torsions:
REMARK  status: ('A' for Active; 'I' for Inactive)
REMARK    1  A    between atoms: C_1  and  C_2
REMARK    2  A    between atoms: C_5  and  C_6
REMARK    3  A    between atoms: C_6  and  O_8
REMARK    4  A    between atoms: O_8  and  C_9
REMARK    5  A    between atoms: C_9  and  C_10
REMARK    6  A    between atoms: C_9  and  C_11
REMARK    7  A    between atoms: N_13  and  C_14
REMARK                            x       y       z     vdW  Elec       q    Type
REMARK                         _______ _______ _______ _____ _____    ______ ____
ROOT
ATOM      1  C   UNL     1       2.091   7.796  19.290  0.00  0.00    +0.000 C 
ATOM      2  O   UNL     1       2.290   7.584  20.485  0.00  0.00    +0.000 OA
ATOM      3  N   UNL     1       2.744   7.089  18.293  0.00  0.00    +0.000 N 
ATOM      4  H   UNL     1       2.459   7.225  17.331  0.00  0.00    +0.000 HD
ENDROOT
BRANCH   3   5
ATOM      5  C   UNL     1       3.569   5.930  18.621  0.00  0.00    +0.000 C 
ATOM      6  C   UNL     1       4.886   5.914  17.819  0.00  0.00    +0.000 C 
ATOM      7  C   UNL     1       4.833   5.029  16.578  0.00  0.00    +0.000 C 
ATOM      8  C   UNL     1       4.483   3.599  16.966  0.00  0.00    +0.000 C 
ATOM      9  C   UNL     1       3.208   3.538  17.765  0.00  0.00    +0.000 A 
ATOM     10  C   UNL     1       2.486   2.334  17.790  0.00  0.00    +0.000 A 
ATOM     11  C   UNL     1       1.312   2.225  18.533  0.00  0.00    +0.000 A 
ATOM     12  C   UNL     1       0.851   3.316  19.261  0.00  0.00    +0.000 A 
ATOM     13  C   UNL     1       1.575   4.509  19.267  0.00  0.00    +0.000 A 
ATOM     14  C   UNL     1       2.767   4.636  18.529  0.00  0.00    +0.000 A 
ENDBRANCH   3   5
BRANCH   1  15
ATOM     15  C   UNL     1       1.130   8.885  18.778  0.00  0.00    +0.000 C 
ATOM     16  C   UNL     1       1.880   9.893  17.906  0.00  0.00    +0.000 C 
BRANCH  15  17
ATOM     17  O   UNL     1       0.545   9.553  19.912  0.00  0.00    +0.000 OA
BRANCH  17  18
ATOM     18  C   UNL     1      -0.583  10.266  19.649  0.00  0.00    +0.000 C 
ATOM     19  O   UNL     1      -1.311  10.103  18.680  0.00  0.00    +0.000 OA
BRANCH  18  24
ATOM     20  C   UNL     1      -1.428  14.080  23.775  0.00  0.00    +0.000 C 
ATOM     21  C   UNL     1      -1.241  13.073  22.683  0.00  0.00    +0.000 A 
ATOM     22  C   UNL     1      -1.684  13.312  21.384  0.00  0.00    +0.000 A 
ATOM     23  N   UNL     1      -1.501  12.437  20.361  0.00  0.00    +0.000 NA
ATOM     24  C   UNL     1      -0.855  11.287  20.694  0.00  0.00    +0.000 A 
ATOM     25  C   UNL     1      -0.425  11.038  21.989  0.00  0.00    +0.000 A 
ATOM     26  N   UNL     1      -0.603  11.921  23.005  0.00  0.00    +0.000 NA
ENDBRANCH  18  24
ENDBRANCH  17  18
ENDBRANCH  15  17
ENDBRANCH   1  15
TORSDOF 5
ENDMDL
MODEL 7
REMARK VINA RESULT:      -6.8      2.998      5.154
REMARK  Name = 
REMARK  7 active torsions:
REMARK  status: ('A' for Active; 'I' for Inactive)
REMARK    1  A    between atoms: C_1  and  C_2
REMARK    2  A    between atoms: C_5  and  C_6
REMARK    3  A    between atoms: C_6  and  O_8
REMARK    4  A    between atoms: O_8  and  C_9
REMARK    5  A    between atoms: C_9  and  C_10
REMARK    6  A    between atoms: C_9  and  C_11
REMARK    7  A    between atoms: N_13  and  C_14
REMARK                            x       y       z     vdW  Elec       q    Type
REMARK                         _______ _______ _______ _____ _____    ______ ____
ROOT
ATOM      1  C   UNL     1       2.479   6.334  18.625  0.00  0.00    +0.000 C 
ATOM      2  O   UNL     1       1.823   6.089  17.614  0.00  0.00    +0.000 OA
ATOM      3  N   UNL     1       2.362   7.533  19.311  0.00  0.00    +0.000 N 
ATOM      4  H   UNL     1       2.839   7.636  20.198  0.00  0.00    +0.000 HD
ENDROOT
BRANCH   3   5
ATOM      5  C   UNL     1       1.315   8.489  18.964  0.00  0.00    +0.000 C 
ATOM      6  C   UNL     1       1.734   9.404  17.794  0.00  0.00    +0.000 C 
ATOM      7  C   UNL     1       2.274  10.757  18.242  0.00  0.00    +0.000 C 
ATOM      8  C   UNL     1       1.233  11.488  19.080  0.00  0.00    +0.000 C 
ATOM      9  C   UNL     1       0.767  10.647  20.240  0.00  0.00    +0.000 A 
ATOM     10  C   UNL     1       0.212  11.291  21.358  0.00  0.00    +0.000 A 
ATOM     11  C   UNL     1      -0.251  10.552  22.445  0.00  0.00    +0.000 A 
ATOM     12  C   UNL     1      -0.169   9.164  22.423  0.00  0.00    +0.000 A 
ATOM     13  C   UNL     1       0.354   8.513  21.306  0.00  0.00    +0.000 A 
ATOM     14  C   UNL     1       0.821   9.240  20.195  0.00  0.00    +0.000 A 
ENDBRANCH   3   5
BRANCH   1  15
ATOM     15  C   UNL     1       3.518   5.361  19.211  0.00  0.00    +0.000 C 
ATOM     16  C   UNL     1       3.055   4.842  20.574  0.00  0.00    +0.000 C 
BRANCH  15  17
ATOM     17  O   UNL     1       4.773   6.054  19.348  0.00  0.00    +0.000 OA
BRANCH  17  18
ATOM     18  C   UNL     1       5.881   5.302  19.115  0.00  0.00    +0.000 C 
ATOM     19  O   UNL     1       6.608   4.827  19.977  0.00  0.00    +0.000 OA
BRANCH  18  24
ATOM     20  C   UNL     1       7.025   4.646  13.587  0.00  0.00    +0.000 C 
ATOM     21  C   UNL     1       6.689   4.822  15.035  0.00  0.00    +0.000 A 
ATOM     22  C   UNL     1       5.839   3.941  15.701  0.00  0.00    +0.000 A 
ATOM     23  N   UNL     1       5.539   4.050  17.021  0.00  0.00    +0.000 NA
ATOM     24  C   UNL     1       6.123   5.098  17.662  0.00  0.00    +0.000 A 
ATOM     25  C   UNL     1       6.959   5.985  17.001  0.00  0.00    +0.000 A 
ATOM     26  N   UNL     1       7.262   5.866  15.682  0.00  0.00    +0.000 NA
ENDBRANCH  18  24
ENDBRANCH  17  18
ENDBRANCH  15  17
ENDBRANCH   1  15
TORSDOF 5
ENDMDL
MODEL 8
REMARK VINA RESULT:      -6.7      4.317      6.604
REMARK  Name = 
REMARK  7 active torsions:
REMARK  status: ('A' for Active; 'I' for Inactive)
REMARK    1  A    between atoms: C_1  and  C_2
REMARK    2  A    between atoms: C_5  and  C_6
REMARK    3  A    between atoms: C_6  and  O_8
REMARK    4  A    between atoms: O_8  and  C_9
REMARK    5  A    between atoms: C_9  and  C_10
REMARK    6  A    between atoms: C_9  and  C_11
REMARK    7  A    between atoms: N_13  and  C_14
REMARK                            x       y       z     vdW  Elec       q    Type
REMARK                         _______ _______ _______ _____ _____    ______ ____
ROOT
ATOM      1  C   UNL     1       1.799   9.044  18.289  0.00  0.00    +0.000 C 
ATOM      2  O   UNL     1       2.249   9.588  17.281  0.00  0.00    +0.000 OA
ATOM      3  N   UNL     1       0.912   9.682  19.140  0.00  0.00    +0.000 N 
ATOM      4  H   UNL     1       0.487   9.150  19.889  0.00  0.00    +0.000 HD
ENDROOT
BRANCH   3   5
ATOM      5  C   UNL     1       0.328  10.970  18.778  0.00  0.00    +0.000 C 
ATOM      6  C   UNL     1       0.576  12.040  19.861  0.00  0.00    +0.000 C 
ATOM      7  C   UNL     1      -0.598  12.222  20.818  0.00  0.00    +0.000 C 
ATOM      8  C   UNL     1      -1.854  12.598  20.042  0.00  0.00    +0.000 C 
ATOM      9  C   UNL     1      -2.153  11.600  18.955  0.00  0.00    +0.000 A 
ATOM     10  C   UNL     1      -3.470  11.497  18.479  0.00  0.00    +0.000 A 
ATOM     11  C   UNL     1      -3.789  10.601  17.461  0.00  0.00    +0.000 A 
ATOM     12  C   UNL     1      -2.795   9.804  16.904  0.00  0.00    +0.000 A 
ATOM     13  C   UNL     1      -1.478   9.918  17.349  0.00  0.00    +0.000 A 
ATOM     14  C   UNL     1      -1.134  10.821  18.372  0.00  0.00    +0.000 A 
ENDBRANCH   3   5
BRANCH   1  15
ATOM     15  C   UNL     1       2.198   7.623  18.727  0.00  0.00    +0.000 C 
ATOM     16  C   UNL     1       1.801   7.382  20.184  0.00  0.00    +0.000 C 
BRANCH  15  17
ATOM     17  O   UNL     1       3.623   7.477  18.574  0.00  0.00    +0.000 OA
BRANCH  17  18
ATOM     18  C   UNL     1       4.019   6.651  17.569  0.00  0.00    +0.000 C 
ATOM     19  O   UNL     1       4.402   7.015  16.466  0.00  0.00    +0.000 OA
BRANCH  18  24
ATOM     20  C   UNL     1       3.707   1.118  18.826  0.00  0.00    +0.000 C 
ATOM     21  C   UNL     1       3.774   2.584  18.527  0.00  0.00    +0.000 A 
ATOM     22  C   UNL     1       4.482   3.465  19.341  0.00  0.00    +0.000 A 
ATOM     23  N   UNL     1       4.593   4.794  19.081  0.00  0.00    +0.000 NA
ATOM     24  C   UNL     1       3.948   5.219  17.961  0.00  0.00    +0.000 A 
ATOM     25  C   UNL     1       3.230   4.348  17.156  0.00  0.00    +0.000 A 
ATOM     26  N   UNL     1       3.131   3.019  17.415  0.00  0.00    +0.000 NA
ENDBRANCH  18  24
ENDBRANCH  17  18
ENDBRANCH  15  17
ENDBRANCH   1  15
TORSDOF 5
ENDMDL
MODEL 9
REMARK VINA RESULT:      -6.7      4.420      7.662
REMARK  Name = 
REMARK  7 active torsions:
REMARK  status: ('A' for Active; 'I' for Inactive)
REMARK    1  A    between atoms: C_1  and  C_2
REMARK    2  A    between atoms: C_5  and  C_6
REMARK    3  A    between atoms: C_6  and  O_8
REMARK    4  A    between atoms: O_8  and  C_9
REMARK    5  A    between atoms: C_9  and  C_10
REMARK    6  A    between atoms: C_9  and  C_11
REMARK    7  A    between atoms: N_13  and  C_14
REMARK                            x       y       z     vdW  Elec       q    Type
REMARK                         _______ _______ _______ _____ _____    ______ ____
ROOT
ATOM      1  C   UNL     1       2.330   7.338  19.072  0.00  0.00    +0.000 C 
ATOM      2  O   UNL     1       2.135   6.876  17.948  0.00  0.00    +0.000 OA
ATOM      3  N   UNL     1       3.024   6.642  20.048  0.00  0.00    +0.000 N 
ATOM      4  H   UNL     1       3.253   7.114  20.914  0.00  0.00    +0.000 HD
ENDROOT
BRANCH   3   5
ATOM      5  C   UNL     1       3.714   5.396  19.726  0.00  0.00    +0.000 C 
ATOM      6  C   UNL     1       4.853   5.615  18.709  0.00  0.00    +0.000 C 
ATOM      7  C   UNL     1       4.454   5.305  17.270  0.00  0.00    +0.000 C 
ATOM      8  C   UNL     1       3.972   3.864  17.157  0.00  0.00    +0.000 C 
ATOM      9  C   UNL     1       2.862   3.574  18.133  0.00  0.00    +0.000 A 
ATOM     10  C   UNL     1       1.987   2.510  17.860  0.00  0.00    +0.000 A 
ATOM     11  C   UNL     1       0.958   2.192  18.744  0.00  0.00    +0.000 A 
ATOM     12  C   UNL     1       0.797   2.930  19.911  0.00  0.00    +0.000 A 
ATOM     13  C   UNL     1       1.678   3.970  20.207  0.00  0.00    +0.000 A 
ATOM     14  C   UNL     1       2.728   4.303  19.331  0.00  0.00    +0.000 A 
ENDBRANCH   3   5
BRANCH   1  15
ATOM     15  C   UNL     1       1.798   8.712  19.520  0.00  0.00    +0.000 C 
ATOM     16  C   UNL     1       1.001   8.578  20.819  0.00  0.00    +0.000 C 
BRANCH  15  17
ATOM     17  O   UNL     1       0.957   9.243  18.478  0.00  0.00    +0.000 OA
BRANCH  17  18
ATOM     18  C   UNL     1       0.604  10.548  18.625  0.00  0.00    +0.000 C 
ATOM     19  O   UNL     1       1.370  11.460  18.901  0.00  0.00    +0.000 OA
BRANCH  18  24
ATOM     20  C   UNL     1      -4.970  11.127  17.682  0.00  0.00    +0.000 C 
ATOM     21  C   UNL     1      -3.497  11.009  17.920  0.00  0.00    +0.000 A 
ATOM     22  C   UNL     1      -2.833  11.832  18.827  0.00  0.00    +0.000 A 
ATOM     23  N   UNL     1      -1.505  11.729  19.094  0.00  0.00    +0.000 NA
ATOM     24  C   UNL     1      -0.849  10.762  18.398  0.00  0.00    +0.000 A 
ATOM     25  C   UNL     1      -1.502   9.950  17.483  0.00  0.00    +0.000 A 
ATOM     26  N   UNL     1      -2.832  10.051  17.227  0.00  0.00    +0.000 NA
ENDBRANCH  18  24
ENDBRANCH  17  18
ENDBRANCH  15  17
ENDBRANCH   1  15
TORSDOF 5
ENDMDL
