MODEL 1
REMARK VINA RESULT:      -7.3      0.000      0.000
REMARK  Name = 
REMARK  4 active torsions:
REMARK  status: ('A' for Active; 'I' for Inactive)
REMARK    1  A    between atoms: C_1  and  N_2
REMARK    2  A    between atoms: C_6  and  C_7
REMARK    3  A    between atoms: C_9  and  N_10
REMARK    4  A    between atoms: C_13  and  C_14
REMARK                            x       y       z     vdW  Elec       q    Type
REMARK                         _______ _______ _______ _____ _____    ______ ____
ROOT
ATOM      1  C   UNL     1       3.501   5.375  19.467  0.00  0.00    +0.000 C 
ATOM      2  C   UNL     1       2.392   6.414  19.710  0.00  0.00    +0.000 C 
ATOM      3  C   UNL     1       2.202   7.523  18.650  0.00  0.00    +0.000 C 
ATOM      4  C   UNL     1       3.418   7.703  17.733  0.00  0.00    +0.000 C 
ATOM      5  C   UNL     1       4.054   6.383  17.397  0.00  0.00    +0.000 C 
ATOM      6  O   UNL     1       4.551   5.836  18.611  0.00  0.00    +0.000 OA
ENDROOT
BRANCH   3   7
ATOM      7  N   UNL     1       1.959   8.860  19.213  0.00  0.00    +0.000 N 
ATOM      8  C   UNL     1       0.963   9.680  18.822  0.00  0.00    +0.000 A 
ATOM      9  N   UNL     1      -0.151   9.348  18.220  0.00  0.00    +0.000 NA
ATOM     10  C   UNL     1      -0.962  10.475  18.117  0.00  0.00    +0.000 A 
ATOM     11  N   UNL     1      -0.514  11.660  18.536  0.00  0.00    +0.000 NA
ATOM     12  S   UNL     1       1.007  11.381  19.163  0.00  0.00    +0.000 S 
ATOM     13  H   UNL     1       2.791   9.334  19.548  0.00  0.00    +0.000 HD
BRANCH  10  14
ATOM     14  C   UNL     1      -2.347  10.331  17.592  0.00  0.00    +0.000 C 
ATOM     15  C   UNL     1      -3.244  11.520  17.921  0.00  0.00    +0.000 C 
ATOM     16  C   UNL     1      -4.395  11.387  16.934  0.00  0.00    +0.000 C 
ATOM     17  C   UNL     1      -3.811  10.710  15.696  0.00  0.00    +0.000 C 
ATOM     18  C   UNL     1      -2.392  10.290  16.062  0.00  0.00    +0.000 C 
ENDBRANCH  10  14
ENDBRANCH   3   7
BRANCH   1  24
ATOM     19  C   UNL     1       2.392   3.185  21.268  0.00  0.00    +0.000 C 
ATOM     20  N   UNL     1       2.610   3.037  19.846  0.00  0.00    +0.000 N 
ATOM     21  C   UNL     1       2.367   1.895  19.137  0.00  0.00    +0.000 A 
ATOM     22  C   UNL     1       2.768   2.188  17.859  0.00  0.00    +0.000 A 
ATOM     23  N   UNL     1       3.241   3.478  17.769  0.00  0.00    +0.000 NA
ATOM     24  C   UNL     1       3.125   3.990  18.982  0.00  0.00    +0.000 A 
ENDBRANCH   1  24
TORSDOF 3
ENDMDL
MODEL 2
REMARK VINA RESULT:      -7.3      3.092      8.517
REMARK  Name = 
REMARK  4 active torsions:
REMARK  status: ('A' for Active; 'I' for Inactive)
REMARK    1  A    between atoms: C_1  and  N_2
REMARK    2  A    between atoms: C_6  and  C_7
REMARK    3  A    between atoms: C_9  and  N_10
REMARK    4  A    between atoms: C_13  and  C_14
REMARK                            x       y       z     vdW  Elec       q    Type
REMARK                         _______ _______ _______ _____ _____    ______ ____
ROOT
ATOM      1  C   UNL     1       0.126  10.006  19.905  0.00  0.00    +0.000 C 
ATOM      2  C   UNL     1       0.672   8.909  20.838  0.00  0.00    +0.000 C 
ATOM      3  C   UNL     1       1.824   8.024  20.310  0.00  0.00    +0.000 C 
ATOM      4  C   UNL     1       1.968   8.060  18.783  0.00  0.00    +0.000 C 
ATOM      5  C   UNL     1       1.708   9.437  18.238  0.00  0.00    +0.000 C 
ATOM      6  O   UNL     1       0.350   9.750  18.516  0.00  0.00    +0.000 OA
ENDROOT
BRANCH   3   7
ATOM      7  N   UNL     1       1.687   6.596  20.637  0.00  0.00    +0.000 N 
ATOM      8  C   UNL     1       2.454   5.620  20.113  0.00  0.00    +0.000 A 
ATOM      9  N   UNL     1       3.642   5.742  19.576  0.00  0.00    +0.000 NA
ATOM     10  C   UNL     1       4.138   4.475  19.284  0.00  0.00    +0.000 A 
ATOM     11  N   UNL     1       3.381   3.397  19.496  0.00  0.00    +0.000 NA
ATOM     12  S   UNL     1       1.957   3.957  20.160  0.00  0.00    +0.000 S 
ATOM     13  H   UNL     1       0.746   6.309  20.886  0.00  0.00    +0.000 HD
BRANCH  10  14
ATOM     14  C   UNL     1       5.535   4.335  18.792  0.00  0.00    +0.000 C 
ATOM     15  C   UNL     1       5.653   4.428  17.274  0.00  0.00    +0.000 C 
ATOM     16  C   UNL     1       7.127   4.727  17.044  0.00  0.00    +0.000 C 
ATOM     17  C   UNL     1       7.595   5.506  18.272  0.00  0.00    +0.000 C 
ATOM     18  C   UNL     1       6.441   5.472  19.269  0.00  0.00    +0.000 C 
ENDBRANCH  10  14
ENDBRANCH   3   7
BRANCH   1  24
ATOM     19  C   UNL     1      -1.181  12.382  18.522  0.00  0.00    +0.000 C 
ATOM     20  N   UNL     1      -0.121  12.492  19.500  0.00  0.00    +0.000 N 
ATOM     21  C   UNL     1       0.440  13.667  19.910  0.00  0.00    +0.000 A 
ATOM     22  C   UNL     1       1.429  13.293  20.785  0.00  0.00    +0.000 A 
ATOM     23  N   UNL     1       1.479  11.924  20.923  0.00  0.00    +0.000 NA
ATOM     24  C   UNL     1       0.520  11.448  20.148  0.00  0.00    +0.000 A 
ENDBRANCH   1  24
TORSDOF 3
ENDMDL
MODEL 3
REMARK VINA RESULT:      -7.1      0.675      1.072
REMARK  Name = 
REMARK  4 active torsions:
REMARK  status: ('A' for Active; 'I' for Inactive)
REMARK    1  A    between atoms: C_1  and  N_2
REMARK    2  A    between atoms: C_6  and  C_7
REMARK    3  A    between atoms: C_9  and  N_10
REMARK    4  A    between atoms: C_13  and  C_14
REMARK                            x       y       z     vdW  Elec       q    Type
REMARK                         _______ _______ _______ _____ _____    ______ ____
ROOT
ATOM      1  C   UNL     1       3.152   5.498  19.686  0.00  0.00    +0.000 C 
ATOM      2  C   UNL     1       2.051   6.471  20.146  0.00  0.00    +0.000 C 
ATOM      3  C   UNL     1       1.731   7.676  19.233  0.00  0.00    +0.000 C 
ATOM      4  C   UNL     1       2.844   7.988  18.224  0.00  0.00    +0.000 C 
ATOM      5  C   UNL     1       3.471   6.731  17.690  0.00  0.00    +0.000 C 
ATOM      6  O   UNL     1       4.099   6.077  18.785  0.00  0.00    +0.000 OA
ENDROOT
BRANCH   3   7
ATOM      7  N   UNL     1       1.518   8.940  19.954  0.00  0.00    +0.000 N 
ATOM      8  C   UNL     1       0.793   9.974  19.480  0.00  0.00    +0.000 A 
ATOM      9  N   UNL     1      -0.136   9.937  18.559  0.00  0.00    +0.000 NA
ATOM     10  C   UNL     1      -0.727  11.194  18.463  0.00  0.00    +0.000 A 
ATOM     11  N   UNL     1      -0.263  12.206  19.199  0.00  0.00    +0.000 NA
ATOM     12  S   UNL     1       0.964  11.572  20.134  0.00  0.00    +0.000 S 
ATOM     13  H   UNL     1       2.276   9.204  20.576  0.00  0.00    +0.000 HD
BRANCH  10  14
ATOM     14  C   UNL     1      -1.910  11.378  17.580  0.00  0.00    +0.000 C 
ATOM     15  C   UNL     1      -2.192  10.172  16.690  0.00  0.00    +0.000 C 
ATOM     16  C   UNL     1      -3.635  10.377  16.253  0.00  0.00    +0.000 C 
ATOM     17  C   UNL     1      -4.316  11.136  17.392  0.00  0.00    +0.000 C 
ATOM     18  C   UNL     1      -3.213  11.525  18.370  0.00  0.00    +0.000 C 
ENDBRANCH  10  14
ENDBRANCH   3   7
BRANCH   1  24
ATOM     19  C   UNL     1       2.349   3.079  21.351  0.00  0.00    +0.000 C 
ATOM     20  N   UNL     1       2.387   3.095  19.905  0.00  0.00    +0.000 N 
ATOM     21  C   UNL     1       2.089   2.028  19.108  0.00  0.00    +0.000 A 
ATOM     22  C   UNL     1       2.314   2.476  17.831  0.00  0.00    +0.000 A 
ATOM     23  N   UNL     1       2.733   3.787  17.830  0.00  0.00    +0.000 NA
ATOM     24  C   UNL     1       2.758   4.158  19.098  0.00  0.00    +0.000 A 
ENDBRANCH   1  24
TORSDOF 3
ENDMDL
MODEL 4
REMARK VINA RESULT:      -7.0      3.872      5.908
REMARK  Name = 
REMARK  4 active torsions:
REMARK  status: ('A' for Active; 'I' for Inactive)
REMARK    1  A    between atoms: C_1  and  N_2
REMARK    2  A    between atoms: C_6  and  C_7
REMARK    3  A    between atoms: C_9  and  N_10
REMARK    4  A    between atoms: C_13  and  C_14
REMARK                            x       y       z     vdW  Elec       q    Type
REMARK                         _______ _______ _______ _____ _____    ______ ____
ROOT
ATOM      1  C   UNL     1       6.481   3.953  15.480  0.00  0.00    +0.000 C 
ATOM      2  C   UNL     1       4.987   4.149  15.793  0.00  0.00    +0.000 C 
ATOM      3  C   UNL     1       4.611   5.172  16.889  0.00  0.00    +0.000 C 
ATOM      4  C   UNL     1       5.779   5.526  17.818  0.00  0.00    +0.000 C 
ATOM      5  C   UNL     1       7.077   5.610  17.064  0.00  0.00    +0.000 C 
ATOM      6  O   UNL     1       7.352   4.311  16.556  0.00  0.00    +0.000 OA
ENDROOT
BRANCH   3   7
ATOM      7  N   UNL     1       3.540   4.724  17.792  0.00  0.00    +0.000 N 
ATOM      8  C   UNL     1       2.953   5.504  18.722  0.00  0.00    +0.000 A 
ATOM      9  N   UNL     1       2.906   6.812  18.748  0.00  0.00    +0.000 NA
ATOM     10  C   UNL     1       2.090   7.213  19.802  0.00  0.00    +0.000 A 
ATOM     11  N   UNL     1       1.568   6.303  20.625  0.00  0.00    +0.000 NA
ATOM     12  S   UNL     1       2.061   4.819  20.044  0.00  0.00    +0.000 S 
ATOM     13  H   UNL     1       3.572   3.737  18.026  0.00  0.00    +0.000 HD
BRANCH  10  14
ATOM     14  C   UNL     1       1.762   8.656  19.962  0.00  0.00    +0.000 C 
ATOM     15  C   UNL     1       1.286   9.313  18.670  0.00  0.00    +0.000 C 
ATOM     16  C   UNL     1       0.590  10.580  19.146  0.00  0.00    +0.000 C 
ATOM     17  C   UNL     1       0.033  10.258  20.532  0.00  0.00    +0.000 C 
ATOM     18  C   UNL     1       0.584   8.888  20.911  0.00  0.00    +0.000 C 
ENDBRANCH  10  14
ENDBRANCH   3   7
BRANCH   1  24
ATOM     19  C   UNL     1       5.797   3.052  12.653  0.00  0.00    +0.000 C 
ATOM     20  N   UNL     1       6.703   4.136  12.965  0.00  0.00    +0.000 N 
ATOM     21  C   UNL     1       7.379   4.874  12.037  0.00  0.00    +0.000 A 
ATOM     22  C   UNL     1       8.153   5.735  12.775  0.00  0.00    +0.000 A 
ATOM     23  N   UNL     1       7.960   5.543  14.125  0.00  0.00    +0.000 NA
ATOM     24  C   UNL     1       7.063   4.578  14.228  0.00  0.00    +0.000 A 
ENDBRANCH   1  24
TORSDOF 3
ENDMDL
MODEL 5
REMARK VINA RESULT:      -6.9      3.252      8.242
REMARK  Name = 
REMARK  4 active torsions:
REMARK  status: ('A' for Active; 'I' for Inactive)
REMARK    1  A    between atoms: C_1  and  N_2
REMARK    2  A    between atoms: C_6  and  C_7
REMARK    3  A    between atoms: C_9  and  N_10
REMARK    4  A    between atoms: C_13  and  C_14
REMARK                            x       y       z     vdW  Elec       q    Type
REMARK                         _______ _______ _______ _____ _____    ______ ____
ROOT
ATOM      1  C   UNL     1      -0.103  10.150  20.377  0.00  0.00    +0.000 C 
ATOM      2  C   UNL     1       0.674   9.056  21.133  0.00  0.00    +0.000 C 
ATOM      3  C   UNL     1       1.785   8.305  20.365  0.00  0.00    +0.000 C 
ATOM      4  C   UNL     1       1.667   8.435  18.841  0.00  0.00    +0.000 C 
ATOM      5  C   UNL     1       1.214   9.811  18.439  0.00  0.00    +0.000 C 
ATOM      6  O   UNL     1      -0.098   9.990  18.956  0.00  0.00    +0.000 OA
ENDROOT
BRANCH   3   7
ATOM      7  N   UNL     1       1.816   6.855  20.613  0.00  0.00    +0.000 N 
ATOM      8  C   UNL     1       2.397   5.956  19.793  0.00  0.00    +0.000 A 
ATOM      9  N   UNL     1       3.331   6.177  18.904  0.00  0.00    +0.000 NA
ATOM     10  C   UNL     1       3.745   4.959  18.372  0.00  0.00    +0.000 A 
ATOM     11  N   UNL     1       3.140   3.829  18.743  0.00  0.00    +0.000 NA
ATOM     12  S   UNL     1       2.002   4.268  19.880  0.00  0.00    +0.000 S 
ATOM     13  H   UNL     1       1.023   6.501  21.138  0.00  0.00    +0.000 HD
BRANCH  10  14
ATOM     14  C   UNL     1       4.901   4.928  17.435  0.00  0.00    +0.000 C 
ATOM     15  C   UNL     1       4.912   3.699  16.531  0.00  0.00    +0.000 C 
ATOM     16  C   UNL     1       5.850   4.094  15.399  0.00  0.00    +0.000 C 
ATOM     17  C   UNL     1       5.723   5.610  15.258  0.00  0.00    +0.000 C 
ATOM     18  C   UNL     1       4.872   6.083  16.431  0.00  0.00    +0.000 C 
ENDBRANCH  10  14
ENDBRANCH   3   7
BRANCH   1  24
ATOM     19  C   UNL     1      -2.088  12.426  19.987  0.00  0.00    +0.000 C 
ATOM     20  N   UNL     1      -0.735  12.599  20.468  0.00  0.00    +0.000 N 
ATOM     21  C   UNL     1      -0.171  13.801  20.787  0.00  0.00    +0.000 A 
ATOM     22  C   UNL     1       1.121  13.498  21.133  0.00  0.00    +0.000 A 
ATOM     23  N   UNL     1       1.356  12.145  21.040  0.00  0.00    +0.000 NA
ATOM     24  C   UNL     1       0.214  11.606  20.650  0.00  0.00    +0.000 A 
ENDBRANCH   1  24
TORSDOF 3
ENDMDL
MODEL 6
REMARK VINA RESULT:      -6.9      1.105      1.577
REMARK  Name = 
REMARK  4 active torsions:
REMARK  status: ('A' for Active; 'I' for Inactive)
REMARK    1  A    between atoms: C_1  and  N_2
REMARK    2  A    between atoms: C_6  and  C_7
REMARK    3  A    between atoms: C_9  and  N_10
REMARK    4  A    between atoms: C_13  and  C_14
REMARK                            x       y       z     vdW  Elec       q    Type
REMARK                         _______ _______ _______ _____ _____    ______ ____
ROOT
ATOM      1  C   UNL     1       3.354   5.937  19.341  0.00  0.00    +0.000 C 
ATOM      2  C   UNL     1       2.180   6.752  19.912  0.00  0.00    +0.000 C 
ATOM      3  C   UNL     1       1.653   7.937  19.071  0.00  0.00    +0.000 C 
ATOM      4  C   UNL     1       2.645   8.415  18.004  0.00  0.00    +0.000 C 
ATOM      5  C   UNL     1       3.380   7.262  17.379  0.00  0.00    +0.000 C 
ATOM      6  O   UNL     1       4.158   6.656  18.402  0.00  0.00    +0.000 OA
ENDROOT
BRANCH   3   7
ATOM      7  N   UNL     1       1.340   9.142  19.855  0.00  0.00    +0.000 N 
ATOM      8  C   UNL     1       0.579  10.162  19.411  0.00  0.00    +0.000 A 
ATOM      9  N   UNL     1      -0.309  10.132  18.450  0.00  0.00    +0.000 NA
ATOM     10  C   UNL     1      -0.964  11.360  18.403  0.00  0.00    +0.000 A 
ATOM     11  N   UNL     1      -0.588  12.348  19.215  0.00  0.00    +0.000 NA
ATOM     12  S   UNL     1       0.634  11.724  20.165  0.00  0.00    +0.000 S 
ATOM     13  H   UNL     1       2.057   9.407  20.524  0.00  0.00    +0.000 HD
BRANCH  10  14
ATOM     14  C   UNL     1      -2.119  11.534  17.481  0.00  0.00    +0.000 C 
ATOM     15  C   UNL     1      -2.304  10.366  16.517  0.00  0.00    +0.000 C 
ATOM     16  C   UNL     1      -3.737  10.524  16.031  0.00  0.00    +0.000 C 
ATOM     17  C   UNL     1      -4.500  11.184  17.178  0.00  0.00    +0.000 C 
ATOM     18  C   UNL     1      -3.459  11.573  18.221  0.00  0.00    +0.000 C 
ENDBRANCH  10  14
ENDBRANCH   3   7
BRANCH   1  24
ATOM     19  C   UNL     1       5.531   3.944  18.593  0.00  0.00    +0.000 C 
ATOM     20  N   UNL     1       4.115   3.705  18.421  0.00  0.00    +0.000 N 
ATOM     21  C   UNL     1       3.578   2.571  17.884  0.00  0.00    +0.000 A 
ATOM     22  C   UNL     1       2.226   2.804  17.861  0.00  0.00    +0.000 A 
ATOM     23  N   UNL     1       1.927   4.045  18.375  0.00  0.00    +0.000 NA
ATOM     24  C   UNL     1       3.084   4.578  18.727  0.00  0.00    +0.000 A 
ENDBRANCH   1  24
TORSDOF 3
ENDMDL
MODEL 7
REMARK VINA RESULT:      -6.9      3.040      8.178
REMARK  Name = 
REMARK  4 active torsions:
REMARK  status: ('A' for Active; 'I' for Inactive)
REMARK    1  A    between atoms: C_1  and  N_2
REMARK    2  A    between atoms: C_6  and  C_7
REMARK    3  A    between atoms: C_9  and  N_10
REMARK    4  A    between atoms: C_13  and  C_14
REMARK                            x       y       z     vdW  Elec       q    Type
REMARK                         _______ _______ _______ _____ _____    ______ ____
ROOT
ATOM      1  C   UNL     1      -0.844  11.192  19.388  0.00  0.00    +0.000 C 
ATOM      2  C   UNL     1       0.044   9.938  19.288  0.00  0.00    +0.000 C 
ATOM      3  C   UNL     1       1.544  10.144  18.980  0.00  0.00    +0.000 C 
ATOM      4  C   UNL     1       1.859  11.520  18.379  0.00  0.00    +0.000 C 
ATOM      5  C   UNL     1       1.021  12.599  19.007  0.00  0.00    +0.000 C 
ATOM      6  O   UNL     1      -0.334  12.323  18.678  0.00  0.00    +0.000 OA
ENDROOT
BRANCH   3   7
ATOM      7  N   UNL     1       2.101   9.182  18.016  0.00  0.00    +0.000 N 
ATOM      8  C   UNL     1       2.597   7.974  18.348  0.00  0.00    +0.000 A 
ATOM      9  N   UNL     1       2.343   7.278  19.427  0.00  0.00    +0.000 NA
ATOM     10  C   UNL     1       2.952   6.031  19.314  0.00  0.00    +0.000 A 
ATOM     11  N   UNL     1       3.714   5.755  18.255  0.00  0.00    +0.000 NA
ATOM     12  S   UNL     1       3.646   7.102  17.274  0.00  0.00    +0.000 S 
ATOM     13  H   UNL     1       2.524   9.604  17.196  0.00  0.00    +0.000 HD
BRANCH  10  14
ATOM     14  C   UNL     1       2.697   4.999  20.355  0.00  0.00    +0.000 C 
ATOM     15  C   UNL     1       1.228   4.602  20.465  0.00  0.00    +0.000 C 
ATOM     16  C   UNL     1       1.269   3.272  21.203  0.00  0.00    +0.000 C 
ATOM     17  C   UNL     1       2.598   2.622  20.825  0.00  0.00    +0.000 C 
ATOM     18  C   UNL     1       3.382   3.667  20.039  0.00  0.00    +0.000 C 
ENDBRANCH  10  14
ENDBRANCH   3   7
BRANCH   1  24
ATOM     19  C   UNL     1      -3.524  12.517  19.961  0.00  0.00    +0.000 C 
ATOM     20  N   UNL     1      -2.506  12.276  20.960  0.00  0.00    +0.000 N 
ATOM     21  C   UNL     1      -2.607  12.628  22.275  0.00  0.00    +0.000 A 
ATOM     22  C   UNL     1      -1.405  12.265  22.826  0.00  0.00    +0.000 A 
ATOM     23  N   UNL     1      -0.578  11.695  21.883  0.00  0.00    +0.000 NA
ATOM     24  C   UNL     1      -1.266  11.693  20.754  0.00  0.00    +0.000 A 
ENDBRANCH   1  24
TORSDOF 3
ENDMDL
MODEL 8
REMARK VINA RESULT:      -6.8      3.039      8.036
REMARK  Name = 
REMARK  4 active torsions:
REMARK  status: ('A' for Active; 'I' for Inactive)
REMARK    1  A    between atoms: C_1  and  N_2
REMARK    2  A    between atoms: C_6  and  C_7
REMARK    3  A    between atoms: C_9  and  N_10
REMARK    4  A    between atoms: C_13  and  C_14
REMARK                            x       y       z     vdW  Elec       q    Type
REMARK                         _______ _______ _______ _____ _____    ______ ____
ROOT
ATOM      1  C   UNL     1       1.127  10.739  20.339  0.00  0.00    +0.000 C 
ATOM      2  C   UNL     1       1.299   9.234  20.064  0.00  0.00    +0.000 C 
ATOM      3  C   UNL     1       0.540   8.246  20.978  0.00  0.00    +0.000 C 
ATOM      4  C   UNL     1       0.078   8.872  22.300  0.00  0.00    +0.000 C 
ATOM      5  C   UNL     1      -0.383  10.289  22.106  0.00  0.00    +0.000 C 
ATOM      6  O   UNL     1       0.745  11.043  21.683  0.00  0.00    +0.000 OA
ENDROOT
BRANCH   3   7
ATOM      7  N   UNL     1       1.326   7.068  21.379  0.00  0.00    +0.000 N 
ATOM      8  C   UNL     1       1.893   6.202  20.515  0.00  0.00    +0.000 A 
ATOM      9  N   UNL     1       2.201   6.416  19.261  0.00  0.00    +0.000 NA
ATOM     10  C   UNL     1       2.890   5.310  18.771  0.00  0.00    +0.000 A 
ATOM     11  N   UNL     1       3.066   4.237  19.544  0.00  0.00    +0.000 NA
ATOM     12  S   UNL     1       2.386   4.617  21.020  0.00  0.00    +0.000 S 
ATOM     13  H   UNL     1       1.054   6.663  22.269  0.00  0.00    +0.000 HD
BRANCH  10  14
ATOM     14  C   UNL     1       3.473   5.363  17.403  0.00  0.00    +0.000 C 
ATOM     15  C   UNL     1       4.517   6.463  17.234  0.00  0.00    +0.000 C 
ATOM     16  C   UNL     1       5.281   6.045  15.985  0.00  0.00    +0.000 C 
ATOM     17  C   UNL     1       5.218   4.519  15.944  0.00  0.00    +0.000 C 
ATOM     18  C   UNL     1       4.260   4.097  17.053  0.00  0.00    +0.000 C 
ENDBRANCH  10  14
ENDBRANCH   3   7
BRANCH   1  24
ATOM     19  C   UNL     1       1.657  13.642  19.589  0.00  0.00    +0.000 C 
ATOM     20  N   UNL     1       0.527  12.873  19.117  0.00  0.00    +0.000 N 
ATOM     21  C   UNL     1      -0.453  13.354  18.297  0.00  0.00    +0.000 A 
ATOM     22  C   UNL     1      -1.336  12.313  18.163  0.00  0.00    +0.000 A 
ATOM     23  N   UNL     1      -0.916  11.210  18.873  0.00  0.00    +0.000 NA
ATOM     24  C   UNL     1       0.227  11.558  19.437  0.00  0.00    +0.000 A 
ENDBRANCH   1  24
TORSDOF 3
ENDMDL
MODEL 9
REMARK VINA RESULT:      -6.8      3.586      8.488
REMARK  Name = 
REMARK  4 active torsions:
REMARK  status: ('A' for Active; 'I' for Inactive)
REMARK    1  A    between atoms: C_1  and  N_2
REMARK    2  A    between atoms: C_6  and  C_7
REMARK    3  A    between atoms: C_9  and  N_10
REMARK    4  A    between atoms: C_13  and  C_14
REMARK                            x       y       z     vdW  Elec       q    Type
REMARK                         _______ _______ _______ _____ _____    ______ ____
ROOT
ATOM      1  C   UNL     1      -0.151  10.234  20.933  0.00  0.00    +0.000 C 
ATOM      2  C   UNL     1       0.750   9.110  21.478  0.00  0.00    +0.000 C 
ATOM      3  C   UNL     1       1.707   8.412  20.486  0.00  0.00    +0.000 C 
ATOM      4  C   UNL     1       1.319   8.621  19.017  0.00  0.00    +0.000 C 
ATOM      5  C   UNL     1       0.801  10.012  18.776  0.00  0.00    +0.000 C 
ATOM      6  O   UNL     1      -0.398  10.148  19.527  0.00  0.00    +0.000 OA
ENDROOT
BRANCH   3   7
ATOM      7  N   UNL     1       1.783   6.952  20.646  0.00  0.00    +0.000 N 
ATOM      8  C   UNL     1       2.432   6.127  19.799  0.00  0.00    +0.000 A 
ATOM      9  N   UNL     1       3.393   6.436  18.967  0.00  0.00    +0.000 NA
ATOM     10  C   UNL     1       3.874   5.269  18.380  0.00  0.00    +0.000 A 
ATOM     11  N   UNL     1       3.298   4.098  18.654  0.00  0.00    +0.000 NA
ATOM     12  S   UNL     1       2.099   4.424  19.766  0.00  0.00    +0.000 S 
ATOM     13  H   UNL     1       0.984   6.537  21.114  0.00  0.00    +0.000 HD
BRANCH  10  14
ATOM     14  C   UNL     1       5.068   5.338  17.494  0.00  0.00    +0.000 C 
ATOM     15  C   UNL     1       6.348   4.853  18.168  0.00  0.00    +0.000 C 
ATOM     16  C   UNL     1       7.284   4.573  17.001  0.00  0.00    +0.000 C 
ATOM     17  C   UNL     1       6.389   4.166  15.831  0.00  0.00    +0.000 C 
ATOM     18  C   UNL     1       4.953   4.409  16.283  0.00  0.00    +0.000 C 
ENDBRANCH  10  14
ENDBRANCH   3   7
BRANCH   1  24
ATOM     19  C   UNL     1      -2.093  12.270  22.094  0.00  0.00    +0.000 C 
ATOM     20  N   UNL     1      -0.714  12.556  21.766  0.00  0.00    +0.000 N 
ATOM     21  C   UNL     1      -0.116  13.775  21.914  0.00  0.00    +0.000 A 
ATOM     22  C   UNL     1       1.156  13.599  21.430  0.00  0.00    +0.000 A 
ATOM     23  N   UNL     1       1.349  12.306  20.998  0.00  0.00    +0.000 NA
ATOM     24  C   UNL     1       0.209  11.677  21.222  0.00  0.00    +0.000 A 
ENDBRANCH   1  24
TORSDOF 3
ENDMDL
