MODEL 1
REMARK VINA RESULT:      -8.2      0.000      0.000
REMARK  Name = 
REMARK  2 active torsions:
REMARK  status: ('A' for Active; 'I' for Inactive)
REMARK    1  A    between atoms: C_15  and  O_16
REMARK    2  A    between atoms: C_17  and  O_18
REMARK                            x       y       z     vdW  Elec       q    Type
REMARK                         _______ _______ _______ _____ _____    ______ ____
ROOT
ATOM      1  O   UNL     1       6.909   6.737  17.838  0.00  0.00    +0.000 OA
ATOM      2  C   UNL     1       6.572   6.021  16.901  0.00  0.00    +0.000 A 
ATOM      3  O   UNL     1       7.323   5.975  15.702  0.00  0.00    +0.000 OA
ATOM      4  C   UNL     1       6.966   5.156  14.586  0.00  0.00    +0.000 A 
ATOM      5  C   UNL     1       7.798   5.211  13.474  0.00  0.00    +0.000 A 
ATOM      6  C   UNL     1       7.482   4.426  12.367  0.00  0.00    +0.000 A 
ATOM      7  C   UNL     1       6.349   3.602  12.385  0.00  0.00    +0.000 A 
ATOM      8  C   UNL     1       5.517   3.555  13.512  0.00  0.00    +0.000 A 
ATOM      9  C   UNL     1       5.825   4.335  14.621  0.00  0.00    +0.000 A 
ATOM     10  C   UNL     1       5.079   4.397  15.848  0.00  0.00    +0.000 A 
ATOM     11  O   UNL     1       3.951   3.677  16.060  0.00  0.00    +0.000 OA
ATOM     12  C   UNL     1       3.533   4.004  17.328  0.00  0.00    +0.000 A 
ATOM     13  C   UNL     1       2.412   3.510  17.991  0.00  0.00    +0.000 A 
ATOM     14  F   UNL     1       1.578   2.620  17.434  0.00  0.00    +0.000 F 
ATOM     15  C   UNL     1       2.172   3.980  19.283  0.00  0.00    +0.000 A 
ATOM     16  C   UNL     1       3.027   4.904  19.875  0.00  0.00    +0.000 A 
ATOM     17  C   UNL     1       4.148   5.396  19.210  0.00  0.00    +0.000 A 
ATOM     18  C   UNL     1       4.408   4.934  17.905  0.00  0.00    +0.000 A 
ATOM     19  C   UNL     1       5.402   5.176  16.929  0.00  0.00    +0.000 A 
ENDROOT
BRANCH  15  20
ATOM     20  O   UNL     1       1.093   3.550  20.011  0.00  0.00    +0.000 OA
ATOM     21  H   UNL     1       0.292   3.834  19.528  0.00  0.00    +0.000 HD
ENDBRANCH  15  20
BRANCH  16  22
ATOM     22  O   UNL     1       2.776   5.353  21.143  0.00  0.00    +0.000 OA
ATOM     23  H   UNL     1       2.184   6.123  21.032  0.00  0.00    +0.000 HD
ENDBRANCH  16  22
TORSDOF 2
ENDMDL
MODEL 2
REMARK VINA RESULT:      -7.8      3.784      7.023
REMARK  Name = 
REMARK  2 active torsions:
REMARK  status: ('A' for Active; 'I' for Inactive)
REMARK    1  A    between atoms: C_15  and  O_16
REMARK    2  A    between atoms: C_17  and  O_18
REMARK                            x       y       z     vdW  Elec       q    Type
REMARK                         _______ _______ _______ _____ _____    ______ ____
ROOT
ATOM      1  O   UNL     1       2.918   8.443  16.975  0.00  0.00    +0.000 OA
ATOM      2  C   UNL     1       2.375   8.383  18.073  0.00  0.00    +0.000 A 
ATOM      3  O   UNL     1       1.650   9.480  18.598  0.00  0.00    +0.000 OA
ATOM      4  C   UNL     1       1.003   9.454  19.871  0.00  0.00    +0.000 A 
ATOM      5  C   UNL     1       0.325  10.604  20.257  0.00  0.00    +0.000 A 
ATOM      6  C   UNL     1      -0.318  10.615  21.492  0.00  0.00    +0.000 A 
ATOM      7  C   UNL     1      -0.277   9.486  22.321  0.00  0.00    +0.000 A 
ATOM      8  C   UNL     1       0.410   8.331  21.922  0.00  0.00    +0.000 A 
ATOM      9  C   UNL     1       1.055   8.312  20.690  0.00  0.00    +0.000 A 
ATOM     10  C   UNL     1       1.795   7.211  20.138  0.00  0.00    +0.000 A 
ATOM     11  O   UNL     1       1.952   6.031  20.787  0.00  0.00    +0.000 OA
ATOM     12  C   UNL     1       2.710   5.245  19.952  0.00  0.00    +0.000 A 
ATOM     13  C   UNL     1       3.130   3.938  20.189  0.00  0.00    +0.000 A 
ATOM     14  F   UNL     1       2.826   3.275  21.313  0.00  0.00    +0.000 F 
ATOM     15  C   UNL     1       3.898   3.322  19.199  0.00  0.00    +0.000 A 
ATOM     16  C   UNL     1       4.224   3.996  18.027  0.00  0.00    +0.000 A 
ATOM     17  C   UNL     1       3.802   5.304  17.792  0.00  0.00    +0.000 A 
ATOM     18  C   UNL     1       3.026   5.943  18.779  0.00  0.00    +0.000 A 
ATOM     19  C   UNL     1       2.424   7.215  18.919  0.00  0.00    +0.000 A 
ENDROOT
BRANCH  15  20
ATOM     20  O   UNL     1       4.355   2.037  19.346  0.00  0.00    +0.000 OA
ATOM     21  H   UNL     1       4.614   1.933  20.282  0.00  0.00    +0.000 HD
ENDBRANCH  15  20
BRANCH  16  22
ATOM     22  O   UNL     1       4.977   3.375  17.068  0.00  0.00    +0.000 OA
ATOM     23  H   UNL     1       5.699   2.931  17.555  0.00  0.00    +0.000 HD
ENDBRANCH  16  22
TORSDOF 2
ENDMDL
MODEL 3
REMARK VINA RESULT:      -7.7      4.440      7.751
REMARK  Name = 
REMARK  2 active torsions:
REMARK  status: ('A' for Active; 'I' for Inactive)
REMARK    1  A    between atoms: C_15  and  O_16
REMARK    2  A    between atoms: C_17  and  O_18
REMARK                            x       y       z     vdW  Elec       q    Type
REMARK                         _______ _______ _______ _____ _____    ______ ____
ROOT
ATOM      1  O   UNL     1       2.192   9.631  17.450  0.00  0.00    +0.000 OA
ATOM      2  C   UNL     1       1.723   9.439  18.567  0.00  0.00    +0.000 A 
ATOM      3  O   UNL     1       1.009  10.452  19.250  0.00  0.00    +0.000 OA
ATOM      4  C   UNL     1       0.447  10.272  20.551  0.00  0.00    +0.000 A 
ATOM      5  C   UNL     1      -0.229  11.355  21.101  0.00  0.00    +0.000 A 
ATOM      6  C   UNL     1      -0.792  11.216  22.367  0.00  0.00    +0.000 A 
ATOM      7  C   UNL     1      -0.673  10.006  23.064  0.00  0.00    +0.000 A 
ATOM      8  C   UNL     1       0.011   8.920  22.501  0.00  0.00    +0.000 A 
ATOM      9  C   UNL     1       0.575   9.051  21.236  0.00  0.00    +0.000 A 
ATOM     10  C   UNL     1       1.302   8.036  20.523  0.00  0.00    +0.000 A 
ATOM     11  O   UNL     1       1.525   6.799  21.030  0.00  0.00    +0.000 OA
ATOM     12  C   UNL     1       2.244   6.129  20.069  0.00  0.00    +0.000 A 
ATOM     13  C   UNL     1       2.706   4.816  20.136  0.00  0.00    +0.000 A 
ATOM     14  F   UNL     1       2.489   4.028  21.199  0.00  0.00    +0.000 F 
ATOM     15  C   UNL     1       3.422   4.331  19.040  0.00  0.00    +0.000 A 
ATOM     16  C   UNL     1       3.657   5.136  17.930  0.00  0.00    +0.000 A 
ATOM     17  C   UNL     1       3.194   6.449  17.865  0.00  0.00    +0.000 A 
ATOM     18  C   UNL     1       2.469   6.957  18.961  0.00  0.00    +0.000 A 
ATOM     19  C   UNL     1       1.850   8.189  19.276  0.00  0.00    +0.000 A 
ENDROOT
BRANCH  15  20
ATOM     20  O   UNL     1       3.915   3.051  19.018  0.00  0.00    +0.000 OA
ATOM     21  H   UNL     1       4.212   2.877  18.104  0.00  0.00    +0.000 HD
ENDBRANCH  15  20
BRANCH  16  22
ATOM     22  O   UNL     1       4.360   4.642  16.865  0.00  0.00    +0.000 OA
ATOM     23  H   UNL     1       4.959   5.366  16.593  0.00  0.00    +0.000 HD
ENDBRANCH  16  22
TORSDOF 2
ENDMDL
MODEL 4
REMARK VINA RESULT:      -7.6      1.342      1.566
REMARK  Name = 
REMARK  2 active torsions:
REMARK  status: ('A' for Active; 'I' for Inactive)
REMARK    1  A    between atoms: C_15  and  O_16
REMARK    2  A    between atoms: C_17  and  O_18
REMARK                            x       y       z     vdW  Elec       q    Type
REMARK                         _______ _______ _______ _____ _____    ______ ____
ROOT
ATOM      1  O   UNL     1       6.765   5.229  19.687  0.00  0.00    +0.000 OA
ATOM      2  C   UNL     1       6.374   4.938  18.562  0.00  0.00    +0.000 A 
ATOM      3  O   UNL     1       7.185   5.153  17.422  0.00  0.00    +0.000 OA
ATOM      4  C   UNL     1       6.770   4.829  16.093  0.00  0.00    +0.000 A 
ATOM      5  C   UNL     1       7.672   5.094  15.070  0.00  0.00    +0.000 A 
ATOM      6  C   UNL     1       7.302   4.790  13.762  0.00  0.00    +0.000 A 
ATOM      7  C   UNL     1       6.045   4.231  13.494  0.00  0.00    +0.000 A 
ATOM      8  C   UNL     1       5.143   3.970  14.534  0.00  0.00    +0.000 A 
ATOM      9  C   UNL     1       5.505   4.269  15.843  0.00  0.00    +0.000 A 
ATOM     10  C   UNL     1       4.699   4.059  17.014  0.00  0.00    +0.000 A 
ATOM     11  O   UNL     1       3.452   3.531  16.964  0.00  0.00    +0.000 OA
ATOM     12  C   UNL     1       3.012   3.491  18.265  0.00  0.00    +0.000 A 
ATOM     13  C   UNL     1       1.780   3.022  18.716  0.00  0.00    +0.000 A 
ATOM     14  F   UNL     1       0.845   2.537  17.887  0.00  0.00    +0.000 F 
ATOM     15  C   UNL     1       1.538   3.076  20.090  0.00  0.00    +0.000 A 
ATOM     16  C   UNL     1       2.496   3.577  20.964  0.00  0.00    +0.000 A 
ATOM     17  C   UNL     1       3.728   4.046  20.510  0.00  0.00    +0.000 A 
ATOM     18  C   UNL     1       3.992   4.000  19.127  0.00  0.00    +0.000 A 
ATOM     19  C   UNL     1       5.078   4.363  18.297  0.00  0.00    +0.000 A 
ENDROOT
BRANCH  15  20
ATOM     20  O   UNL     1       0.353   2.636  20.624  0.00  0.00    +0.000 OA
ATOM     21  H   UNL     1       0.487   2.560  21.589  0.00  0.00    +0.000 HD
ENDBRANCH  15  20
BRANCH  16  22
ATOM     22  O   UNL     1       2.240   3.620  22.307  0.00  0.00    +0.000 OA
ATOM     23  H   UNL     1       1.431   4.160  22.399  0.00  0.00    +0.000 HD
ENDBRANCH  16  22
TORSDOF 2
ENDMDL
MODEL 5
REMARK VINA RESULT:      -7.4      1.874      6.006
REMARK  Name = 
REMARK  2 active torsions:
REMARK  status: ('A' for Active; 'I' for Inactive)
REMARK    1  A    between atoms: C_15  and  O_16
REMARK    2  A    between atoms: C_17  and  O_18
REMARK                            x       y       z     vdW  Elec       q    Type
REMARK                         _______ _______ _______ _____ _____    ______ ____
ROOT
ATOM      1  O   UNL     1       6.641   5.891  18.856  0.00  0.00    +0.000 OA
ATOM      2  C   UNL     1       5.605   5.282  18.613  0.00  0.00    +0.000 A 
ATOM      3  O   UNL     1       4.645   5.028  19.622  0.00  0.00    +0.000 OA
ATOM      4  C   UNL     1       3.426   4.323  19.383  0.00  0.00    +0.000 A 
ATOM      5  C   UNL     1       2.576   4.147  20.469  0.00  0.00    +0.000 A 
ATOM      6  C   UNL     1       1.378   3.465  20.273  0.00  0.00    +0.000 A 
ATOM      7  C   UNL     1       1.045   2.970  19.005  0.00  0.00    +0.000 A 
ATOM      8  C   UNL     1       1.910   3.152  17.917  0.00  0.00    +0.000 A 
ATOM      9  C   UNL     1       3.108   3.832  18.104  0.00  0.00    +0.000 A 
ATOM     10  C   UNL     1       4.096   4.102  17.095  0.00  0.00    +0.000 A 
ATOM     11  O   UNL     1       3.960   3.703  15.807  0.00  0.00    +0.000 OA
ATOM     12  C   UNL     1       5.092   4.139  15.161  0.00  0.00    +0.000 A 
ATOM     13  C   UNL     1       5.404   3.966  13.814  0.00  0.00    +0.000 A 
ATOM     14  F   UNL     1       4.593   3.321  12.963  0.00  0.00    +0.000 F 
ATOM     15  C   UNL     1       6.616   4.492  13.364  0.00  0.00    +0.000 A 
ATOM     16  C   UNL     1       7.469   5.163  14.234  0.00  0.00    +0.000 A 
ATOM     17  C   UNL     1       7.154   5.335  15.581  0.00  0.00    +0.000 A 
ATOM     18  C   UNL     1       5.936   4.811  16.055  0.00  0.00    +0.000 A 
ATOM     19  C   UNL     1       5.272   4.776  17.303  0.00  0.00    +0.000 A 
ENDROOT
BRANCH  15  20
ATOM     20  O   UNL     1       7.005   4.369  12.054  0.00  0.00    +0.000 OA
ATOM     21  H   UNL     1       7.312   5.251  11.766  0.00  0.00    +0.000 HD
ENDBRANCH  15  20
BRANCH  16  22
ATOM     22  O   UNL     1       8.652   5.672  13.774  0.00  0.00    +0.000 OA
ATOM     23  H   UNL     1       8.407   6.454  13.241  0.00  0.00    +0.000 HD
ENDBRANCH  16  22
TORSDOF 2
ENDMDL
MODEL 6
REMARK VINA RESULT:      -7.4      3.561      4.806
REMARK  Name = 
REMARK  2 active torsions:
REMARK  status: ('A' for Active; 'I' for Inactive)
REMARK    1  A    between atoms: C_15  and  O_16
REMARK    2  A    between atoms: C_17  and  O_18
REMARK                            x       y       z     vdW  Elec       q    Type
REMARK                         _______ _______ _______ _____ _____    ______ ____
ROOT
ATOM      1  O   UNL     1       2.937   4.523  20.769  0.00  0.00    +0.000 OA
ATOM      2  C   UNL     1       3.350   4.971  19.705  0.00  0.00    +0.000 A 
ATOM      3  O   UNL     1       4.233   4.227  18.886  0.00  0.00    +0.000 OA
ATOM      4  C   UNL     1       4.738   4.709  17.639  0.00  0.00    +0.000 A 
ATOM      5  C   UNL     1       5.596   3.868  16.940  0.00  0.00    +0.000 A 
ATOM      6  C   UNL     1       6.107   4.305  15.720  0.00  0.00    +0.000 A 
ATOM      7  C   UNL     1       5.759   5.566  15.217  0.00  0.00    +0.000 A 
ATOM      8  C   UNL     1       4.893   6.405  15.931  0.00  0.00    +0.000 A 
ATOM      9  C   UNL     1       4.377   5.977  17.150  0.00  0.00    +0.000 A 
ATOM     10  C   UNL     1       3.480   6.714  17.997  0.00  0.00    +0.000 A 
ATOM     11  O   UNL     1       3.028   7.954  17.687  0.00  0.00    +0.000 OA
ATOM     12  C   UNL     1       2.208   8.321  18.727  0.00  0.00    +0.000 A 
ATOM     13  C   UNL     1       1.509   9.519  18.855  0.00  0.00    +0.000 A 
ATOM     14  F   UNL     1       1.565  10.490  17.933  0.00  0.00    +0.000 F 
ATOM     15  C   UNL     1       0.730   9.687  20.001  0.00  0.00    +0.000 A 
ATOM     16  C   UNL     1       0.660   8.690  20.969  0.00  0.00    +0.000 A 
ATOM     17  C   UNL     1       1.361   7.492  20.837  0.00  0.00    +0.000 A 
ATOM     18  C   UNL     1       2.153   7.304  19.688  0.00  0.00    +0.000 A 
ATOM     19  C   UNL     1       2.985   6.271  19.196  0.00  0.00    +0.000 A 
ENDROOT
BRANCH  15  20
ATOM     20  O   UNL     1       0.007  10.834  20.212  0.00  0.00    +0.000 OA
ATOM     21  H   UNL     1       0.641  11.520  20.498  0.00  0.00    +0.000 HD
ENDBRANCH  15  20
BRANCH  16  22
ATOM     22  O   UNL     1      -0.110   8.872  22.084  0.00  0.00    +0.000 OA
ATOM     23  H   UNL     1       0.222   9.695  22.495  0.00  0.00    +0.000 HD
ENDBRANCH  16  22
TORSDOF 2
ENDMDL
MODEL 7
REMARK VINA RESULT:      -7.4      4.165      6.489
REMARK  Name = 
REMARK  2 active torsions:
REMARK  status: ('A' for Active; 'I' for Inactive)
REMARK    1  A    between atoms: C_15  and  O_16
REMARK    2  A    between atoms: C_17  and  O_18
REMARK                            x       y       z     vdW  Elec       q    Type
REMARK                         _______ _______ _______ _____ _____    ______ ____
ROOT
ATOM      1  O   UNL     1       4.055   7.023  16.899  0.00  0.00    +0.000 OA
ATOM      2  C   UNL     1       3.625   6.427  17.881  0.00  0.00    +0.000 A 
ATOM      3  O   UNL     1       3.990   5.085  18.146  0.00  0.00    +0.000 OA
ATOM      4  C   UNL     1       3.512   4.352  19.276  0.00  0.00    +0.000 A 
ATOM      5  C   UNL     1       3.955   3.042  19.410  0.00  0.00    +0.000 A 
ATOM      6  C   UNL     1       3.511   2.298  20.500  0.00  0.00    +0.000 A 
ATOM      7  C   UNL     1       2.636   2.866  21.435  0.00  0.00    +0.000 A 
ATOM      8  C   UNL     1       2.195   4.188  21.290  0.00  0.00    +0.000 A 
ATOM      9  C   UNL     1       2.634   4.939  20.204  0.00  0.00    +0.000 A 
ATOM     10  C   UNL     1       2.278   6.301  19.916  0.00  0.00    +0.000 A 
ATOM     11  O   UNL     1       1.442   7.024  20.700  0.00  0.00    +0.000 OA
ATOM     12  C   UNL     1       1.347   8.259  20.103  0.00  0.00    +0.000 A 
ATOM     13  C   UNL     1       0.598   9.346  20.549  0.00  0.00    +0.000 A 
ATOM     14  F   UNL     1      -0.149   9.301  21.660  0.00  0.00    +0.000 F 
ATOM     15  C   UNL     1       0.646  10.513  19.784  0.00  0.00    +0.000 A 
ATOM     16  C   UNL     1       1.415  10.576  18.627  0.00  0.00    +0.000 A 
ATOM     17  C   UNL     1       2.163   9.487  18.184  0.00  0.00    +0.000 A 
ATOM     18  C   UNL     1       2.129   8.300  18.941  0.00  0.00    +0.000 A 
ATOM     19  C   UNL     1       2.724   7.022  18.838  0.00  0.00    +0.000 A 
ENDROOT
BRANCH  15  20
ATOM     20  O   UNL     1      -0.059  11.633  20.146  0.00  0.00    +0.000 OA
ATOM     21  H   UNL     1       0.376  11.998  20.941  0.00  0.00    +0.000 HD
ENDBRANCH  15  20
BRANCH  16  22
ATOM     22  O   UNL     1       1.449  11.730  17.892  0.00  0.00    +0.000 OA
ATOM     23  H   UNL     1       0.847  12.347  18.352  0.00  0.00    +0.000 HD
ENDBRANCH  16  22
TORSDOF 2
ENDMDL
MODEL 8
REMARK VINA RESULT:      -7.3      5.203      7.212
REMARK  Name = 
REMARK  2 active torsions:
REMARK  status: ('A' for Active; 'I' for Inactive)
REMARK    1  A    between atoms: C_15  and  O_16
REMARK    2  A    between atoms: C_17  and  O_18
REMARK                            x       y       z     vdW  Elec       q    Type
REMARK                         _______ _______ _______ _____ _____    ______ ____
ROOT
ATOM      1  O   UNL     1       2.099   9.557  17.346  0.00  0.00    +0.000 OA
ATOM      2  C   UNL     1       2.128   8.601  18.115  0.00  0.00    +0.000 A 
ATOM      3  O   UNL     1       2.699   7.364  17.731  0.00  0.00    +0.000 OA
ATOM      4  C   UNL     1       2.754   6.226  18.593  0.00  0.00    +0.000 A 
ATOM      5  C   UNL     1       3.346   5.077  18.083  0.00  0.00    +0.000 A 
ATOM      6  C   UNL     1       3.418   3.948  18.895  0.00  0.00    +0.000 A 
ATOM      7  C   UNL     1       2.901   3.980  20.198  0.00  0.00    +0.000 A 
ATOM      8  C   UNL     1       2.306   5.144  20.702  0.00  0.00    +0.000 A 
ATOM      9  C   UNL     1       2.231   6.276  19.898  0.00  0.00    +0.000 A 
ATOM     10  C   UNL     1       1.657   7.541  20.266  0.00  0.00    +0.000 A 
ATOM     11  O   UNL     1       1.104   7.772  21.482  0.00  0.00    +0.000 OA
ATOM     12  C   UNL     1       0.669   9.075  21.451  0.00  0.00    +0.000 A 
ATOM     13  C   UNL     1       0.034   9.768  22.480  0.00  0.00    +0.000 A 
ATOM     14  F   UNL     1      -0.236   9.208  23.667  0.00  0.00    +0.000 F 
ATOM     15  C   UNL     1      -0.326  11.094  22.233  0.00  0.00    +0.000 A 
ATOM     16  C   UNL     1      -0.054  11.690  21.006  0.00  0.00    +0.000 A 
ATOM     17  C   UNL     1       0.582  10.995  19.979  0.00  0.00    +0.000 A 
ATOM     18  C   UNL     1       0.953   9.656  20.208  0.00  0.00    +0.000 A 
ATOM     19  C   UNL     1       1.593   8.645  19.454  0.00  0.00    +0.000 A 
ENDROOT
BRANCH  15  20
ATOM     20  O   UNL     1      -0.955  11.853  23.188  0.00  0.00    +0.000 OA
ATOM     21  H   UNL     1      -1.863  12.017  22.866  0.00  0.00    +0.000 HD
ENDBRANCH  15  20
BRANCH  16  22
ATOM     22  O   UNL     1      -0.413  12.991  20.784  0.00  0.00    +0.000 OA
ATOM     23  H   UNL     1      -1.390  12.999  20.818  0.00  0.00    +0.000 HD
ENDBRANCH  16  22
TORSDOF 2
ENDMDL
MODEL 9
REMARK VINA RESULT:      -7.1      3.622      6.628
REMARK  Name = 
REMARK  2 active torsions:
REMARK  status: ('A' for Active; 'I' for Inactive)
REMARK    1  A    between atoms: C_15  and  O_16
REMARK    2  A    between atoms: C_17  and  O_18
REMARK                            x       y       z     vdW  Elec       q    Type
REMARK                         _______ _______ _______ _____ _____    ______ ____
ROOT
ATOM      1  O   UNL     1       1.486   5.624  21.224  0.00  0.00    +0.000 OA
ATOM      2  C   UNL     1       1.649   6.595  20.492  0.00  0.00    +0.000 A 
ATOM      3  O   UNL     1       1.042   7.841  20.775  0.00  0.00    +0.000 OA
ATOM      4  C   UNL     1       1.205   8.997  19.950  0.00  0.00    +0.000 A 
ATOM      5  C   UNL     1       0.549  10.155  20.352  0.00  0.00    +0.000 A 
ATOM      6  C   UNL     1       0.686  11.301  19.573  0.00  0.00    +0.000 A 
ATOM      7  C   UNL     1       1.469  11.277  18.410  0.00  0.00    +0.000 A 
ATOM      8  C   UNL     1       2.125  10.103  18.014  0.00  0.00    +0.000 A 
ATOM      9  C   UNL     1       1.994   8.955  18.787  0.00  0.00    +0.000 A 
ATOM     10  C   UNL     1       2.602   7.680  18.520  0.00  0.00    +0.000 A 
ATOM     11  O   UNL     1       3.393   7.454  17.443  0.00  0.00    +0.000 OA
ATOM     12  C   UNL     1       3.774   6.136  17.532  0.00  0.00    +0.000 A 
ATOM     13  C   UNL     1       4.598   5.444  16.646  0.00  0.00    +0.000 A 
ATOM     14  F   UNL     1       5.130   6.017  15.558  0.00  0.00    +0.000 F 
ATOM     15  C   UNL     1       4.858   4.102  16.929  0.00  0.00    +0.000 A 
ATOM     16  C   UNL     1       4.312   3.492  18.054  0.00  0.00    +0.000 A 
ATOM     17  C   UNL     1       3.489   4.187  18.938  0.00  0.00    +0.000 A 
ATOM     18  C   UNL     1       3.215   5.542  18.670  0.00  0.00    +0.000 A 
ATOM     19  C   UNL     1       2.458   6.559  19.297  0.00  0.00    +0.000 A 
ENDROOT
BRANCH  15  20
ATOM     20  O   UNL     1       5.657   3.342  16.113  0.00  0.00    +0.000 OA
ATOM     21  H   UNL     1       6.290   2.874  16.692  0.00  0.00    +0.000 HD
ENDBRANCH  15  20
BRANCH  16  22
ATOM     22  O   UNL     1       4.579   2.175  18.314  0.00  0.00    +0.000 OA
ATOM     23  H   UNL     1       5.542   2.135  18.481  0.00  0.00    +0.000 HD
ENDBRANCH  16  22
TORSDOF 2
ENDMDL
