MODEL 1
REMARK VINA RESULT:      -8.4      0.000      0.000
REMARK  Name = 
REMARK  4 active torsions:
REMARK  status: ('A' for Active; 'I' for Inactive)
REMARK    1  A    between atoms: C_1  and  C_2
REMARK    2  A    between atoms: C_7  and  C_8
REMARK    3  A    between atoms: C_11  and  C_12
REMARK    4  A    between atoms: C_12  and  N_13
REMARK                            x       y       z     vdW  Elec       q    Type
REMARK                         _______ _______ _______ _____ _____    ______ ____
ROOT
ATOM      1  C   UNL     1       7.005   4.870  16.210  0.00  0.00    +0.000 A 
ATOM      2  N   UNL     1       7.962   4.339  16.990  0.00  0.00    +0.000 NA
ATOM      3  O   UNL     1       7.462   4.497  18.285  0.00  0.00    +0.000 OA
ATOM      4  C   UNL     1       6.253   5.109  18.154  0.00  0.00    +0.000 A 
ATOM      5  N   UNL     1       5.944   5.395  16.912  0.00  0.00    +0.000 NA
ENDROOT
BRANCH   1  12
ATOM      6  C   UNL     1       4.996   3.162  14.764  0.00  0.00    +0.000 C 
ATOM      7  C   UNL     1       6.075   3.944  14.062  0.00  0.00    +0.000 A 
ATOM      8  C   UNL     1       6.194   3.814  12.666  0.00  0.00    +0.000 A 
ATOM      9  C   UNL     1       7.180   4.504  11.963  0.00  0.00    +0.000 A 
ATOM     10  C   UNL     1       8.059   5.344  12.638  0.00  0.00    +0.000 A 
ATOM     11  C   UNL     1       7.959   5.484  14.021  0.00  0.00    +0.000 A 
ATOM     12  C   UNL     1       6.984   4.780  14.752  0.00  0.00    +0.000 A 
ENDBRANCH   1  12
BRANCH   4  13
ATOM     13  C   UNL     1       5.386   5.201  19.350  0.00  0.00    +0.000 C 
BRANCH  13  14
ATOM     14  N   UNL     1       4.142   4.451  19.266  0.00  0.00    +0.000 N 
ATOM     15  C   UNL     1       2.879   5.140  19.545  0.00  0.00    +0.000 C 
ATOM     16  C   UNL     1       1.612   4.480  18.959  0.00  0.00    +0.000 C 
ATOM     17  C   UNL     1       1.131   3.261  19.758  0.00  0.00    +0.000 C 
ATOM     18  C   UNL     1       1.225   2.099  18.786  0.00  0.00    +0.000 C 
ATOM     19  C   UNL     1       2.219   2.581  17.745  0.00  0.00    +0.000 C 
ATOM     20  C   UNL     1       3.673   2.336  18.145  0.00  0.00    +0.000 C 
ATOM     21  C   UNL     1       4.243   3.079  19.341  0.00  0.00    +0.000 C 
ATOM     22  O   UNL     1       4.980   2.516  20.150  0.00  0.00    +0.000 OA
ATOM     23  N   UNL     1       1.861   3.999  17.585  0.00  0.00    +0.000 NA
ATOM     24  H   UNL     1       0.978   4.044  17.070  0.00  0.00    +0.000 HD
ENDBRANCH  13  14
ENDBRANCH   4  13
TORSDOF 3
ENDMDL
MODEL 2
REMARK VINA RESULT:      -8.3      0.708      1.599
REMARK  Name = 
REMARK  4 active torsions:
REMARK  status: ('A' for Active; 'I' for Inactive)
REMARK    1  A    between atoms: C_1  and  C_2
REMARK    2  A    between atoms: C_7  and  C_8
REMARK    3  A    between atoms: C_11  and  C_12
REMARK    4  A    between atoms: C_12  and  N_13
REMARK                            x       y       z     vdW  Elec       q    Type
REMARK                         _______ _______ _______ _____ _____    ______ ____
ROOT
ATOM      1  C   UNL     1       6.719   4.780  15.468  0.00  0.00    +0.000 A 
ATOM      2  N   UNL     1       7.769   4.522  16.266  0.00  0.00    +0.000 NA
ATOM      3  O   UNL     1       7.329   4.913  17.533  0.00  0.00    +0.000 OA
ATOM      4  C   UNL     1       6.056   5.369  17.369  0.00  0.00    +0.000 A 
ATOM      5  N   UNL     1       5.650   5.347  16.122  0.00  0.00    +0.000 NA
ENDROOT
BRANCH   1  12
ATOM      6  C   UNL     1       8.645   5.801  13.396  0.00  0.00    +0.000 C 
ATOM      7  C   UNL     1       7.497   4.880  13.076  0.00  0.00    +0.000 A 
ATOM      8  C   UNL     1       7.272   4.536  11.731  0.00  0.00    +0.000 A 
ATOM      9  C   UNL     1       6.218   3.697  11.372  0.00  0.00    +0.000 A 
ATOM     10  C   UNL     1       5.377   3.177  12.349  0.00  0.00    +0.000 A 
ATOM     11  C   UNL     1       5.582   3.509  13.688  0.00  0.00    +0.000 A 
ATOM     12  C   UNL     1       6.627   4.372  14.069  0.00  0.00    +0.000 A 
ENDBRANCH   1  12
BRANCH   4  13
ATOM     13  C   UNL     1       5.252   5.642  18.582  0.00  0.00    +0.000 C 
BRANCH  13  14
ATOM     14  N   UNL     1       4.093   4.780  18.756  0.00  0.00    +0.000 N 
ATOM     15  C   UNL     1       2.805   5.386  19.103  0.00  0.00    +0.000 C 
ATOM     16  C   UNL     1       1.555   4.539  18.776  0.00  0.00    +0.000 C 
ATOM     17  C   UNL     1       1.302   3.408  19.782  0.00  0.00    +0.000 C 
ATOM     18  C   UNL     1       1.406   2.132  18.965  0.00  0.00    +0.000 C 
ATOM     19  C   UNL     1       2.216   2.548  17.751  0.00  0.00    +0.000 C 
ATOM     20  C   UNL     1       3.724   2.494  17.990  0.00  0.00    +0.000 C 
ATOM     21  C   UNL     1       4.347   3.447  18.996  0.00  0.00    +0.000 C 
ATOM     22  O   UNL     1       5.227   3.072  19.770  0.00  0.00    +0.000 OA
ATOM     23  N   UNL     1       1.694   3.892  17.456  0.00  0.00    +0.000 NA
ATOM     24  H   UNL     1       0.758   3.784  17.057  0.00  0.00    +0.000 HD
ENDBRANCH  13  14
ENDBRANCH   4  13
TORSDOF 3
ENDMDL
MODEL 3
REMARK VINA RESULT:      -8.1      1.242      1.952
REMARK  Name = 
REMARK  4 active torsions:
REMARK  status: ('A' for Active; 'I' for Inactive)
REMARK    1  A    between atoms: C_1  and  C_2
REMARK    2  A    between atoms: C_7  and  C_8
REMARK    3  A    between atoms: C_11  and  C_12
REMARK    4  A    between atoms: C_12  and  N_13
REMARK                            x       y       z     vdW  Elec       q    Type
REMARK                         _______ _______ _______ _____ _____    ______ ____
ROOT
ATOM      1  C   UNL     1       6.990   4.939  16.237  0.00  0.00    +0.000 A 
ATOM      2  N   UNL     1       7.946   4.413  17.023  0.00  0.00    +0.000 NA
ATOM      3  O   UNL     1       7.485   4.662  18.319  0.00  0.00    +0.000 OA
ATOM      4  C   UNL     1       6.298   5.314  18.182  0.00  0.00    +0.000 A 
ATOM      5  N   UNL     1       5.969   5.544  16.933  0.00  0.00    +0.000 NA
ENDROOT
BRANCH   1  12
ATOM      6  C   UNL     1       4.977   3.117  14.944  0.00  0.00    +0.000 C 
ATOM      7  C   UNL     1       6.019   3.882  14.170  0.00  0.00    +0.000 A 
ATOM      8  C   UNL     1       6.100   3.679  12.780  0.00  0.00    +0.000 A 
ATOM      9  C   UNL     1       7.051   4.350  12.012  0.00  0.00    +0.000 A 
ATOM     10  C   UNL     1       7.931   5.242  12.615  0.00  0.00    +0.000 A 
ATOM     11  C   UNL     1       7.869   5.453  13.992  0.00  0.00    +0.000 A 
ATOM     12  C   UNL     1       6.930   4.770  14.788  0.00  0.00    +0.000 A 
ENDBRANCH   1  12
BRANCH   4  13
ATOM     13  C   UNL     1       5.465   5.506  19.390  0.00  0.00    +0.000 C 
BRANCH  13  14
ATOM     14  N   UNL     1       4.251   4.706  19.433  0.00  0.00    +0.000 N 
ATOM     15  C   UNL     1       4.331   3.279  19.111  0.00  0.00    +0.000 C 
ATOM     16  C   UNL     1       3.179   2.403  19.654  0.00  0.00    +0.000 C 
ATOM     17  C   UNL     1       1.885   2.521  18.839  0.00  0.00    +0.000 C 
ATOM     18  C   UNL     1       0.862   3.078  19.814  0.00  0.00    +0.000 C 
ATOM     19  C   UNL     1       1.711   3.734  20.888  0.00  0.00    +0.000 C 
ATOM     20  C   UNL     1       2.124   5.162  20.537  0.00  0.00    +0.000 C 
ATOM     21  C   UNL     1       3.058   5.392  19.360  0.00  0.00    +0.000 C 
ATOM     22  O   UNL     1       2.880   6.324  18.577  0.00  0.00    +0.000 OA
ATOM     23  N   UNL     1       2.833   2.794  21.035  0.00  0.00    +0.000 NA
ATOM     24  H   UNL     1       2.485   1.962  21.521  0.00  0.00    +0.000 HD
ENDBRANCH  13  14
ENDBRANCH   4  13
TORSDOF 3
ENDMDL
MODEL 4
REMARK VINA RESULT:      -7.8      1.366      2.468
REMARK  Name = 
REMARK  4 active torsions:
REMARK  status: ('A' for Active; 'I' for Inactive)
REMARK    1  A    between atoms: C_1  and  C_2
REMARK    2  A    between atoms: C_7  and  C_8
REMARK    3  A    between atoms: C_11  and  C_12
REMARK    4  A    between atoms: C_12  and  N_13
REMARK                            x       y       z     vdW  Elec       q    Type
REMARK                         _______ _______ _______ _____ _____    ______ ____
ROOT
ATOM      1  C   UNL     1       6.749   4.772  15.650  0.00  0.00    +0.000 A 
ATOM      2  N   UNL     1       7.794   4.475  16.441  0.00  0.00    +0.000 NA
ATOM      3  O   UNL     1       7.370   4.866  17.713  0.00  0.00    +0.000 OA
ATOM      4  C   UNL     1       6.111   5.361  17.559  0.00  0.00    +0.000 A 
ATOM      5  N   UNL     1       5.699   5.364  16.314  0.00  0.00    +0.000 NA
ENDROOT
BRANCH   1  12
ATOM      6  C   UNL     1       8.663   5.800  13.571  0.00  0.00    +0.000 C 
ATOM      7  C   UNL     1       7.504   4.893  13.251  0.00  0.00    +0.000 A 
ATOM      8  C   UNL     1       7.262   4.567  11.904  0.00  0.00    +0.000 A 
ATOM      9  C   UNL     1       6.197   3.741  11.546  0.00  0.00    +0.000 A 
ATOM     10  C   UNL     1       5.361   3.218  12.526  0.00  0.00    +0.000 A 
ATOM     11  C   UNL     1       5.582   3.532  13.866  0.00  0.00    +0.000 A 
ATOM     12  C   UNL     1       6.639   4.381  14.247  0.00  0.00    +0.000 A 
ENDBRANCH   1  12
BRANCH   4  13
ATOM     13  C   UNL     1       5.321   5.645  18.778  0.00  0.00    +0.000 C 
BRANCH  13  14
ATOM     14  N   UNL     1       4.165   4.782  18.975  0.00  0.00    +0.000 N 
ATOM     15  C   UNL     1       4.331   3.333  18.834  0.00  0.00    +0.000 C 
ATOM     16  C   UNL     1       3.262   2.464  19.534  0.00  0.00    +0.000 C 
ATOM     17  C   UNL     1       1.934   2.394  18.768  0.00  0.00    +0.000 C 
ATOM     18  C   UNL     1       0.911   3.008  19.708  0.00  0.00    +0.000 C 
ATOM     19  C   UNL     1       1.751   3.849  20.651  0.00  0.00    +0.000 C 
ATOM     20  C   UNL     1       2.053   5.243  20.104  0.00  0.00    +0.000 C 
ATOM     21  C   UNL     1       2.927   5.377  18.868  0.00  0.00    +0.000 C 
ATOM     22  O   UNL     1       2.659   6.186  17.982  0.00  0.00    +0.000 OA
ATOM     23  N   UNL     1       2.938   3.008  20.868  0.00  0.00    +0.000 NA
ATOM     24  H   UNL     1       2.665   2.227  21.470  0.00  0.00    +0.000 HD
ENDBRANCH  13  14
ENDBRANCH   4  13
TORSDOF 3
ENDMDL
MODEL 5
REMARK VINA RESULT:      -7.6      1.329      2.073
REMARK  Name = 
REMARK  4 active torsions:
REMARK  status: ('A' for Active; 'I' for Inactive)
REMARK    1  A    between atoms: C_1  and  C_2
REMARK    2  A    between atoms: C_7  and  C_8
REMARK    3  A    between atoms: C_11  and  C_12
REMARK    4  A    between atoms: C_12  and  N_13
REMARK                            x       y       z     vdW  Elec       q    Type
REMARK                         _______ _______ _______ _____ _____    ______ ____
ROOT
ATOM      1  C   UNL     1       5.605   4.833  15.077  0.00  0.00    +0.000 A 
ATOM      2  N   UNL     1       5.532   6.154  15.317  0.00  0.00    +0.000 NA
ATOM      3  O   UNL     1       5.388   6.232  16.704  0.00  0.00    +0.000 OA
ATOM      4  C   UNL     1       5.388   4.949  17.160  0.00  0.00    +0.000 A 
ATOM      5  N   UNL     1       5.477   4.055  16.205  0.00  0.00    +0.000 NA
ENDROOT
BRANCH   1  12
ATOM      6  C   UNL     1       8.169   5.507  13.657  0.00  0.00    +0.000 C 
ATOM      7  C   UNL     1       7.120   4.591  13.082  0.00  0.00    +0.000 A 
ATOM      8  C   UNL     1       7.318   4.082  11.785  0.00  0.00    +0.000 A 
ATOM      9  C   UNL     1       6.376   3.239  11.195  0.00  0.00    +0.000 A 
ATOM     10  C   UNL     1       5.227   2.881  11.891  0.00  0.00    +0.000 A 
ATOM     11  C   UNL     1       5.013   3.378  13.176  0.00  0.00    +0.000 A 
ATOM     12  C   UNL     1       5.940   4.248  13.781  0.00  0.00    +0.000 A 
ENDBRANCH   1  12
BRANCH   4  13
ATOM     13  C   UNL     1       5.477   4.729  18.621  0.00  0.00    +0.000 C 
BRANCH  13  14
ATOM     14  N   UNL     1       4.244   4.281  19.250  0.00  0.00    +0.000 N 
ATOM     15  C   UNL     1       3.346   5.279  19.838  0.00  0.00    +0.000 C 
ATOM     16  C   UNL     1       1.876   4.837  20.015  0.00  0.00    +0.000 C 
ATOM     17  C   UNL     1       1.656   3.916  21.223  0.00  0.00    +0.000 C 
ATOM     18  C   UNL     1       1.147   2.614  20.631  0.00  0.00    +0.000 C 
ATOM     19  C   UNL     1       1.615   2.670  19.188  0.00  0.00    +0.000 C 
ATOM     20  C   UNL     1       3.047   2.170  19.003  0.00  0.00    +0.000 C 
ATOM     21  C   UNL     1       4.189   2.957  19.625  0.00  0.00    +0.000 C 
ATOM     22  O   UNL     1       5.132   2.387  20.173  0.00  0.00    +0.000 OA
ATOM     23  N   UNL     1       1.412   4.083  18.834  0.00  0.00    +0.000 NA
ATOM     24  H   UNL     1       0.405   4.240  18.734  0.00  0.00    +0.000 HD
ENDBRANCH  13  14
ENDBRANCH   4  13
TORSDOF 3
ENDMDL
MODEL 6
REMARK VINA RESULT:      -7.3      4.684      7.201
REMARK  Name = 
REMARK  4 active torsions:
REMARK  status: ('A' for Active; 'I' for Inactive)
REMARK    1  A    between atoms: C_1  and  C_2
REMARK    2  A    between atoms: C_7  and  C_8
REMARK    3  A    between atoms: C_11  and  C_12
REMARK    4  A    between atoms: C_12  and  N_13
REMARK                            x       y       z     vdW  Elec       q    Type
REMARK                         _______ _______ _______ _____ _____    ______ ____
ROOT
ATOM      1  C   UNL     1       1.055   9.282  18.410  0.00  0.00    +0.000 A 
ATOM      2  N   UNL     1       1.908   8.876  17.453  0.00  0.00    +0.000 NA
ATOM      3  O   UNL     1       2.679   7.899  18.089  0.00  0.00    +0.000 OA
ATOM      4  C   UNL     1       2.212   7.816  19.365  0.00  0.00    +0.000 A 
ATOM      5  N   UNL     1       1.248   8.667  19.625  0.00  0.00    +0.000 NA
ENDROOT
BRANCH   1  12
ATOM      6  C   UNL     1       1.035  12.106  19.442  0.00  0.00    +0.000 C 
ATOM      7  C   UNL     1      -0.120  11.489  18.698  0.00  0.00    +0.000 A 
ATOM      8  C   UNL     1      -1.294  12.248  18.540  0.00  0.00    +0.000 A 
ATOM      9  C   UNL     1      -2.400  11.725  17.870  0.00  0.00    +0.000 A 
ATOM     10  C   UNL     1      -2.351  10.442  17.338  0.00  0.00    +0.000 A 
ATOM     11  C   UNL     1      -1.198   9.674  17.488  0.00  0.00    +0.000 A 
ATOM     12  C   UNL     1      -0.078  10.174  18.179  0.00  0.00    +0.000 A 
ENDBRANCH   1  12
BRANCH   4  13
ATOM     13  C   UNL     1       2.691   6.700  20.211  0.00  0.00    +0.000 C 
BRANCH  13  14
ATOM     14  N   UNL     1       2.592   5.382  19.602  0.00  0.00    +0.000 N 
ATOM     15  C   UNL     1       1.464   4.519  19.962  0.00  0.00    +0.000 C 
ATOM     16  C   UNL     1       1.124   3.402  18.950  0.00  0.00    +0.000 C 
ATOM     17  C   UNL     1       2.076   2.200  19.023  0.00  0.00    +0.000 C 
ATOM     18  C   UNL     1       2.736   2.146  17.657  0.00  0.00    +0.000 C 
ATOM     19  C   UNL     1       2.562   3.554  17.118  0.00  0.00    +0.000 C 
ATOM     20  C   UNL     1       3.654   4.514  17.585  0.00  0.00    +0.000 C 
ATOM     21  C   UNL     1       3.748   4.863  19.061  0.00  0.00    +0.000 C 
ATOM     22  O   UNL     1       4.836   4.945  19.630  0.00  0.00    +0.000 OA
ATOM     23  N   UNL     1       1.206   3.909  17.566  0.00  0.00    +0.000 NA
ATOM     24  H   UNL     1       0.539   3.381  16.996  0.00  0.00    +0.000 HD
ENDBRANCH  13  14
ENDBRANCH   4  13
TORSDOF 3
ENDMDL
MODEL 7
REMARK VINA RESULT:      -7.3      4.936      7.214
REMARK  Name = 
REMARK  4 active torsions:
REMARK  status: ('A' for Active; 'I' for Inactive)
REMARK    1  A    between atoms: C_1  and  C_2
REMARK    2  A    between atoms: C_7  and  C_8
REMARK    3  A    between atoms: C_11  and  C_12
REMARK    4  A    between atoms: C_12  and  N_13
REMARK                            x       y       z     vdW  Elec       q    Type
REMARK                         _______ _______ _______ _____ _____    ______ ____
ROOT
ATOM      1  C   UNL     1       1.175   9.599  18.952  0.00  0.00    +0.000 A 
ATOM      2  N   UNL     1       1.304   8.930  20.111  0.00  0.00    +0.000 NA
ATOM      3  O   UNL     1       2.069   7.813  19.767  0.00  0.00    +0.000 OA
ATOM      4  C   UNL     1       2.323   7.922  18.434  0.00  0.00    +0.000 A 
ATOM      5  N   UNL     1       1.767   8.972  17.880  0.00  0.00    +0.000 NA
ENDROOT
BRANCH   1  12
ATOM      6  C   UNL     1      -1.699  10.023  18.177  0.00  0.00    +0.000 C 
ATOM      7  C   UNL     1      -0.734  11.153  18.423  0.00  0.00    +0.000 A 
ATOM      8  C   UNL     1      -1.179  12.470  18.211  0.00  0.00    +0.000 A 
ATOM      9  C   UNL     1      -0.327  13.556  18.412  0.00  0.00    +0.000 A 
ATOM     10  C   UNL     1       0.980  13.347  18.837  0.00  0.00    +0.000 A 
ATOM     11  C   UNL     1       1.441  12.048  19.049  0.00  0.00    +0.000 A 
ATOM     12  C   UNL     1       0.603  10.938  18.832  0.00  0.00    +0.000 A 
ENDBRANCH   1  12
BRANCH   4  13
ATOM     13  C   UNL     1       3.308   6.993  17.835  0.00  0.00    +0.000 C 
BRANCH  13  14
ATOM     14  N   UNL     1       3.094   5.588  18.147  0.00  0.00    +0.000 N 
ATOM     15  C   UNL     1       1.721   5.087  18.256  0.00  0.00    +0.000 C 
ATOM     16  C   UNL     1       1.547   3.562  18.073  0.00  0.00    +0.000 C 
ATOM     17  C   UNL     1       1.949   2.748  19.310  0.00  0.00    +0.000 C 
ATOM     18  C   UNL     1       3.099   1.874  18.842  0.00  0.00    +0.000 C 
ATOM     19  C   UNL     1       3.622   2.596  17.614  0.00  0.00    +0.000 C 
ATOM     20  C   UNL     1       4.625   3.699  17.949  0.00  0.00    +0.000 C 
ATOM     21  C   UNL     1       4.151   4.917  18.724  0.00  0.00    +0.000 C 
ATOM     22  O   UNL     1       4.836   5.412  19.617  0.00  0.00    +0.000 OA
ATOM     23  N   UNL     1       2.390   3.070  16.965  0.00  0.00    +0.000 NA
ATOM     24  H   UNL     1       1.923   2.259  16.549  0.00  0.00    +0.000 HD
ENDBRANCH  13  14
ENDBRANCH   4  13
TORSDOF 3
ENDMDL
MODEL 8
REMARK VINA RESULT:      -7.3      1.911      2.889
REMARK  Name = 
REMARK  4 active torsions:
REMARK  status: ('A' for Active; 'I' for Inactive)
REMARK    1  A    between atoms: C_1  and  C_2
REMARK    2  A    between atoms: C_7  and  C_8
REMARK    3  A    between atoms: C_11  and  C_12
REMARK    4  A    between atoms: C_12  and  N_13
REMARK                            x       y       z     vdW  Elec       q    Type
REMARK                         _______ _______ _______ _____ _____    ______ ____
ROOT
ATOM      1  C   UNL     1       6.491   5.171  15.030  0.00  0.00    +0.000 A 
ATOM      2  N   UNL     1       7.324   4.963  16.063  0.00  0.00    +0.000 NA
ATOM      3  O   UNL     1       6.751   5.696  17.106  0.00  0.00    +0.000 OA
ATOM      4  C   UNL     1       5.630   6.273  16.593  0.00  0.00    +0.000 A 
ATOM      5  N   UNL     1       5.446   6.018  15.320  0.00  0.00    +0.000 NA
ENDROOT
BRANCH   1  12
ATOM      6  C   UNL     1       8.545   5.884  12.952  0.00  0.00    +0.000 C 
ATOM      7  C   UNL     1       7.497   4.820  12.749  0.00  0.00    +0.000 A 
ATOM      8  C   UNL     1       7.432   4.177  11.500  0.00  0.00    +0.000 A 
ATOM      9  C   UNL     1       6.477   3.193  11.249  0.00  0.00    +0.000 A 
ATOM     10  C   UNL     1       5.577   2.826  12.244  0.00  0.00    +0.000 A 
ATOM     11  C   UNL     1       5.624   3.454  13.487  0.00  0.00    +0.000 A 
ATOM     12  C   UNL     1       6.567   4.465  13.753  0.00  0.00    +0.000 A 
ENDBRANCH   1  12
BRANCH   4  13
ATOM     13  C   UNL     1       4.693   6.930  17.533  0.00  0.00    +0.000 C 
BRANCH  13  14
ATOM     14  N   UNL     1       3.690   6.051  18.113  0.00  0.00    +0.000 N 
ATOM     15  C   UNL     1       3.576   4.678  17.614  0.00  0.00    +0.000 C 
ATOM     16  C   UNL     1       2.896   3.671  18.568  0.00  0.00    +0.000 C 
ATOM     17  C   UNL     1       1.366   3.794  18.597  0.00  0.00    +0.000 C 
ATOM     18  C   UNL     1       1.035   4.167  20.031  0.00  0.00    +0.000 C 
ATOM     19  C   UNL     1       2.332   4.752  20.559  0.00  0.00    +0.000 C 
ATOM     20  C   UNL     1       2.497   6.235  20.233  0.00  0.00    +0.000 C 
ATOM     21  C   UNL     1       2.650   6.659  18.782  0.00  0.00    +0.000 C 
ATOM     22  O   UNL     1       2.082   7.660  18.347  0.00  0.00    +0.000 OA
ATOM     23  N   UNL     1       3.351   3.878  19.957  0.00  0.00    +0.000 NA
ATOM     24  H   UNL     1       3.316   2.976  20.439  0.00  0.00    +0.000 HD
ENDBRANCH  13  14
ENDBRANCH   4  13
TORSDOF 3
ENDMDL
MODEL 9
REMARK VINA RESULT:      -7.3      2.901      6.951
REMARK  Name = 
REMARK  4 active torsions:
REMARK  status: ('A' for Active; 'I' for Inactive)
REMARK    1  A    between atoms: C_1  and  C_2
REMARK    2  A    between atoms: C_7  and  C_8
REMARK    3  A    between atoms: C_11  and  C_12
REMARK    4  A    between atoms: C_12  and  N_13
REMARK                            x       y       z     vdW  Elec       q    Type
REMARK                         _______ _______ _______ _____ _____    ______ ____
ROOT
ATOM      1  C   UNL     1       2.266   6.620  20.009  0.00  0.00    +0.000 A 
ATOM      2  N   UNL     1       1.809   5.482  20.559  0.00  0.00    +0.000 NA
ATOM      3  O   UNL     1       2.822   4.555  20.295  0.00  0.00    +0.000 OA
ATOM      4  C   UNL     1       3.787   5.231  19.612  0.00  0.00    +0.000 A 
ATOM      5  N   UNL     1       3.480   6.484  19.376  0.00  0.00    +0.000 NA
ENDROOT
BRANCH   1  12
ATOM      6  C   UNL     1       1.956   8.533  17.710  0.00  0.00    +0.000 C 
ATOM      7  C   UNL     1       1.527   8.855  19.118  0.00  0.00    +0.000 A 
ATOM      8  C   UNL     1       1.022  10.141  19.384  0.00  0.00    +0.000 A 
ATOM      9  C   UNL     1       0.620  10.501  20.670  0.00  0.00    +0.000 A 
ATOM     10  C   UNL     1       0.706   9.582  21.710  0.00  0.00    +0.000 A 
ATOM     11  C   UNL     1       1.207   8.304  21.466  0.00  0.00    +0.000 A 
ATOM     12  C   UNL     1       1.638   7.928  20.180  0.00  0.00    +0.000 A 
ENDBRANCH   1  12
BRANCH   4  13
ATOM     13  C   UNL     1       5.087   4.557  19.395  0.00  0.00    +0.000 C 
BRANCH  13  14
ATOM     14  N   UNL     1       5.553   4.554  18.017  0.00  0.00    +0.000 N 
ATOM     15  C   UNL     1       4.762   3.853  17.002  0.00  0.00    +0.000 C 
ATOM     16  C   UNL     1       4.998   4.297  15.542  0.00  0.00    +0.000 C 
ATOM     17  C   UNL     1       6.290   3.735  14.933  0.00  0.00    +0.000 C 
ATOM     18  C   UNL     1       7.128   4.959  14.606  0.00  0.00    +0.000 C 
ATOM     19  C   UNL     1       6.553   6.038  15.505  0.00  0.00    +0.000 C 
ATOM     20  C   UNL     1       7.150   6.030  16.911  0.00  0.00    +0.000 C 
ATOM     21  C   UNL     1       6.887   4.838  17.817  0.00  0.00    +0.000 C 
ATOM     22  O   UNL     1       7.774   4.368  18.527  0.00  0.00    +0.000 OA
ATOM     23  N   UNL     1       5.108   5.767  15.455  0.00  0.00    +0.000 NA
ATOM     24  H   UNL     1       4.766   6.056  14.534  0.00  0.00    +0.000 HD
ENDBRANCH  13  14
ENDBRANCH   4  13
TORSDOF 3
ENDMDL
