MODEL 1
REMARK VINA RESULT:      -8.0      0.000      0.000
REMARK  Name = 
REMARK  8 active torsions:
REMARK  status: ('A' for Active; 'I' for Inactive)
REMARK    1  A    between atoms: C_2  and  C_12
REMARK    2  A    between atoms: N_3  and  C_4
REMARK    3  A    between atoms: C_4  and  C_5
REMARK    4  A    between atoms: N_15  and  C_16
REMARK    5  A    between atoms: C_16  and  C_17
REMARK    6  A    between atoms: C_17  and  N_18
REMARK    7  A    between atoms: N_18  and  C_19
REMARK    8  A    between atoms: C_19  and  C_20
REMARK                            x       y       z     vdW  Elec       q    Type
REMARK                         _______ _______ _______ _____ _____    ______ ____
ROOT
ATOM      1  C   UNL     1       6.476   6.199  17.856  0.00  0.00    +0.000 A 
ATOM      2  N   UNL     1       7.494   5.790  18.708  0.00  0.00    +0.000 NA
ATOM      3  C   UNL     1       8.276   6.843  18.781  0.00  0.00    +0.000 A 
ATOM      4  N   UNL     1       7.767   7.843  18.012  0.00  0.00    +0.000 N 
ATOM      5  N   UNL     1       6.637   7.457  17.398  0.00  0.00    +0.000 NA
ENDROOT
BRANCH   1   7
ATOM      6  O   UNL     1       4.453   5.651  16.694  0.00  0.00    +0.000 OA
ATOM      7  C   UNL     1       5.322   5.338  17.506  0.00  0.00    +0.000 C 
ATOM      8  N   UNL     1       5.282   4.132  18.181  0.00  0.00    +0.000 N 
ATOM      9  H   UNL     1       6.013   3.908  18.852  0.00  0.00    +0.000 HD
BRANCH   8  10
ATOM     10  C   UNL     1       4.190   3.200  17.993  0.00  0.00    +0.000 C 
BRANCH  10  11
ATOM     11  C   UNL     1       3.190   3.198  19.131  0.00  0.00    +0.000 A 
ATOM     12  N   UNL     1       3.584   2.643  20.315  0.00  0.00    +0.000 NA
ATOM     13  C   UNL     1       2.698   2.645  21.336  0.00  0.00    +0.000 A 
ATOM     14  C   UNL     1       1.420   3.172  21.249  0.00  0.00    +0.000 A 
ATOM     15  C   UNL     1       1.025   3.736  20.038  0.00  0.00    +0.000 A 
ATOM     16  C   UNL     1       1.915   3.753  18.963  0.00  0.00    +0.000 A 
ATOM     17 CL   UNL     1       1.394   4.463  17.482  0.00  0.00    +0.000 Cl
ENDBRANCH  10  11
ENDBRANCH   8  10
ENDBRANCH   1   7
BRANCH   4  18
ATOM     18  C   UNL     1       8.282   9.189  17.855  0.00  0.00    +0.000 C 
BRANCH  18  19
ATOM     19  C   UNL     1       8.960   9.693  19.131  0.00  0.00    +0.000 C 
BRANCH  19  20
ATOM     20  N   UNL     1       9.818  10.865  18.876  0.00  0.00    +0.000 NA
ATOM     21  H   UNL     1      10.685  10.548  18.431  0.00  0.00    +0.000 HD
BRANCH  20  22
ATOM     22  C   UNL     1       9.191  11.792  17.917  0.00  0.00    +0.000 C 
BRANCH  22  23
ATOM     23  C   UNL     1       9.740  13.180  18.045  0.00  0.00    +0.000 A 
ATOM     24  N   UNL     1       9.941  13.840  19.169  0.00  0.00    +0.000 NA
ATOM     25  C   UNL     1      10.496  15.038  18.799  0.00  0.00    +0.000 A 
ATOM     26  C   UNL     1      10.894  16.120  19.594  0.00  0.00    +0.000 A 
ATOM     27  C   UNL     1      11.421  17.256  18.965  0.00  0.00    +0.000 A 
ATOM     28  C   UNL     1      11.573  17.298  17.577  0.00  0.00    +0.000 A 
ATOM     29  C   UNL     1      11.198  16.218  16.768  0.00  0.00    +0.000 A 
ATOM     30  C   UNL     1      10.648  15.110  17.419  0.00  0.00    +0.000 A 
ATOM     31  N   UNL     1      10.149  13.918  16.960  0.00  0.00    +0.000 N 
ATOM     32  H   UNL     1      10.096  13.632  15.993  0.00  0.00    +0.000 HD
ENDBRANCH  22  23
ENDBRANCH  20  22
ENDBRANCH  19  20
ENDBRANCH  18  19
ENDBRANCH   4  18
TORSDOF 8
ENDMDL
MODEL 2
REMARK VINA RESULT:      -7.9      3.959     10.897
REMARK  Name = 
REMARK  8 active torsions:
REMARK  status: ('A' for Active; 'I' for Inactive)
REMARK    1  A    between atoms: C_2  and  C_12
REMARK    2  A    between atoms: N_3  and  C_4
REMARK    3  A    between atoms: C_4  and  C_5
REMARK    4  A    between atoms: N_15  and  C_16
REMARK    5  A    between atoms: C_16  and  C_17
REMARK    6  A    between atoms: C_17  and  N_18
REMARK    7  A    between atoms: N_18  and  C_19
REMARK    8  A    between atoms: C_19  and  C_20
REMARK                            x       y       z     vdW  Elec       q    Type
REMARK                         _______ _______ _______ _____ _____    ______ ____
ROOT
ATOM      1  C   UNL     1       8.250   8.704  18.295  0.00  0.00    +0.000 A 
ATOM      2  N   UNL     1       8.577   7.560  19.012  0.00  0.00    +0.000 NA
ATOM      3  C   UNL     1       7.859   6.622  18.438  0.00  0.00    +0.000 A 
ATOM      4  N   UNL     1       7.128   7.161  17.426  0.00  0.00    +0.000 N 
ATOM      5  N   UNL     1       7.340   8.483  17.324  0.00  0.00    +0.000 NA
ENDROOT
BRANCH   1   7
ATOM      6  O   UNL     1       8.903  10.943  17.745  0.00  0.00    +0.000 OA
ATOM      7  C   UNL     1       8.858  10.028  18.565  0.00  0.00    +0.000 C 
ATOM      8  N   UNL     1       9.397  10.162  19.831  0.00  0.00    +0.000 N 
ATOM      9  H   UNL     1       9.350   9.382  20.482  0.00  0.00    +0.000 HD
BRANCH   8  10
ATOM     10  C   UNL     1      10.077  11.375  20.235  0.00  0.00    +0.000 C 
BRANCH  10  11
ATOM     11  C   UNL     1       9.380  12.118  21.356  0.00  0.00    +0.000 A 
ATOM     12  N   UNL     1       8.456  11.430  22.089  0.00  0.00    +0.000 NA
ATOM     13  C   UNL     1       7.836  12.086  23.096  0.00  0.00    +0.000 A 
ATOM     14  C   UNL     1       8.082  13.409  23.421  0.00  0.00    +0.000 A 
ATOM     15  C   UNL     1       9.026  14.105  22.669  0.00  0.00    +0.000 A 
ATOM     16  C   UNL     1       9.686  13.458  21.624  0.00  0.00    +0.000 A 
ATOM     17 CL   UNL     1      10.850  14.349  20.718  0.00  0.00    +0.000 Cl
ENDBRANCH  10  11
ENDBRANCH   8  10
ENDBRANCH   1   7
BRANCH   4  18
ATOM     18  C   UNL     1       6.251   6.470  16.501  0.00  0.00    +0.000 C 
BRANCH  18  19
ATOM     19  C   UNL     1       6.906   5.210  15.928  0.00  0.00    +0.000 C 
BRANCH  19  20
ATOM     20  N   UNL     1       6.506   3.997  16.664  0.00  0.00    +0.000 NA
ATOM     21  H   UNL     1       6.440   4.224  17.662  0.00  0.00    +0.000 HD
BRANCH  20  22
ATOM     22  C   UNL     1       5.161   3.543  16.267  0.00  0.00    +0.000 C 
BRANCH  22  23
ATOM     23  C   UNL     1       4.221   3.503  17.431  0.00  0.00    +0.000 A 
ATOM     24  N   UNL     1       2.969   3.919  17.439  0.00  0.00    +0.000 NA
ATOM     25  C   UNL     1       2.496   3.639  18.696  0.00  0.00    +0.000 A 
ATOM     26  C   UNL     1       1.232   3.883  19.249  0.00  0.00    +0.000 A 
ATOM     27  C   UNL     1       1.001   3.518  20.580  0.00  0.00    +0.000 A 
ATOM     28  C   UNL     1       1.999   2.895  21.334  0.00  0.00    +0.000 A 
ATOM     29  C   UNL     1       3.262   2.625  20.792  0.00  0.00    +0.000 A 
ATOM     30  C   UNL     1       3.475   3.028  19.471  0.00  0.00    +0.000 A 
ATOM     31  N   UNL     1       4.568   2.962  18.647  0.00  0.00    +0.000 N 
ATOM     32  H   UNL     1       5.471   2.578  18.890  0.00  0.00    +0.000 HD
ENDBRANCH  22  23
ENDBRANCH  20  22
ENDBRANCH  19  20
ENDBRANCH  18  19
ENDBRANCH   4  18
TORSDOF 8
ENDMDL
MODEL 3
REMARK VINA RESULT:      -7.8      6.763      9.290
REMARK  Name = 
REMARK  8 active torsions:
REMARK  status: ('A' for Active; 'I' for Inactive)
REMARK    1  A    between atoms: C_2  and  C_12
REMARK    2  A    between atoms: N_3  and  C_4
REMARK    3  A    between atoms: C_4  and  C_5
REMARK    4  A    between atoms: N_15  and  C_16
REMARK    5  A    between atoms: C_16  and  C_17
REMARK    6  A    between atoms: C_17  and  N_18
REMARK    7  A    between atoms: N_18  and  C_19
REMARK    8  A    between atoms: C_19  and  C_20
REMARK                            x       y       z     vdW  Elec       q    Type
REMARK                         _______ _______ _______ _____ _____    ______ ____
ROOT
ATOM      1  C   UNL     1       2.427   7.316  18.916  0.00  0.00    +0.000 A 
ATOM      2  N   UNL     1       1.858   6.832  20.088  0.00  0.00    +0.000 NA
ATOM      3  C   UNL     1       2.455   5.675  20.263  0.00  0.00    +0.000 A 
ATOM      4  N   UNL     1       3.339   5.459  19.253  0.00  0.00    +0.000 N 
ATOM      5  N   UNL     1       3.329   6.473  18.373  0.00  0.00    +0.000 NA
ENDROOT
BRANCH   1   7
ATOM      6  O   UNL     1       2.476   9.029  17.241  0.00  0.00    +0.000 OA
ATOM      7  C   UNL     1       2.084   8.636  18.338  0.00  0.00    +0.000 C 
ATOM      8  N   UNL     1       1.280   9.422  19.144  0.00  0.00    +0.000 N 
ATOM      9  H   UNL     1       0.980   9.070  20.049  0.00  0.00    +0.000 HD
BRANCH   8  10
ATOM     10  C   UNL     1       0.899  10.762  18.749  0.00  0.00    +0.000 C 
BRANCH  10  11
ATOM     11  C   UNL     1      -0.595  10.943  18.574  0.00  0.00    +0.000 A 
ATOM     12  N   UNL     1      -1.209  10.208  17.599  0.00  0.00    +0.000 NA
ATOM     13  C   UNL     1      -2.543  10.360  17.444  0.00  0.00    +0.000 A 
ATOM     14  C   UNL     1      -3.317  11.215  18.210  0.00  0.00    +0.000 A 
ATOM     15  C   UNL     1      -2.685  11.961  19.202  0.00  0.00    +0.000 A 
ATOM     16  C   UNL     1      -1.309  11.828  19.391  0.00  0.00    +0.000 A 
ATOM     17 CL   UNL     1      -0.560  12.763  20.630  0.00  0.00    +0.000 Cl
ENDBRANCH  10  11
ENDBRANCH   8  10
ENDBRANCH   1   7
BRANCH   4  18
ATOM     18  C   UNL     1       4.245   4.339  19.093  0.00  0.00    +0.000 C 
BRANCH  18  19
ATOM     19  C   UNL     1       5.684   4.712  19.461  0.00  0.00    +0.000 C 
BRANCH  19  20
ATOM     20  N   UNL     1       6.629   4.414  18.369  0.00  0.00    +0.000 NA
ATOM     21  H   UNL     1       6.224   3.684  17.773  0.00  0.00    +0.000 HD
BRANCH  20  22
ATOM     22  C   UNL     1       6.827   5.582  17.493  0.00  0.00    +0.000 C 
BRANCH  22  23
ATOM     23  C   UNL     1       6.794   5.204  16.045  0.00  0.00    +0.000 A 
ATOM     24  N   UNL     1       7.642   5.600  15.115  0.00  0.00    +0.000 NA
ATOM     25  C   UNL     1       7.248   4.966  13.964  0.00  0.00    +0.000 A 
ATOM     26  C   UNL     1       7.791   5.039  12.675  0.00  0.00    +0.000 A 
ATOM     27  C   UNL     1       7.186   4.300  11.650  0.00  0.00    +0.000 A 
ATOM     28  C   UNL     1       6.082   3.485  11.913  0.00  0.00    +0.000 A 
ATOM     29  C   UNL     1       5.538   3.384  13.200  0.00  0.00    +0.000 A 
ATOM     30  C   UNL     1       6.143   4.155  14.196  0.00  0.00    +0.000 A 
ATOM     31  N   UNL     1       5.866   4.332  15.527  0.00  0.00    +0.000 N 
ATOM     32  H   UNL     1       5.113   3.894  16.039  0.00  0.00    +0.000 HD
ENDBRANCH  22  23
ENDBRANCH  20  22
ENDBRANCH  19  20
ENDBRANCH  18  19
ENDBRANCH   4  18
TORSDOF 8
ENDMDL
MODEL 4
REMARK VINA RESULT:      -7.8      7.634     10.808
REMARK  Name = 
REMARK  8 active torsions:
REMARK  status: ('A' for Active; 'I' for Inactive)
REMARK    1  A    between atoms: C_2  and  C_12
REMARK    2  A    between atoms: N_3  and  C_4
REMARK    3  A    between atoms: C_4  and  C_5
REMARK    4  A    between atoms: N_15  and  C_16
REMARK    5  A    between atoms: C_16  and  C_17
REMARK    6  A    between atoms: C_17  and  N_18
REMARK    7  A    between atoms: N_18  and  C_19
REMARK    8  A    between atoms: C_19  and  C_20
REMARK                            x       y       z     vdW  Elec       q    Type
REMARK                         _______ _______ _______ _____ _____    ______ ____
ROOT
ATOM      1  C   UNL     1       1.461   8.910  19.396  0.00  0.00    +0.000 A 
ATOM      2  N   UNL     1       0.714   8.833  20.565  0.00  0.00    +0.000 NA
ATOM      3  C   UNL     1       0.045   9.963  20.576  0.00  0.00    +0.000 A 
ATOM      4  N   UNL     1       0.366  10.695  19.477  0.00  0.00    +0.000 N 
ATOM      5  N   UNL     1       1.276  10.062  18.720  0.00  0.00    +0.000 NA
ENDROOT
BRANCH   1   7
ATOM      6  O   UNL     1       2.836   7.758  17.806  0.00  0.00    +0.000 OA
ATOM      7  C   UNL     1       2.354   7.821  18.936  0.00  0.00    +0.000 C 
ATOM      8  N   UNL     1       2.607   6.849  19.886  0.00  0.00    +0.000 N 
ATOM      9  H   UNL     1       2.186   6.927  20.809  0.00  0.00    +0.000 HD
BRANCH   8  10
ATOM     10  C   UNL     1       3.417   5.689  19.579  0.00  0.00    +0.000 C 
BRANCH  10  11
ATOM     11  C   UNL     1       2.608   4.448  19.261  0.00  0.00    +0.000 A 
ATOM     12  N   UNL     1       1.483   4.224  20.003  0.00  0.00    +0.000 NA
ATOM     13  C   UNL     1       0.752   3.122  19.719  0.00  0.00    +0.000 A 
ATOM     14  C   UNL     1       1.080   2.212  18.728  0.00  0.00    +0.000 A 
ATOM     15  C   UNL     1       2.229   2.447  17.976  0.00  0.00    +0.000 A 
ATOM     16  C   UNL     1       3.005   3.576  18.241  0.00  0.00    +0.000 A 
ATOM     17 CL   UNL     1       4.418   3.837  17.289  0.00  0.00    +0.000 Cl
ENDBRANCH  10  11
ENDBRANCH   8  10
ENDBRANCH   1   7
BRANCH   4  18
ATOM     18  C   UNL     1      -0.185  11.974  19.071  0.00  0.00    +0.000 C 
BRANCH  18  19
ATOM     19  C   UNL     1      -1.319  11.809  18.056  0.00  0.00    +0.000 C 
BRANCH  19  20
ATOM     20  N   UNL     1      -1.230  10.528  17.331  0.00  0.00    +0.000 NA
ATOM     21  H   UNL     1      -1.319   9.761  18.005  0.00  0.00    +0.000 HD
BRANCH  20  22
ATOM     22  C   UNL     1      -2.350  10.364  16.387  0.00  0.00    +0.000 C 
BRANCH  22  23
ATOM     23  C   UNL     1      -3.645  10.835  16.972  0.00  0.00    +0.000 A 
ATOM     24  N   UNL     1      -4.243  10.348  18.042  0.00  0.00    +0.000 NA
ATOM     25  C   UNL     1      -5.363  11.120  18.221  0.00  0.00    +0.000 A 
ATOM     26  C   UNL     1      -6.360  11.030  19.201  0.00  0.00    +0.000 A 
ATOM     27  C   UNL     1      -7.426  11.936  19.156  0.00  0.00    +0.000 A 
ATOM     28  C   UNL     1      -7.481  12.927  18.173  0.00  0.00    +0.000 A 
ATOM     29  C   UNL     1      -6.483  13.044  17.198  0.00  0.00    +0.000 A 
ATOM     30  C   UNL     1      -5.447  12.109  17.248  0.00  0.00    +0.000 A 
ATOM     31  N   UNL     1      -4.346  11.900  16.457  0.00  0.00    +0.000 N 
ATOM     32  H   UNL     1      -4.094  12.439  15.641  0.00  0.00    +0.000 HD
ENDBRANCH  22  23
ENDBRANCH  20  22
ENDBRANCH  19  20
ENDBRANCH  18  19
ENDBRANCH   4  18
TORSDOF 8
ENDMDL
MODEL 5
REMARK VINA RESULT:      -7.8      6.589      9.201
REMARK  Name = 
REMARK  8 active torsions:
REMARK  status: ('A' for Active; 'I' for Inactive)
REMARK    1  A    between atoms: C_2  and  C_12
REMARK    2  A    between atoms: N_3  and  C_4
REMARK    3  A    between atoms: C_4  and  C_5
REMARK    4  A    between atoms: N_15  and  C_16
REMARK    5  A    between atoms: C_16  and  C_17
REMARK    6  A    between atoms: C_17  and  N_18
REMARK    7  A    between atoms: N_18  and  C_19
REMARK    8  A    between atoms: C_19  and  C_20
REMARK                            x       y       z     vdW  Elec       q    Type
REMARK                         _______ _______ _______ _____ _____    ______ ____
ROOT
ATOM      1  C   UNL     1       2.439   7.322  18.870  0.00  0.00    +0.000 A 
ATOM      2  N   UNL     1       1.837   6.673  19.941  0.00  0.00    +0.000 NA
ATOM      3  C   UNL     1       2.559   5.585  20.085  0.00  0.00    +0.000 A 
ATOM      4  N   UNL     1       3.547   5.566  19.151  0.00  0.00    +0.000 N 
ATOM      5  N   UNL     1       3.484   6.644  18.354  0.00  0.00    +0.000 NA
ENDROOT
BRANCH   1   7
ATOM      6  O   UNL     1       2.322   9.114  17.283  0.00  0.00    +0.000 OA
ATOM      7  C   UNL     1       1.981   8.637  18.364  0.00  0.00    +0.000 C 
ATOM      8  N   UNL     1       1.131   9.315  19.218  0.00  0.00    +0.000 N 
ATOM      9  H   UNL     1       0.875   8.896  20.108  0.00  0.00    +0.000 HD
BRANCH   8  10
ATOM     10  C   UNL     1       0.637  10.638  18.895  0.00  0.00    +0.000 C 
BRANCH  10  11
ATOM     11  C   UNL     1      -0.818  10.657  18.473  0.00  0.00    +0.000 A 
ATOM     12  N   UNL     1      -1.208   9.765  17.516  0.00  0.00    +0.000 NA
ATOM     13  C   UNL     1      -2.507   9.773  17.141  0.00  0.00    +0.000 A 
ATOM     14  C   UNL     1      -3.457  10.632  17.667  0.00  0.00    +0.000 A 
ATOM     15  C   UNL     1      -3.051  11.540  18.642  0.00  0.00    +0.000 A 
ATOM     16  C   UNL     1      -1.719  11.558  19.054  0.00  0.00    +0.000 A 
ATOM     17 CL   UNL     1      -1.254  12.692  20.266  0.00  0.00    +0.000 Cl
ENDBRANCH  10  11
ENDBRANCH   8  10
ENDBRANCH   1   7
BRANCH   4  18
ATOM     18  C   UNL     1       4.599   4.580  18.994  0.00  0.00    +0.000 C 
BRANCH  18  19
ATOM     19  C   UNL     1       5.946   5.097  19.506  0.00  0.00    +0.000 C 
BRANCH  19  20
ATOM     20  N   UNL     1       6.985   5.060  18.461  0.00  0.00    +0.000 NA
ATOM     21  H   UNL     1       6.959   4.144  18.002  0.00  0.00    +0.000 HD
BRANCH  20  22
ATOM     22  C   UNL     1       6.717   6.047  17.399  0.00  0.00    +0.000 C 
BRANCH  22  23
ATOM     23  C   UNL     1       6.600   5.399  16.054  0.00  0.00    +0.000 A 
ATOM     24  N   UNL     1       5.586   4.674  15.621  0.00  0.00    +0.000 NA
ATOM     25  C   UNL     1       5.900   4.337  14.329  0.00  0.00    +0.000 A 
ATOM     26  C   UNL     1       5.179   3.566  13.408  0.00  0.00    +0.000 A 
ATOM     27  C   UNL     1       5.730   3.346  12.140  0.00  0.00    +0.000 A 
ATOM     28  C   UNL     1       6.960   3.909  11.789  0.00  0.00    +0.000 A 
ATOM     29  C   UNL     1       7.685   4.699  12.689  0.00  0.00    +0.000 A 
ATOM     30  C   UNL     1       7.126   4.876  13.958  0.00  0.00    +0.000 A 
ATOM     31  N   UNL     1       7.557   5.540  15.077  0.00  0.00    +0.000 N 
ATOM     32  H   UNL     1       8.426   6.047  15.166  0.00  0.00    +0.000 HD
ENDBRANCH  22  23
ENDBRANCH  20  22
ENDBRANCH  19  20
ENDBRANCH  18  19
ENDBRANCH   4  18
TORSDOF 8
ENDMDL
MODEL 6
REMARK VINA RESULT:      -7.7      1.064      1.084
REMARK  Name = 
REMARK  8 active torsions:
REMARK  status: ('A' for Active; 'I' for Inactive)
REMARK    1  A    between atoms: C_2  and  C_12
REMARK    2  A    between atoms: N_3  and  C_4
REMARK    3  A    between atoms: C_4  and  C_5
REMARK    4  A    between atoms: N_15  and  C_16
REMARK    5  A    between atoms: C_16  and  C_17
REMARK    6  A    between atoms: C_17  and  N_18
REMARK    7  A    between atoms: N_18  and  C_19
REMARK    8  A    between atoms: C_19  and  C_20
REMARK                            x       y       z     vdW  Elec       q    Type
REMARK                         _______ _______ _______ _____ _____    ______ ____
ROOT
ATOM      1  C   UNL     1       6.452   6.164  17.763  0.00  0.00    +0.000 A 
ATOM      2  N   UNL     1       7.481   5.793  18.620  0.00  0.00    +0.000 NA
ATOM      3  C   UNL     1       8.223   6.874  18.696  0.00  0.00    +0.000 A 
ATOM      4  N   UNL     1       7.682   7.854  17.923  0.00  0.00    +0.000 N 
ATOM      5  N   UNL     1       6.570   7.427  17.304  0.00  0.00    +0.000 NA
ENDROOT
BRANCH   1   7
ATOM      6  O   UNL     1       4.524   5.489  16.510  0.00  0.00    +0.000 OA
ATOM      7  C   UNL     1       5.333   5.261  17.408  0.00  0.00    +0.000 C 
ATOM      8  N   UNL     1       5.250   4.120  18.184  0.00  0.00    +0.000 N 
ATOM      9  H   UNL     1       5.930   3.965  18.924  0.00  0.00    +0.000 HD
BRANCH   8  10
ATOM     10  C   UNL     1       4.180   3.161  18.001  0.00  0.00    +0.000 C 
BRANCH  10  11
ATOM     11  C   UNL     1       3.184   3.136  19.142  0.00  0.00    +0.000 A 
ATOM     12  N   UNL     1       3.586   2.565  20.316  0.00  0.00    +0.000 NA
ATOM     13  C   UNL     1       2.704   2.546  21.341  0.00  0.00    +0.000 A 
ATOM     14  C   UNL     1       1.423   3.067  21.266  0.00  0.00    +0.000 A 
ATOM     15  C   UNL     1       1.020   3.648  20.066  0.00  0.00    +0.000 A 
ATOM     16  C   UNL     1       1.906   3.686  18.988  0.00  0.00    +0.000 A 
ATOM     17 CL   UNL     1       1.375   4.416  17.520  0.00  0.00    +0.000 Cl
ENDBRANCH  10  11
ENDBRANCH   8  10
ENDBRANCH   1   7
BRANCH   4  18
ATOM     18  C   UNL     1       8.147   9.218  17.768  0.00  0.00    +0.000 C 
BRANCH  18  19
ATOM     19  C   UNL     1       9.092   9.631  18.900  0.00  0.00    +0.000 C 
BRANCH  19  20
ATOM     20  N   UNL     1       9.204  11.096  19.020  0.00  0.00    +0.000 NA
ATOM     21  H   UNL     1      10.197  11.351  19.040  0.00  0.00    +0.000 HD
BRANCH  20  22
ATOM     22  C   UNL     1       8.639  11.779  17.842  0.00  0.00    +0.000 C 
BRANCH  22  23
ATOM     23  C   UNL     1       8.845  13.260  17.905  0.00  0.00    +0.000 A 
ATOM     24  N   UNL     1       7.907  14.175  18.054  0.00  0.00    +0.000 NA
ATOM     25  C   UNL     1       8.567  15.376  18.104  0.00  0.00    +0.000 A 
ATOM     26  C   UNL     1       8.053  16.672  18.240  0.00  0.00    +0.000 A 
ATOM     27  C   UNL     1       8.946  17.750  18.244  0.00  0.00    +0.000 A 
ATOM     28  C   UNL     1      10.323  17.538  18.144  0.00  0.00    +0.000 A 
ATOM     29  C   UNL     1      10.857  16.248  18.027  0.00  0.00    +0.000 A 
ATOM     30  C   UNL     1       9.941  15.193  17.996  0.00  0.00    +0.000 A 
ATOM     31  N   UNL     1      10.093  13.837  17.859  0.00  0.00    +0.000 N 
ATOM     32  H   UNL     1      10.970  13.348  17.748  0.00  0.00    +0.000 HD
ENDBRANCH  22  23
ENDBRANCH  20  22
ENDBRANCH  19  20
ENDBRANCH  18  19
ENDBRANCH   4  18
TORSDOF 8
ENDMDL
MODEL 7
REMARK VINA RESULT:      -7.7      4.118      9.839
REMARK  Name = 
REMARK  8 active torsions:
REMARK  status: ('A' for Active; 'I' for Inactive)
REMARK    1  A    between atoms: C_2  and  C_12
REMARK    2  A    between atoms: N_3  and  C_4
REMARK    3  A    between atoms: C_4  and  C_5
REMARK    4  A    between atoms: N_15  and  C_16
REMARK    5  A    between atoms: C_16  and  C_17
REMARK    6  A    between atoms: C_17  and  N_18
REMARK    7  A    between atoms: N_18  and  C_19
REMARK    8  A    between atoms: C_19  and  C_20
REMARK                            x       y       z     vdW  Elec       q    Type
REMARK                         _______ _______ _______ _____ _____    ______ ____
ROOT
ATOM      1  C   UNL     1       8.253   8.841  18.249  0.00  0.00    +0.000 A 
ATOM      2  N   UNL     1       7.320   8.689  17.231  0.00  0.00    +0.000 NA
ATOM      3  C   UNL     1       7.009   7.414  17.287  0.00  0.00    +0.000 A 
ATOM      4  N   UNL     1       7.716   6.815  18.281  0.00  0.00    +0.000 N 
ATOM      5  N   UNL     1       8.528   7.690  18.896  0.00  0.00    +0.000 NA
ENDROOT
BRANCH   1   7
ATOM      6  O   UNL     1       8.779  11.152  17.895  0.00  0.00    +0.000 OA
ATOM      7  C   UNL     1       8.867  10.144  18.594  0.00  0.00    +0.000 C 
ATOM      8  N   UNL     1       9.576  10.147  19.782  0.00  0.00    +0.000 N 
ATOM      9  H   UNL     1       9.635   9.294  20.332  0.00  0.00    +0.000 HD
BRANCH   8  10
ATOM     10  C   UNL     1      10.281  11.327  20.234  0.00  0.00    +0.000 C 
BRANCH  10  11
ATOM     11  C   UNL     1       9.529  12.120  21.283  0.00  0.00    +0.000 A 
ATOM     12  N   UNL     1       8.582  11.460  22.014  0.00  0.00    +0.000 NA
ATOM     13  C   UNL     1       7.913  12.161  22.956  0.00  0.00    +0.000 A 
ATOM     14  C   UNL     1       8.129  13.503  23.218  0.00  0.00    +0.000 A 
ATOM     15  C   UNL     1       9.095  14.170  22.469  0.00  0.00    +0.000 A 
ATOM     16  C   UNL     1       9.806  13.477  21.489  0.00  0.00    +0.000 A 
ATOM     17 CL   UNL     1      10.997  14.334  20.584  0.00  0.00    +0.000 Cl
ENDBRANCH  10  11
ENDBRANCH   8  10
ENDBRANCH   1   7
BRANCH   4  18
ATOM     18  C   UNL     1       7.632   5.436  18.721  0.00  0.00    +0.000 C 
BRANCH  18  19
ATOM     19  C   UNL     1       6.433   4.712  18.103  0.00  0.00    +0.000 C 
BRANCH  19  20
ATOM     20  N   UNL     1       5.821   3.755  19.043  0.00  0.00    +0.000 NA
ATOM     21  H   UNL     1       5.933   4.113  19.997  0.00  0.00    +0.000 HD
BRANCH  20  22
ATOM     22  C   UNL     1       4.367   3.642  18.827  0.00  0.00    +0.000 C 
BRANCH  22  23
ATOM     23  C   UNL     1       3.694   4.979  18.860  0.00  0.00    +0.000 A 
ATOM     24  N   UNL     1       3.526   5.795  17.837  0.00  0.00    +0.000 NA
ATOM     25  C   UNL     1       2.821   6.864  18.330  0.00  0.00    +0.000 A 
ATOM     26  C   UNL     1       2.386   8.023  17.676  0.00  0.00    +0.000 A 
ATOM     27  C   UNL     1       1.693   8.990  18.416  0.00  0.00    +0.000 A 
ATOM     28  C   UNL     1       1.415   8.789  19.770  0.00  0.00    +0.000 A 
ATOM     29  C   UNL     1       1.825   7.627  20.436  0.00  0.00    +0.000 A 
ATOM     30  C   UNL     1       2.541   6.694  19.681  0.00  0.00    +0.000 A 
ATOM     31  N   UNL     1       3.116   5.490  19.998  0.00  0.00    +0.000 N 
ATOM     32  H   UNL     1       3.112   5.054  20.909  0.00  0.00    +0.000 HD
ENDBRANCH  22  23
ENDBRANCH  20  22
ENDBRANCH  19  20
ENDBRANCH  18  19
ENDBRANCH   4  18
TORSDOF 8
ENDMDL
MODEL 8
REMARK VINA RESULT:      -7.7      6.508      9.295
REMARK  Name = 
REMARK  8 active torsions:
REMARK  status: ('A' for Active; 'I' for Inactive)
REMARK    1  A    between atoms: C_2  and  C_12
REMARK    2  A    between atoms: N_3  and  C_4
REMARK    3  A    between atoms: C_4  and  C_5
REMARK    4  A    between atoms: N_15  and  C_16
REMARK    5  A    between atoms: C_16  and  C_17
REMARK    6  A    between atoms: C_17  and  N_18
REMARK    7  A    between atoms: N_18  and  C_19
REMARK    8  A    between atoms: C_19  and  C_20
REMARK                            x       y       z     vdW  Elec       q    Type
REMARK                         _______ _______ _______ _____ _____    ______ ____
ROOT
ATOM      1  C   UNL     1       2.045   5.640  18.630  0.00  0.00    +0.000 A 
ATOM      2  N   UNL     1       1.701   4.698  17.669  0.00  0.00    +0.000 NA
ATOM      3  C   UNL     1       1.293   3.670  18.378  0.00  0.00    +0.000 A 
ATOM      4  N   UNL     1       1.386   3.964  19.702  0.00  0.00    +0.000 N 
ATOM      5  N   UNL     1       1.878   5.198  19.894  0.00  0.00    +0.000 NA
ENDROOT
BRANCH   1   7
ATOM      6  O   UNL     1       3.651   7.237  17.846  0.00  0.00    +0.000 OA
ATOM      7  C   UNL     1       2.530   6.998  18.292  0.00  0.00    +0.000 C 
ATOM      8  N   UNL     1       1.615   8.008  18.528  0.00  0.00    +0.000 N 
ATOM      9  H   UNL     1       0.699   7.777  18.905  0.00  0.00    +0.000 HD
BRANCH   8  10
ATOM     10  C   UNL     1       1.952   9.397  18.301  0.00  0.00    +0.000 C 
BRANCH  10  11
ATOM     11  C   UNL     1       1.107  10.367  19.103  0.00  0.00    +0.000 A 
ATOM     12  N   UNL     1       0.646  11.481  18.460  0.00  0.00    +0.000 NA
ATOM     13  C   UNL     1      -0.114  12.346  19.169  0.00  0.00    +0.000 A 
ATOM     14  C   UNL     1      -0.447  12.168  20.501  0.00  0.00    +0.000 A 
ATOM     15  C   UNL     1       0.027  11.031  21.150  0.00  0.00    +0.000 A 
ATOM     16  C   UNL     1       0.813  10.116  20.449  0.00  0.00    +0.000 A 
ATOM     17 CL   UNL     1       1.378   8.717  21.282  0.00  0.00    +0.000 Cl
ENDBRANCH  10  11
ENDBRANCH   8  10
ENDBRANCH   1   7
BRANCH   4  18
ATOM     18  C   UNL     1       0.985   3.137  20.824  0.00  0.00    +0.000 C 
BRANCH  18  19
ATOM     19  C   UNL     1       2.114   2.208  21.279  0.00  0.00    +0.000 C 
BRANCH  19  20
ATOM     20  N   UNL     1       3.434   2.861  21.195  0.00  0.00    +0.000 NA
ATOM     21  H   UNL     1       3.901   2.778  22.104  0.00  0.00    +0.000 HD
BRANCH  20  22
ATOM     22  C   UNL     1       4.313   2.177  20.230  0.00  0.00    +0.000 C 
BRANCH  22  23
ATOM     23  C   UNL     1       4.854   3.122  19.203  0.00  0.00    +0.000 A 
ATOM     24  N   UNL     1       5.752   4.067  19.406  0.00  0.00    +0.000 NA
ATOM     25  C   UNL     1       5.970   4.638  18.178  0.00  0.00    +0.000 A 
ATOM     26  C   UNL     1       6.818   5.694  17.823  0.00  0.00    +0.000 A 
ATOM     27  C   UNL     1       6.847   6.112  16.487  0.00  0.00    +0.000 A 
ATOM     28  C   UNL     1       6.068   5.469  15.521  0.00  0.00    +0.000 A 
ATOM     29  C   UNL     1       5.229   4.398  15.853  0.00  0.00    +0.000 A 
ATOM     30  C   UNL     1       5.198   4.023  17.199  0.00  0.00    +0.000 A 
ATOM     31  N   UNL     1       4.487   3.067  17.879  0.00  0.00    +0.000 N 
ATOM     32  H   UNL     1       3.814   2.431  17.475  0.00  0.00    +0.000 HD
ENDBRANCH  22  23
ENDBRANCH  20  22
ENDBRANCH  19  20
ENDBRANCH  18  19
ENDBRANCH   4  18
TORSDOF 8
ENDMDL
MODEL 9
REMARK VINA RESULT:      -7.6      7.739     10.203
REMARK  Name = 
REMARK  8 active torsions:
REMARK  status: ('A' for Active; 'I' for Inactive)
REMARK    1  A    between atoms: C_2  and  C_12
REMARK    2  A    between atoms: N_3  and  C_4
REMARK    3  A    between atoms: C_4  and  C_5
REMARK    4  A    between atoms: N_15  and  C_16
REMARK    5  A    between atoms: C_16  and  C_17
REMARK    6  A    between atoms: C_17  and  N_18
REMARK    7  A    between atoms: N_18  and  C_19
REMARK    8  A    between atoms: C_19  and  C_20
REMARK                            x       y       z     vdW  Elec       q    Type
REMARK                         _______ _______ _______ _____ _____    ______ ____
ROOT
ATOM      1  C   UNL     1       0.654   9.234  21.205  0.00  0.00    +0.000 A 
ATOM      2  N   UNL     1       0.068   8.569  22.274  0.00  0.00    +0.000 NA
ATOM      3  C   UNL     1      -0.534   9.528  22.941  0.00  0.00    +0.000 A 
ATOM      4  N   UNL     1      -0.325  10.717  22.316  0.00  0.00    +0.000 N 
ATOM      5  N   UNL     1       0.440  10.566  21.224  0.00  0.00    +0.000 NA
ENDROOT
BRANCH   1   7
ATOM      6  O   UNL     1       1.554   8.970  18.999  0.00  0.00    +0.000 OA
ATOM      7  C   UNL     1       1.419   8.540  20.143  0.00  0.00    +0.000 C 
ATOM      8  N   UNL     1       1.978   7.337  20.535  0.00  0.00    +0.000 N 
ATOM      9  H   UNL     1       1.842   7.007  21.487  0.00  0.00    +0.000 HD
BRANCH   8  10
ATOM     10  C   UNL     1       2.712   6.509  19.601  0.00  0.00    +0.000 C 
BRANCH  10  11
ATOM     11  C   UNL     1       2.325   5.045  19.653  0.00  0.00    +0.000 A 
ATOM     12  N   UNL     1       1.595   4.624  20.728  0.00  0.00    +0.000 NA
ATOM     13  C   UNL     1       1.241   3.320  20.777  0.00  0.00    +0.000 A 
ATOM     14  C   UNL     1       1.578   2.392  19.805  0.00  0.00    +0.000 A 
ATOM     15  C   UNL     1       2.323   2.828  18.713  0.00  0.00    +0.000 A 
ATOM     16  C   UNL     1       2.704   4.168  18.629  0.00  0.00    +0.000 A 
ATOM     17 CL   UNL     1       3.622   4.673  17.261  0.00  0.00    +0.000 Cl
ENDBRANCH  10  11
ENDBRANCH   8  10
ENDBRANCH   1   7
BRANCH   4  18
ATOM     18  C   UNL     1      -0.859  12.015  22.682  0.00  0.00    +0.000 C 
BRANCH  18  19
ATOM     19  C   UNL     1      -2.365  11.957  22.950  0.00  0.00    +0.000 C 
BRANCH  19  20
ATOM     20  N   UNL     1      -3.134  12.715  21.946  0.00  0.00    +0.000 NA
ATOM     21  H   UNL     1      -3.509  13.561  22.387  0.00  0.00    +0.000 HD
BRANCH  20  22
ATOM     22  C   UNL     1      -2.271  13.185  20.847  0.00  0.00    +0.000 C 
BRANCH  22  23
ATOM     23  C   UNL     1      -2.496  12.404  19.590  0.00  0.00    +0.000 A 
ATOM     24  N   UNL     1      -1.681  11.507  19.070  0.00  0.00    +0.000 NA
ATOM     25  C   UNL     1      -2.323  11.026  17.957  0.00  0.00    +0.000 A 
ATOM     26  C   UNL     1      -1.901  10.065  17.029  0.00  0.00    +0.000 A 
ATOM     27  C   UNL     1      -2.742   9.759  15.953  0.00  0.00    +0.000 A 
ATOM     28  C   UNL     1      -3.988  10.376  15.821  0.00  0.00    +0.000 A 
ATOM     29  C   UNL     1      -4.435  11.325  16.750  0.00  0.00    +0.000 A 
ATOM     30  C   UNL     1      -3.563  11.633  17.797  0.00  0.00    +0.000 A 
ATOM     31  N   UNL     1      -3.646  12.515  18.844  0.00  0.00    +0.000 N 
ATOM     32  H   UNL     1      -4.421  13.135  19.035  0.00  0.00    +0.000 HD
ENDBRANCH  22  23
ENDBRANCH  20  22
ENDBRANCH  19  20
ENDBRANCH  18  19
ENDBRANCH   4  18
TORSDOF 8
ENDMDL
