MODEL 1
REMARK VINA RESULT:      -7.8      0.000      0.000
REMARK  Name = 
REMARK  8 active torsions:
REMARK  status: ('A' for Active; 'I' for Inactive)
REMARK    1  A    between atoms: C_1  and  C_2
REMARK    2  A    between atoms: C_2  and  C_3
REMARK    3  A    between atoms: C_2  and  C_4
REMARK    4  A    between atoms: C_7  and  C_8
REMARK    5  A    between atoms: C_8  and  N_9
REMARK    6  A    between atoms: N_12  and  C_13
REMARK    7  A    between atoms: C_16  and  N_17
REMARK    8  A    between atoms: C_26  and  O_27
REMARK                            x       y       z     vdW  Elec       q    Type
REMARK                         _______ _______ _______ _____ _____    ______ ____
ROOT
ATOM      1  N   UNL     1       2.431   4.156  18.876  0.00  0.00    +0.000 NA
ATOM      2  C   UNL     1       1.551   4.412  20.028  0.00  0.00    +0.000 C 
ATOM      3  C   UNL     1       1.764   5.754  20.766  0.00  0.00    +0.000 C 
ATOM      4  N   UNL     1       1.738   6.920  19.856  0.00  0.00    +0.000 N 
ATOM      5  C   UNL     1       2.478   6.751  18.587  0.00  0.00    +0.000 C 
ATOM      6  C   UNL     1       2.358   5.326  17.979  0.00  0.00    +0.000 C 
ENDROOT
BRANCH   4   7
ATOM      7  C   UNL     1       1.462   8.199  20.357  0.00  0.00    +0.000 A 
ATOM      8  C   UNL     1       1.361   8.456  21.740  0.00  0.00    +0.000 A 
ATOM      9  C   UNL     1       0.880   9.669  22.258  0.00  0.00    +0.000 A 
ATOM     10  C   UNL     1       0.505  10.687  21.386  0.00  0.00    +0.000 A 
ATOM     11  C   UNL     1       0.689  10.522  20.015  0.00  0.00    +0.000 A 
ATOM     12  C   UNL     1       1.168   9.295  19.520  0.00  0.00    +0.000 A 
BRANCH  10  13
ATOM     13  N   UNL     1      -0.116  11.909  21.909  0.00  0.00    +0.000 N 
ATOM     14  O   UNL     1      -0.058  12.932  21.209  0.00  0.00    +0.000 OA
ATOM     15  O   UNL     1      -0.646  11.854  23.028  0.00  0.00    +0.000 OA
ENDBRANCH  10  13
ENDBRANCH   4   7
BRANCH   1  16
ATOM     16  C   UNL     1       3.798   3.803  19.288  0.00  0.00    +0.000 C 
BRANCH  16  20
ATOM     17  C   UNL     1       6.268   4.537  15.374  0.00  0.00    +0.000 A 
ATOM     18  C   UNL     1       5.325   3.671  15.759  0.00  0.00    +0.000 A 
ATOM     19  C   UNL     1       4.773   3.392  17.055  0.00  0.00    +0.000 A 
ATOM     20  C   UNL     1       4.871   4.058  18.218  0.00  0.00    +0.000 A 
ATOM     21  C   UNL     1       5.875   5.110  18.541  0.00  0.00    +0.000 A 
ATOM     22  O   UNL     1       5.900   5.635  19.657  0.00  0.00    +0.000 OA
ATOM     23  C   UNL     1       6.982   5.509  17.606  0.00  0.00    +0.000 A 
ATOM     24  C   UNL     1       7.119   5.271  16.292  0.00  0.00    +0.000 A 
BRANCH  17  26
ATOM     25  C   UNL     1       7.856   5.298  13.516  0.00  0.00    +0.000 C 
ATOM     26  C   UNL     1       6.458   4.768  13.861  0.00  0.00    +0.000 C 
ATOM     27  C   UNL     1       6.083   3.575  12.978  0.00  0.00    +0.000 C 
ENDBRANCH  17  26
BRANCH  23  28
ATOM     28  O   UNL     1       8.010   6.244  18.219  0.00  0.00    +0.000 OA
ATOM     29  H   UNL     1       7.555   6.780  18.905  0.00  0.00    +0.000 HD
ENDBRANCH  23  28
ENDBRANCH  16  20
ENDBRANCH   1  16
TORSDOF 6
ENDMDL
MODEL 2
REMARK VINA RESULT:      -7.8      1.346      1.718
REMARK  Name = 
REMARK  8 active torsions:
REMARK  status: ('A' for Active; 'I' for Inactive)
REMARK    1  A    between atoms: C_1  and  C_2
REMARK    2  A    between atoms: C_2  and  C_3
REMARK    3  A    between atoms: C_2  and  C_4
REMARK    4  A    between atoms: C_7  and  C_8
REMARK    5  A    between atoms: C_8  and  N_9
REMARK    6  A    between atoms: N_12  and  C_13
REMARK    7  A    between atoms: C_16  and  N_17
REMARK    8  A    between atoms: C_26  and  O_27
REMARK                            x       y       z     vdW  Elec       q    Type
REMARK                         _______ _______ _______ _____ _____    ______ ____
ROOT
ATOM      1  N   UNL     1       2.624   5.946  18.709  0.00  0.00    +0.000 NA
ATOM      2  C   UNL     1       1.804   5.733  19.912  0.00  0.00    +0.000 C 
ATOM      3  C   UNL     1       1.692   6.932  20.884  0.00  0.00    +0.000 C 
ATOM      4  N   UNL     1       1.266   8.178  20.209  0.00  0.00    +0.000 N 
ATOM      5  C   UNL     1       1.919   8.451  18.912  0.00  0.00    +0.000 C 
ATOM      6  C   UNL     1       2.153   7.180  18.050  0.00  0.00    +0.000 C 
ENDROOT
BRANCH   4   7
ATOM      7  C   UNL     1       0.685   9.216  20.950  0.00  0.00    +0.000 A 
ATOM      8  C   UNL     1       0.503   9.129  22.345  0.00  0.00    +0.000 A 
ATOM      9  C   UNL     1      -0.263  10.053  23.074  0.00  0.00    +0.000 A 
ATOM     10  C   UNL     1      -0.855  11.127  22.414  0.00  0.00    +0.000 A 
ATOM     11  C   UNL     1      -0.615  11.316  21.054  0.00  0.00    +0.000 A 
ATOM     12  C   UNL     1       0.151  10.372  20.345  0.00  0.00    +0.000 A 
BRANCH  10  13
ATOM     13  N   UNL     1      -1.758  12.026  23.139  0.00  0.00    +0.000 N 
ATOM     14  O   UNL     1      -2.959  11.719  23.195  0.00  0.00    +0.000 OA
ATOM     15  O   UNL     1      -1.273  13.052  23.640  0.00  0.00    +0.000 OA
ENDBRANCH  10  13
ENDBRANCH   4   7
BRANCH   1  16
ATOM     16  C   UNL     1       4.064   5.939  19.007  0.00  0.00    +0.000 C 
BRANCH  16  20
ATOM     17  C   UNL     1       6.108   4.118  15.205  0.00  0.00    +0.000 A 
ATOM     18  C   UNL     1       4.849   4.319  15.608  0.00  0.00    +0.000 A 
ATOM     19  C   UNL     1       4.317   4.697  16.887  0.00  0.00    +0.000 A 
ATOM     20  C   UNL     1       4.922   5.174  17.988  0.00  0.00    +0.000 A 
ATOM     21  C   UNL     1       6.383   5.122  18.275  0.00  0.00    +0.000 A 
ATOM     22  O   UNL     1       6.831   5.560  19.338  0.00  0.00    +0.000 OA
ATOM     23  C   UNL     1       7.376   4.438  17.379  0.00  0.00    +0.000 A 
ATOM     24  C   UNL     1       7.245   4.041  16.103  0.00  0.00    +0.000 A 
BRANCH  17  26
ATOM     25  C   UNL     1       5.062   3.886  12.880  0.00  0.00    +0.000 C 
ATOM     26  C   UNL     1       6.362   3.961  13.692  0.00  0.00    +0.000 C 
ATOM     27  C   UNL     1       7.331   4.984  13.094  0.00  0.00    +0.000 C 
ENDBRANCH  17  26
BRANCH  23  28
ATOM     28  O   UNL     1       8.620   4.194  17.985  0.00  0.00    +0.000 OA
ATOM     29  H   UNL     1       8.409   3.634  18.764  0.00  0.00    +0.000 HD
ENDBRANCH  23  28
ENDBRANCH  16  20
ENDBRANCH   1  16
TORSDOF 6
ENDMDL
MODEL 3
REMARK VINA RESULT:      -7.5      1.000      1.263
REMARK  Name = 
REMARK  8 active torsions:
REMARK  status: ('A' for Active; 'I' for Inactive)
REMARK    1  A    between atoms: C_1  and  C_2
REMARK    2  A    between atoms: C_2  and  C_3
REMARK    3  A    between atoms: C_2  and  C_4
REMARK    4  A    between atoms: C_7  and  C_8
REMARK    5  A    between atoms: C_8  and  N_9
REMARK    6  A    between atoms: N_12  and  C_13
REMARK    7  A    between atoms: C_16  and  N_17
REMARK    8  A    between atoms: C_26  and  O_27
REMARK                            x       y       z     vdW  Elec       q    Type
REMARK                         _______ _______ _______ _____ _____    ______ ____
ROOT
ATOM      1  N   UNL     1       2.753   4.997  18.534  0.00  0.00    +0.000 NA
ATOM      2  C   UNL     1       1.875   4.987  19.715  0.00  0.00    +0.000 C 
ATOM      3  C   UNL     1       1.907   6.255  20.601  0.00  0.00    +0.000 C 
ATOM      4  N   UNL     1       1.684   7.498  19.830  0.00  0.00    +0.000 N 
ATOM      5  C   UNL     1       2.408   7.585  18.545  0.00  0.00    +0.000 C 
ATOM      6  C   UNL     1       2.484   6.236  17.778  0.00  0.00    +0.000 C 
ENDROOT
BRANCH   4   7
ATOM      7  C   UNL     1       1.235   8.657  20.478  0.00  0.00    +0.000 A 
ATOM      8  C   UNL     1       0.919   8.673  21.852  0.00  0.00    +0.000 A 
ATOM      9  C   UNL     1       0.270   9.751  22.474  0.00  0.00    +0.000 A 
ATOM     10  C   UNL     1      -0.060  10.878  21.726  0.00  0.00    +0.000 A 
ATOM     11  C   UNL     1       0.328  10.955  20.389  0.00  0.00    +0.000 A 
ATOM     12  C   UNL     1       0.973   9.858  19.787  0.00  0.00    +0.000 A 
BRANCH  10  13
ATOM     13  N   UNL     1      -0.848  11.956  22.332  0.00  0.00    +0.000 N 
ATOM     14  O   UNL     1      -0.257  12.759  23.070  0.00  0.00    +0.000 OA
ATOM     15  O   UNL     1      -2.062  11.993  22.087  0.00  0.00    +0.000 OA
ENDBRANCH  10  13
ENDBRANCH   4   7
BRANCH   1  16
ATOM     16  C   UNL     1       4.168   4.809  18.890  0.00  0.00    +0.000 C 
BRANCH  16  20
ATOM     17  C   UNL     1       6.224   4.074  14.744  0.00  0.00    +0.000 A 
ATOM     18  C   UNL     1       5.430   3.366  15.555  0.00  0.00    +0.000 A 
ATOM     19  C   UNL     1       5.016   3.600  16.910  0.00  0.00    +0.000 A 
ATOM     20  C   UNL     1       5.117   4.692  17.688  0.00  0.00    +0.000 A 
ATOM     21  C   UNL     1       6.001   5.864  17.438  0.00  0.00    +0.000 A 
ATOM     22  O   UNL     1       6.042   6.802  18.238  0.00  0.00    +0.000 OA
ATOM     23  C   UNL     1       6.974   5.935  16.296  0.00  0.00    +0.000 A 
ATOM     24  C   UNL     1       7.042   5.190  15.181  0.00  0.00    +0.000 A 
BRANCH  17  26
ATOM     25  C   UNL     1       4.876   3.634  12.613  0.00  0.00    +0.000 C 
ATOM     26  C   UNL     1       6.269   3.676  13.255  0.00  0.00    +0.000 C 
ATOM     27  C   UNL     1       7.247   4.489  12.403  0.00  0.00    +0.000 C 
ENDBRANCH  17  26
BRANCH  23  28
ATOM     28  O   UNL     1       7.945   6.941  16.435  0.00  0.00    +0.000 OA
ATOM     29  H   UNL     1       8.213   6.897  17.379  0.00  0.00    +0.000 HD
ENDBRANCH  23  28
ENDBRANCH  16  20
ENDBRANCH   1  16
TORSDOF 6
ENDMDL
MODEL 4
REMARK VINA RESULT:      -7.3      1.293      1.726
REMARK  Name = 
REMARK  8 active torsions:
REMARK  status: ('A' for Active; 'I' for Inactive)
REMARK    1  A    between atoms: C_1  and  C_2
REMARK    2  A    between atoms: C_2  and  C_3
REMARK    3  A    between atoms: C_2  and  C_4
REMARK    4  A    between atoms: C_7  and  C_8
REMARK    5  A    between atoms: C_8  and  N_9
REMARK    6  A    between atoms: N_12  and  C_13
REMARK    7  A    between atoms: C_16  and  N_17
REMARK    8  A    between atoms: C_26  and  O_27
REMARK                            x       y       z     vdW  Elec       q    Type
REMARK                         _______ _______ _______ _____ _____    ______ ____
ROOT
ATOM      1  N   UNL     1       2.581   5.646  19.099  0.00  0.00    +0.000 NA
ATOM      2  C   UNL     1       1.784   5.942  20.300  0.00  0.00    +0.000 C 
ATOM      3  C   UNL     1       1.807   7.409  20.791  0.00  0.00    +0.000 C 
ATOM      4  N   UNL     1       1.471   8.376  19.723  0.00  0.00    +0.000 N 
ATOM      5  C   UNL     1       2.104   8.119  18.412  0.00  0.00    +0.000 C 
ATOM      6  C   UNL     1       2.200   6.611  18.050  0.00  0.00    +0.000 C 
ENDROOT
BRANCH   4   7
ATOM      7  C   UNL     1       1.005   9.656  20.053  0.00  0.00    +0.000 A 
ATOM      8  C   UNL     1       1.154  10.755  19.182  0.00  0.00    +0.000 A 
ATOM      9  C   UNL     1       0.893  12.079  19.572  0.00  0.00    +0.000 A 
ATOM     10  C   UNL     1       0.439  12.338  20.862  0.00  0.00    +0.000 A 
ATOM     11  C   UNL     1       0.172  11.276  21.724  0.00  0.00    +0.000 A 
ATOM     12  C   UNL     1       0.448   9.959  21.313  0.00  0.00    +0.000 A 
BRANCH  10  13
ATOM     13  N   UNL     1       0.282  13.722  21.320  0.00  0.00    +0.000 N 
ATOM     14  O   UNL     1      -0.630  14.398  20.819  0.00  0.00    +0.000 OA
ATOM     15  O   UNL     1       1.082  14.144  22.168  0.00  0.00    +0.000 OA
ENDBRANCH  10  13
ENDBRANCH   4   7
BRANCH   1  16
ATOM     16  C   UNL     1       4.024   5.611  19.383  0.00  0.00    +0.000 C 
BRANCH  16  20
ATOM     17  C   UNL     1       6.079   4.578  15.301  0.00  0.00    +0.000 A 
ATOM     18  C   UNL     1       4.819   4.693  15.733  0.00  0.00    +0.000 A 
ATOM     19  C   UNL     1       4.284   4.811  17.060  0.00  0.00    +0.000 A 
ATOM     20  C   UNL     1       4.886   5.063  18.235  0.00  0.00    +0.000 A 
ATOM     21  C   UNL     1       6.346   4.958  18.509  0.00  0.00    +0.000 A 
ATOM     22  O   UNL     1       6.792   5.180  19.638  0.00  0.00    +0.000 OA
ATOM     23  C   UNL     1       7.343   4.467  17.498  0.00  0.00    +0.000 A 
ATOM     24  C   UNL     1       7.215   4.328  16.168  0.00  0.00    +0.000 A 
BRANCH  17  26
ATOM     25  C   UNL     1       7.776   5.149  13.471  0.00  0.00    +0.000 C 
ATOM     26  C   UNL     1       6.336   4.722  13.787  0.00  0.00    +0.000 C 
ATOM     27  C   UNL     1       5.920   3.512  12.948  0.00  0.00    +0.000 C 
ENDBRANCH  17  26
BRANCH  23  28
ATOM     28  O   UNL     1       8.586   4.111  18.047  0.00  0.00    +0.000 OA
ATOM     29  H   UNL     1       9.093   3.743  17.290  0.00  0.00    +0.000 HD
ENDBRANCH  23  28
ENDBRANCH  16  20
ENDBRANCH   1  16
TORSDOF 6
ENDMDL
MODEL 5
REMARK VINA RESULT:      -7.3      0.548      1.178
REMARK  Name = 
REMARK  8 active torsions:
REMARK  status: ('A' for Active; 'I' for Inactive)
REMARK    1  A    between atoms: C_1  and  C_2
REMARK    2  A    between atoms: C_2  and  C_3
REMARK    3  A    between atoms: C_2  and  C_4
REMARK    4  A    between atoms: C_7  and  C_8
REMARK    5  A    between atoms: C_8  and  N_9
REMARK    6  A    between atoms: N_12  and  C_13
REMARK    7  A    between atoms: C_16  and  N_17
REMARK    8  A    between atoms: C_26  and  O_27
REMARK                            x       y       z     vdW  Elec       q    Type
REMARK                         _______ _______ _______ _____ _____    ______ ____
ROOT
ATOM      1  N   UNL     1       2.613   3.972  19.005  0.00  0.00    +0.000 NA
ATOM      2  C   UNL     1       1.748   4.273  20.157  0.00  0.00    +0.000 C 
ATOM      3  C   UNL     1       1.871   5.696  20.750  0.00  0.00    +0.000 C 
ATOM      4  N   UNL     1       1.721   6.757  19.730  0.00  0.00    +0.000 N 
ATOM      5  C   UNL     1       2.436   6.519  18.458  0.00  0.00    +0.000 C 
ATOM      6  C   UNL     1       2.417   5.035  17.999  0.00  0.00    +0.000 C 
ENDROOT
BRANCH   4   7
ATOM      7  C   UNL     1       1.355   8.054  20.112  0.00  0.00    +0.000 A 
ATOM      8  C   UNL     1       1.291   9.117  19.187  0.00  0.00    +0.000 A 
ATOM      9  C   UNL     1       1.138  10.458  19.575  0.00  0.00    +0.000 A 
ATOM     10  C   UNL     1       1.012  10.772  20.925  0.00  0.00    +0.000 A 
ATOM     11  C   UNL     1       0.959   9.748  21.869  0.00  0.00    +0.000 A 
ATOM     12  C   UNL     1       1.121   8.412  21.455  0.00  0.00    +0.000 A 
BRANCH  10  13
ATOM     13  N   UNL     1       0.977  12.175  21.352  0.00  0.00    +0.000 N 
ATOM     14  O   UNL     1       0.002  12.552  22.019  0.00  0.00    +0.000 OA
ATOM     15  O   UNL     1       1.914  12.908  21.005  0.00  0.00    +0.000 OA
ENDBRANCH  10  13
ENDBRANCH   4   7
BRANCH   1  16
ATOM     16  C   UNL     1       4.016   3.772  19.398  0.00  0.00    +0.000 C 
BRANCH  16  20
ATOM     17  C   UNL     1       6.311   4.569  15.392  0.00  0.00    +0.000 A 
ATOM     18  C   UNL     1       5.436   3.655  15.825  0.00  0.00    +0.000 A 
ATOM     19  C   UNL     1       4.943   3.372  17.144  0.00  0.00    +0.000 A 
ATOM     20  C   UNL     1       5.037   4.069  18.290  0.00  0.00    +0.000 A 
ATOM     21  C   UNL     1       5.983   5.187  18.557  0.00  0.00    +0.000 A 
ATOM     22  O   UNL     1       6.010   5.738  19.661  0.00  0.00    +0.000 OA
ATOM     23  C   UNL     1       7.033   5.633  17.579  0.00  0.00    +0.000 A 
ATOM     24  C   UNL     1       7.144   5.374  16.266  0.00  0.00    +0.000 A 
BRANCH  17  26
ATOM     25  C   UNL     1       7.823   5.294  13.457  0.00  0.00    +0.000 C 
ATOM     26  C   UNL     1       6.438   4.777  13.869  0.00  0.00    +0.000 C 
ATOM     27  C   UNL     1       6.020   3.574  13.020  0.00  0.00    +0.000 C 
ENDBRANCH  17  26
BRANCH  23  28
ATOM     28  O   UNL     1       8.033   6.443  18.143  0.00  0.00    +0.000 OA
ATOM     29  H   UNL     1       7.586   7.300  18.319  0.00  0.00    +0.000 HD
ENDBRANCH  23  28
ENDBRANCH  16  20
ENDBRANCH   1  16
TORSDOF 6
ENDMDL
MODEL 6
REMARK VINA RESULT:      -7.2      3.656      4.869
REMARK  Name = 
REMARK  8 active torsions:
REMARK  status: ('A' for Active; 'I' for Inactive)
REMARK    1  A    between atoms: C_1  and  C_2
REMARK    2  A    between atoms: C_2  and  C_3
REMARK    3  A    between atoms: C_2  and  C_4
REMARK    4  A    between atoms: C_7  and  C_8
REMARK    5  A    between atoms: C_8  and  N_9
REMARK    6  A    between atoms: N_12  and  C_13
REMARK    7  A    between atoms: C_16  and  N_17
REMARK    8  A    between atoms: C_26  and  O_27
REMARK                            x       y       z     vdW  Elec       q    Type
REMARK                         _______ _______ _______ _____ _____    ______ ____
ROOT
ATOM      1  N   UNL     1       2.006   8.877  19.178  0.00  0.00    +0.000 NA
ATOM      2  C   UNL     1       1.574   9.388  17.867  0.00  0.00    +0.000 C 
ATOM      3  C   UNL     1       0.047   9.462  17.632  0.00  0.00    +0.000 C 
ATOM      4  N   UNL     1      -0.663  10.192  18.705  0.00  0.00    +0.000 N 
ATOM      5  C   UNL     1      -0.232   9.872  20.082  0.00  0.00    +0.000 C 
ATOM      6  C   UNL     1       1.299   9.646  20.222  0.00  0.00    +0.000 C 
ENDROOT
BRANCH   4   7
ATOM      7  C   UNL     1      -1.927  10.747  18.462  0.00  0.00    +0.000 A 
ATOM      8  C   UNL     1      -2.452  11.789  19.254  0.00  0.00    +0.000 A 
ATOM      9  C   UNL     1      -3.788  12.213  19.169  0.00  0.00    +0.000 A 
ATOM     10  C   UNL     1      -4.642  11.611  18.250  0.00  0.00    +0.000 A 
ATOM     11  C   UNL     1      -4.143  10.652  17.371  0.00  0.00    +0.000 A 
ATOM     12  C   UNL     1      -2.802  10.240  17.480  0.00  0.00    +0.000 A 
BRANCH  10  13
ATOM     13  N   UNL     1      -6.068  11.957  18.238  0.00  0.00    +0.000 N 
ATOM     14  O   UNL     1      -6.372  13.159  18.275  0.00  0.00    +0.000 OA
ATOM     15  O   UNL     1      -6.888  11.027  18.210  0.00  0.00    +0.000 OA
ENDBRANCH  10  13
ENDBRANCH   4   7
BRANCH   1  16
ATOM     16  C   UNL     1       1.838   7.420  19.292  0.00  0.00    +0.000 C 
BRANCH  16  20
ATOM     17  C   UNL     1       5.278   5.518  16.742  0.00  0.00    +0.000 A 
ATOM     18  C   UNL     1       4.880   6.761  17.031  0.00  0.00    +0.000 A 
ATOM     19  C   UNL     1       3.682   7.247  17.657  0.00  0.00    +0.000 A 
ATOM     20  C   UNL     1       2.716   6.601  18.334  0.00  0.00    +0.000 A 
ATOM     21  C   UNL     1       2.475   5.132  18.322  0.00  0.00    +0.000 A 
ATOM     22  O   UNL     1       1.533   4.644  18.955  0.00  0.00    +0.000 OA
ATOM     23  C   UNL     1       3.253   4.173  17.467  0.00  0.00    +0.000 A 
ATOM     24  C   UNL     1       4.421   4.350  16.829  0.00  0.00    +0.000 A 
BRANCH  17  26
ATOM     25  C   UNL     1       7.579   4.558  17.325  0.00  0.00    +0.000 C 
ATOM     26  C   UNL     1       6.739   5.318  16.289  0.00  0.00    +0.000 C 
ATOM     27  C   UNL     1       6.901   4.713  14.893  0.00  0.00    +0.000 C 
ENDBRANCH  17  26
BRANCH  23  28
ATOM     28  O   UNL     1       2.653   2.910  17.332  0.00  0.00    +0.000 OA
ATOM     29  H   UNL     1       3.273   2.294  17.779  0.00  0.00    +0.000 HD
ENDBRANCH  23  28
ENDBRANCH  16  20
ENDBRANCH   1  16
TORSDOF 6
ENDMDL
MODEL 7
REMARK VINA RESULT:      -7.2      3.459      5.077
REMARK  Name = 
REMARK  8 active torsions:
REMARK  status: ('A' for Active; 'I' for Inactive)
REMARK    1  A    between atoms: C_1  and  C_2
REMARK    2  A    between atoms: C_2  and  C_3
REMARK    3  A    between atoms: C_2  and  C_4
REMARK    4  A    between atoms: C_7  and  C_8
REMARK    5  A    between atoms: C_8  and  N_9
REMARK    6  A    between atoms: N_12  and  C_13
REMARK    7  A    between atoms: C_16  and  N_17
REMARK    8  A    between atoms: C_26  and  O_27
REMARK                            x       y       z     vdW  Elec       q    Type
REMARK                         _______ _______ _______ _____ _____    ______ ____
ROOT
ATOM      1  N   UNL     1       0.887   8.723  19.271  0.00  0.00    +0.000 NA
ATOM      2  C   UNL     1       0.308   9.740  20.164  0.00  0.00    +0.000 C 
ATOM      3  C   UNL     1       1.118  11.047  20.327  0.00  0.00    +0.000 C 
ATOM      4  N   UNL     1       1.469  11.670  19.032  0.00  0.00    +0.000 N 
ATOM      5  C   UNL     1       1.944  10.737  17.988  0.00  0.00    +0.000 C 
ATOM      6  C   UNL     1       1.199   9.373  17.983  0.00  0.00    +0.000 C 
ENDROOT
BRANCH   4   7
ATOM      7  C   UNL     1       1.784  13.034  18.968  0.00  0.00    +0.000 A 
ATOM      8  C   UNL     1       0.953  14.022  19.535  0.00  0.00    +0.000 A 
ATOM      9  C   UNL     1       1.132  15.395  19.303  0.00  0.00    +0.000 A 
ATOM     10  C   UNL     1       2.187  15.824  18.503  0.00  0.00    +0.000 A 
ATOM     11  C   UNL     1       3.100  14.894  18.009  0.00  0.00    +0.000 A 
ATOM     12  C   UNL     1       2.895  13.523  18.251  0.00  0.00    +0.000 A 
BRANCH  10  13
ATOM     13  N   UNL     1       2.311  17.243  18.151  0.00  0.00    +0.000 N 
ATOM     14  O   UNL     1       2.037  18.081  19.024  0.00  0.00    +0.000 OA
ATOM     15  O   UNL     1       2.664  17.523  16.996  0.00  0.00    +0.000 OA
ENDBRANCH  10  13
ENDBRANCH   4   7
BRANCH   1  16
ATOM     16  C   UNL     1       2.031   8.030  19.883  0.00  0.00    +0.000 C 
BRANCH  16  20
ATOM     17  C   UNL     1       4.446   4.912  17.354  0.00  0.00    +0.000 A 
ATOM     18  C   UNL     1       4.191   6.222  17.265  0.00  0.00    +0.000 A 
ATOM     19  C   UNL     1       3.264   7.054  17.979  0.00  0.00    +0.000 A 
ATOM     20  C   UNL     1       2.542   6.820  19.088  0.00  0.00    +0.000 A 
ATOM     21  C   UNL     1       2.270   5.484  19.688  0.00  0.00    +0.000 A 
ATOM     22  O   UNL     1       1.561   5.378  20.693  0.00  0.00    +0.000 OA
ATOM     23  C   UNL     1       2.714   4.192  19.063  0.00  0.00    +0.000 A 
ATOM     24  C   UNL     1       3.628   3.976  18.103  0.00  0.00    +0.000 A 
BRANCH  17  26
ATOM     25  C   UNL     1       5.719   4.779  15.137  0.00  0.00    +0.000 C 
ATOM     26  C   UNL     1       5.685   4.368  16.614  0.00  0.00    +0.000 C 
ATOM     27  C   UNL     1       7.021   4.659  17.302  0.00  0.00    +0.000 C 
ENDBRANCH  17  26
BRANCH  23  28
ATOM     28  O   UNL     1       2.069   3.056  19.578  0.00  0.00    +0.000 OA
ATOM     29  H   UNL     1       1.288   2.930  18.995  0.00  0.00    +0.000 HD
ENDBRANCH  23  28
ENDBRANCH  16  20
ENDBRANCH   1  16
TORSDOF 6
ENDMDL
MODEL 8
REMARK VINA RESULT:      -7.2      3.607      5.048
REMARK  Name = 
REMARK  8 active torsions:
REMARK  status: ('A' for Active; 'I' for Inactive)
REMARK    1  A    between atoms: C_1  and  C_2
REMARK    2  A    between atoms: C_2  and  C_3
REMARK    3  A    between atoms: C_2  and  C_4
REMARK    4  A    between atoms: C_7  and  C_8
REMARK    5  A    between atoms: C_8  and  N_9
REMARK    6  A    between atoms: N_12  and  C_13
REMARK    7  A    between atoms: C_16  and  N_17
REMARK    8  A    between atoms: C_26  and  O_27
REMARK                            x       y       z     vdW  Elec       q    Type
REMARK                         _______ _______ _______ _____ _____    ______ ____
ROOT
ATOM      1  N   UNL     1       1.740   8.843  19.839  0.00  0.00    +0.000 NA
ATOM      2  C   UNL     1       1.531   9.376  18.483  0.00  0.00    +0.000 C 
ATOM      3  C   UNL     1       0.061   9.493  18.014  0.00  0.00    +0.000 C 
ATOM      4  N   UNL     1      -0.788  10.234  18.972  0.00  0.00    +0.000 N 
ATOM      5  C   UNL     1      -0.585   9.891  20.396  0.00  0.00    +0.000 C 
ATOM      6  C   UNL     1       0.899   9.622  20.769  0.00  0.00    +0.000 C 
ENDROOT
BRANCH   4   7
ATOM      7  C   UNL     1      -1.984  10.824  18.543  0.00  0.00    +0.000 A 
ATOM      8  C   UNL     1      -2.649  11.809  19.302  0.00  0.00    +0.000 A 
ATOM      9  C   UNL     1      -3.945  12.258  19.004  0.00  0.00    +0.000 A 
ATOM     10  C   UNL     1      -4.613  11.741  17.896  0.00  0.00    +0.000 A 
ATOM     11  C   UNL     1      -3.957  10.846  17.053  0.00  0.00    +0.000 A 
ATOM     12  C   UNL     1      -2.660  10.407  17.377  0.00  0.00    +0.000 A 
BRANCH  10  13
ATOM     13  N   UNL     1      -6.011  12.108  17.646  0.00  0.00    +0.000 N 
ATOM     14  O   UNL     1      -6.889  11.296  17.975  0.00  0.00    +0.000 OA
ATOM     15  O   UNL     1      -6.234  13.200  17.103  0.00  0.00    +0.000 OA
ENDBRANCH  10  13
ENDBRANCH   4   7
BRANCH   1  16
ATOM     16  C   UNL     1       1.520   7.391  19.907  0.00  0.00    +0.000 C 
BRANCH  16  20
ATOM     17  C   UNL     1       5.355   5.734  17.784  0.00  0.00    +0.000 A 
ATOM     18  C   UNL     1       4.505   6.744  17.569  0.00  0.00    +0.000 A 
ATOM     19  C   UNL     1       3.233   7.050  18.160  0.00  0.00    +0.000 A 
ATOM     20  C   UNL     1       2.622   6.548  19.247  0.00  0.00    +0.000 A 
ATOM     21  C   UNL     1       2.980   5.282  19.945  0.00  0.00    +0.000 A 
ATOM     22  O   UNL     1       2.328   4.893  20.918  0.00  0.00    +0.000 OA
ATOM     23  C   UNL     1       4.049   4.345  19.458  0.00  0.00    +0.000 A 
ATOM     24  C   UNL     1       5.032   4.556  18.569  0.00  0.00    +0.000 A 
BRANCH  17  26
ATOM     25  C   UNL     1       7.484   7.132  17.533  0.00  0.00    +0.000 C 
ATOM     26  C   UNL     1       6.761   5.831  17.160  0.00  0.00    +0.000 C 
ATOM     27  C   UNL     1       7.655   4.612  17.400  0.00  0.00    +0.000 C 
ENDBRANCH  17  26
BRANCH  23  28
ATOM     28  O   UNL     1       3.993   3.065  20.036  0.00  0.00    +0.000 OA
ATOM     29  H   UNL     1       4.718   3.062  20.699  0.00  0.00    +0.000 HD
ENDBRANCH  23  28
ENDBRANCH  16  20
ENDBRANCH   1  16
TORSDOF 6
ENDMDL
MODEL 9
REMARK VINA RESULT:      -7.1      3.184     10.535
REMARK  Name = 
REMARK  8 active torsions:
REMARK  status: ('A' for Active; 'I' for Inactive)
REMARK    1  A    between atoms: C_1  and  C_2
REMARK    2  A    between atoms: C_2  and  C_3
REMARK    3  A    between atoms: C_2  and  C_4
REMARK    4  A    between atoms: C_7  and  C_8
REMARK    5  A    between atoms: C_8  and  N_9
REMARK    6  A    between atoms: N_12  and  C_13
REMARK    7  A    between atoms: C_16  and  N_17
REMARK    8  A    between atoms: C_26  and  O_27
REMARK                            x       y       z     vdW  Elec       q    Type
REMARK                         _______ _______ _______ _____ _____    ______ ____
ROOT
ATOM      1  N   UNL     1      -0.071  10.320  19.941  0.00  0.00    +0.000 NA
ATOM      2  C   UNL     1       0.166   9.961  18.534  0.00  0.00    +0.000 C 
ATOM      3  C   UNL     1       1.542   9.330  18.213  0.00  0.00    +0.000 C 
ATOM      4  N   UNL     1       1.858   8.173  19.079  0.00  0.00    +0.000 N 
ATOM      5  C   UNL     1       1.542   8.349  20.512  0.00  0.00    +0.000 C 
ATOM      6  C   UNL     1       0.228   9.136  20.771  0.00  0.00    +0.000 C 
ENDROOT
BRANCH   4   7
ATOM      7  C   UNL     1       2.800   7.221  18.666  0.00  0.00    +0.000 A 
ATOM      8  C   UNL     1       3.090   6.074  19.432  0.00  0.00    +0.000 A 
ATOM      9  C   UNL     1       4.171   5.222  19.153  0.00  0.00    +0.000 A 
ATOM     10  C   UNL     1       4.989   5.488  18.058  0.00  0.00    +0.000 A 
ATOM     11  C   UNL     1       4.678   6.547  17.207  0.00  0.00    +0.000 A 
ATOM     12  C   UNL     1       3.593   7.389  17.512  0.00  0.00    +0.000 A 
BRANCH  10  13
ATOM     13  N   UNL     1       6.192   4.681  17.828  0.00  0.00    +0.000 N 
ATOM     14  O   UNL     1       7.000   4.568  18.762  0.00  0.00    +0.000 OA
ATOM     15  O   UNL     1       6.342   4.172  16.707  0.00  0.00    +0.000 OA
ENDBRANCH  10  13
ENDBRANCH   4   7
BRANCH   1  16
ATOM     16  C   UNL     1       0.665  11.530  20.339  0.00  0.00    +0.000 C 
BRANCH  16  20
ATOM     17  C   UNL     1      -2.373  13.812  23.081  0.00  0.00    +0.000 A 
ATOM     18  C   UNL     1      -2.455  12.835  22.172  0.00  0.00    +0.000 A 
ATOM     19  C   UNL     1      -1.493  12.341  21.228  0.00  0.00    +0.000 A 
ATOM     20  C   UNL     1      -0.170  12.554  21.123  0.00  0.00    +0.000 A 
ATOM     21  C   UNL     1       0.594  13.647  21.787  0.00  0.00    +0.000 A 
ATOM     22  O   UNL     1       1.807  13.773  21.594  0.00  0.00    +0.000 OA
ATOM     23  C   UNL     1      -0.052  14.722  22.614  0.00  0.00    +0.000 A 
ATOM     24  C   UNL     1      -1.281  14.765  23.151  0.00  0.00    +0.000 A 
BRANCH  17  26
ATOM     25  C   UNL     1      -4.113  12.567  24.487  0.00  0.00    +0.000 C 
ATOM     26  C   UNL     1      -3.510  13.929  24.117  0.00  0.00    +0.000 C 
ATOM     27  C   UNL     1      -3.158  14.738  25.367  0.00  0.00    +0.000 C 
ENDBRANCH  17  26
BRANCH  23  28
ATOM     28  O   UNL     1       0.774  15.834  22.851  0.00  0.00    +0.000 OA
ATOM     29  H   UNL     1       0.266  16.597  22.498  0.00  0.00    +0.000 HD
ENDBRANCH  23  28
ENDBRANCH  16  20
ENDBRANCH   1  16
TORSDOF 6
ENDMDL
