MODEL 1
REMARK VINA RESULT:      -7.1      0.000      0.000
REMARK  Name = 
REMARK  15 active torsions:
REMARK  status: ('A' for Active; 'I' for Inactive)
REMARK    1  A    between atoms: C_1  and  N_2
REMARK    2  A    between atoms: N_2  and  C_3
REMARK    3  A    between atoms: C_4  and  C_6
REMARK    4  A    between atoms: C_6  and  O_7
REMARK    5  A    between atoms: O_7  and  C_8
REMARK    6  A    between atoms: C_11  and  O_12
REMARK    7  A    between atoms: O_12  and  C_13
REMARK    8  A    between atoms: C_13  and  C_14
REMARK    9  A    between atoms: C_14  and  N_15
REMARK   10  A    between atoms: N_15  and  C_16
REMARK   11  A    between atoms: C_16  and  C_17
REMARK   12  A    between atoms: C_17  and  O_18
REMARK   13  A    between atoms: C_17  and  C_19
REMARK   14  A    between atoms: C_19  and  O_20
REMARK   15  A    between atoms: O_20  and  C_21
REMARK                            x       y       z     vdW  Elec       q    Type
REMARK                         _______ _______ _______ _____ _____    ______ ____
ROOT
ATOM      1  C   UNL     1       3.463   3.005  17.693  0.00  0.00    +0.000 C 
ENDROOT
BRANCH   1   2
ATOM      2  O   UNL     1       2.191   3.494  18.112  0.00  0.00    +0.000 OA
BRANCH   2   6
ATOM      3  C   UNL     1       1.809   7.096  20.131  0.00  0.00    +0.000 A 
ATOM      4  C   UNL     1       1.519   5.872  20.730  0.00  0.00    +0.000 A 
ATOM      5  C   UNL     1       1.698   4.692  20.013  0.00  0.00    +0.000 A 
ATOM      6  C   UNL     1       2.118   4.724  18.684  0.00  0.00    +0.000 A 
ATOM      7  C   UNL     1       2.418   5.944  18.084  0.00  0.00    +0.000 A 
ATOM      8  C   UNL     1       2.252   7.130  18.808  0.00  0.00    +0.000 A 
BRANCH   3   9
ATOM      9  O   UNL     1       1.689   8.310  20.747  0.00  0.00    +0.000 OA
BRANCH   9  10
ATOM     10  C   UNL     1       1.265   9.369  19.898  0.00  0.00    +0.000 C 
BRANCH  10  14
ATOM     11  C   UNL     1      -1.349  11.984  20.861  0.00  0.00    +0.000 C 
ATOM     12  N   UNL     1      -0.647  10.966  20.102  0.00  0.00    +0.000 N 
ATOM     13  C   UNL     1      -1.100  10.652  18.758  0.00  0.00    +0.000 C 
ATOM     14  C   UNL     1       0.475  10.405  20.689  0.00  0.00    +0.000 C 
ATOM     15  O   UNL     1       0.824  10.696  21.838  0.00  0.00    +0.000 OA
ENDBRANCH  10  14
ENDBRANCH   9  10
ENDBRANCH   3   9
ENDBRANCH   2   6
ENDBRANCH   1   2
BRANCH   1  16
ATOM     16  C   UNL     1       4.419   3.055  18.899  0.00  0.00    +0.000 C 
BRANCH  16  17
ATOM     17  N   UNL     1       5.781   3.544  18.620  0.00  0.00    +0.000 NA
ATOM     18  H   UNL     1       6.082   3.273  17.681  0.00  0.00    +0.000 HD
BRANCH  17  19
ATOM     19  C   UNL     1       5.894   5.004  18.728  0.00  0.00    +0.000 C 
BRANCH  19  20
ATOM     20  C   UNL     1       7.116   5.556  17.975  0.00  0.00    +0.000 C 
BRANCH  20  21
ATOM     21  O   UNL     1       8.063   4.485  17.794  0.00  0.00    +0.000 OA
ATOM     22  H   UNL     1       8.938   4.814  18.060  0.00  0.00    +0.000 HD
ENDBRANCH  20  21
BRANCH  20  23
ATOM     23  C   UNL     1       6.644   6.104  16.616  0.00  0.00    +0.000 C 
BRANCH  23  24
ATOM     24  O   UNL     1       7.549   5.686  15.594  0.00  0.00    +0.000 OA
BRANCH  24  25
ATOM     25  C   UNL     1       6.984   4.990  14.558  0.00  0.00    +0.000 A 
ATOM     26  C   UNL     1       7.688   5.049  13.356  0.00  0.00    +0.000 A 
ATOM     27  C   UNL     1       7.214   4.376  12.228  0.00  0.00    +0.000 A 
ATOM     28  C   UNL     1       6.042   3.627  12.305  0.00  0.00    +0.000 A 
ATOM     29  C   UNL     1       5.344   3.547  13.510  0.00  0.00    +0.000 A 
ATOM     30  C   UNL     1       5.816   4.228  14.637  0.00  0.00    +0.000 A 
ENDBRANCH  24  25
ENDBRANCH  23  24
ENDBRANCH  20  23
ENDBRANCH  19  20
ENDBRANCH  17  19
ENDBRANCH  16  17
ENDBRANCH   1  16
TORSDOF 13
ENDMDL
MODEL 2
REMARK VINA RESULT:      -6.9      3.694      7.514
REMARK  Name = 
REMARK  15 active torsions:
REMARK  status: ('A' for Active; 'I' for Inactive)
REMARK    1  A    between atoms: C_1  and  N_2
REMARK    2  A    between atoms: N_2  and  C_3
REMARK    3  A    between atoms: C_4  and  C_6
REMARK    4  A    between atoms: C_6  and  O_7
REMARK    5  A    between atoms: O_7  and  C_8
REMARK    6  A    between atoms: C_11  and  O_12
REMARK    7  A    between atoms: O_12  and  C_13
REMARK    8  A    between atoms: C_13  and  C_14
REMARK    9  A    between atoms: C_14  and  N_15
REMARK   10  A    between atoms: N_15  and  C_16
REMARK   11  A    between atoms: C_16  and  C_17
REMARK   12  A    between atoms: C_17  and  O_18
REMARK   13  A    between atoms: C_17  and  C_19
REMARK   14  A    between atoms: C_19  and  O_20
REMARK   15  A    between atoms: O_20  and  C_21
REMARK                            x       y       z     vdW  Elec       q    Type
REMARK                         _______ _______ _______ _____ _____    ______ ____
ROOT
ATOM      1  C   UNL     1       4.727   3.727  18.631  0.00  0.00    +0.000 C 
ENDROOT
BRANCH   1   2
ATOM      2  O   UNL     1       5.151   4.665  17.646  0.00  0.00    +0.000 OA
BRANCH   2   6
ATOM      3  C   UNL     1       8.037   7.561  18.339  0.00  0.00    +0.000 A 
ATOM      4  C   UNL     1       7.033   7.723  17.387  0.00  0.00    +0.000 A 
ATOM      5  C   UNL     1       6.072   6.730  17.221  0.00  0.00    +0.000 A 
ATOM      6  C   UNL     1       6.130   5.552  17.965  0.00  0.00    +0.000 A 
ATOM      7  C   UNL     1       7.126   5.390  18.923  0.00  0.00    +0.000 A 
ATOM      8  C   UNL     1       8.085   6.392  19.100  0.00  0.00    +0.000 A 
BRANCH   3   9
ATOM      9  O   UNL     1       9.017   8.478  18.598  0.00  0.00    +0.000 OA
BRANCH   9  10
ATOM     10  C   UNL     1       8.583   9.832  18.587  0.00  0.00    +0.000 C 
BRANCH  10  14
ATOM     11  C   UNL     1      11.170  12.259  20.008  0.00  0.00    +0.000 C 
ATOM     12  N   UNL     1      10.371  11.517  19.051  0.00  0.00    +0.000 N 
ATOM     13  C   UNL     1      10.674  11.639  17.636  0.00  0.00    +0.000 C 
ATOM     14  C   UNL     1       9.406  10.666  19.563  0.00  0.00    +0.000 C 
ATOM     15  O   UNL     1       9.176  10.594  20.775  0.00  0.00    +0.000 OA
ENDBRANCH  10  14
ENDBRANCH   9  10
ENDBRANCH   3   9
ENDBRANCH   2   6
ENDBRANCH   1   2
BRANCH   1  16
ATOM     16  C   UNL     1       3.597   2.872  18.027  0.00  0.00    +0.000 C 
BRANCH  16  17
ATOM     17  N   UNL     1       2.436   2.632  18.900  0.00  0.00    +0.000 NA
ATOM     18  H   UNL     1       2.724   2.533  19.876  0.00  0.00    +0.000 HD
BRANCH  17  19
ATOM     19  C   UNL     1       1.439   3.708  18.829  0.00  0.00    +0.000 C 
BRANCH  19  20
ATOM     20  C   UNL     1       0.936   4.137  20.217  0.00  0.00    +0.000 C 
BRANCH  20  21
ATOM     21  O   UNL     1       0.739   2.954  21.016  0.00  0.00    +0.000 OA
ATOM     22  H   UNL     1       1.426   2.942  21.704  0.00  0.00    +0.000 HD
ENDBRANCH  20  21
BRANCH  20  23
ATOM     23  C   UNL     1       1.992   5.058  20.855  0.00  0.00    +0.000 C 
BRANCH  23  24
ATOM     24  O   UNL     1       2.751   5.695  19.828  0.00  0.00    +0.000 OA
BRANCH  24  25
ATOM     25  C   UNL     1       2.311   6.940  19.461  0.00  0.00    +0.000 A 
ATOM     26  C   UNL     1       1.677   7.662  20.472  0.00  0.00    +0.000 A 
ATOM     27  C   UNL     1       1.188   8.945  20.221  0.00  0.00    +0.000 A 
ATOM     28  C   UNL     1       1.350   9.518  18.961  0.00  0.00    +0.000 A 
ATOM     29  C   UNL     1       2.003   8.810  17.952  0.00  0.00    +0.000 A 
ATOM     30  C   UNL     1       2.484   7.521  18.203  0.00  0.00    +0.000 A 
ENDBRANCH  24  25
ENDBRANCH  23  24
ENDBRANCH  20  23
ENDBRANCH  19  20
ENDBRANCH  17  19
ENDBRANCH  16  17
ENDBRANCH   1  16
TORSDOF 13
ENDMDL
MODEL 3
REMARK VINA RESULT:      -6.7      3.688      7.485
REMARK  Name = 
REMARK  15 active torsions:
REMARK  status: ('A' for Active; 'I' for Inactive)
REMARK    1  A    between atoms: C_1  and  N_2
REMARK    2  A    between atoms: N_2  and  C_3
REMARK    3  A    between atoms: C_4  and  C_6
REMARK    4  A    between atoms: C_6  and  O_7
REMARK    5  A    between atoms: O_7  and  C_8
REMARK    6  A    between atoms: C_11  and  O_12
REMARK    7  A    between atoms: O_12  and  C_13
REMARK    8  A    between atoms: C_13  and  C_14
REMARK    9  A    between atoms: C_14  and  N_15
REMARK   10  A    between atoms: N_15  and  C_16
REMARK   11  A    between atoms: C_16  and  C_17
REMARK   12  A    between atoms: C_17  and  O_18
REMARK   13  A    between atoms: C_17  and  C_19
REMARK   14  A    between atoms: C_19  and  O_20
REMARK   15  A    between atoms: O_20  and  C_21
REMARK                            x       y       z     vdW  Elec       q    Type
REMARK                         _______ _______ _______ _____ _____    ______ ____
ROOT
ATOM      1  C   UNL     1       4.264   4.302  18.650  0.00  0.00    +0.000 C 
ENDROOT
BRANCH   1   2
ATOM      2  O   UNL     1       5.654   4.212  18.350  0.00  0.00    +0.000 OA
BRANCH   2   6
ATOM      3  C   UNL     1       7.682   7.799  17.886  0.00  0.00    +0.000 A 
ATOM      4  C   UNL     1       6.498   7.520  17.207  0.00  0.00    +0.000 A 
ATOM      5  C   UNL     1       5.843   6.311  17.429  0.00  0.00    +0.000 A 
ATOM      6  C   UNL     1       6.386   5.355  18.286  0.00  0.00    +0.000 A 
ATOM      7  C   UNL     1       7.564   5.633  18.972  0.00  0.00    +0.000 A 
ATOM      8  C   UNL     1       8.216   6.852  18.762  0.00  0.00    +0.000 A 
BRANCH   3   9
ATOM      9  O   UNL     1       8.395   8.958  17.760  0.00  0.00    +0.000 OA
BRANCH   9  10
ATOM     10  C   UNL     1       8.835   9.522  18.989  0.00  0.00    +0.000 C 
BRANCH  10  14
ATOM     11  C   UNL     1      10.332  12.994  19.539  0.00  0.00    +0.000 C 
ATOM     12  N   UNL     1       9.700  11.718  19.814  0.00  0.00    +0.000 N 
ATOM     13  C   UNL     1       9.202  11.453  21.152  0.00  0.00    +0.000 C 
ATOM     14  C   UNL     1       9.542  10.851  18.745  0.00  0.00    +0.000 C 
ATOM     15  O   UNL     1       9.985  11.113  17.622  0.00  0.00    +0.000 OA
ENDBRANCH  10  14
ENDBRANCH   9  10
ENDBRANCH   3   9
ENDBRANCH   2   6
ENDBRANCH   1   2
BRANCH   1  16
ATOM     16  C   UNL     1       3.644   2.902  18.489  0.00  0.00    +0.000 C 
BRANCH  16  17
ATOM     17  N   UNL     1       3.271   2.216  19.738  0.00  0.00    +0.000 NA
ATOM     18  H   UNL     1       3.718   2.657  20.546  0.00  0.00    +0.000 HD
BRANCH  17  19
ATOM     19  C   UNL     1       1.822   2.208  19.972  0.00  0.00    +0.000 C 
BRANCH  19  20
ATOM     20  C   UNL     1       1.398   3.185  21.081  0.00  0.00    +0.000 C 
BRANCH  20  21
ATOM     21  O   UNL     1       2.493   3.325  22.007  0.00  0.00    +0.000 OA
ATOM     22  H   UNL     1       3.255   2.844  21.642  0.00  0.00    +0.000 HD
ENDBRANCH  20  21
BRANCH  20  23
ATOM     23  C   UNL     1       1.055   4.539  20.434  0.00  0.00    +0.000 C 
BRANCH  23  24
ATOM     24  O   UNL     1       2.023   5.513  20.824  0.00  0.00    +0.000 OA
BRANCH  24  25
ATOM     25  C   UNL     1       1.852   6.760  20.283  0.00  0.00    +0.000 A 
ATOM     26  C   UNL     1       2.369   6.919  18.997  0.00  0.00    +0.000 A 
ATOM     27  C   UNL     1       2.253   8.144  18.338  0.00  0.00    +0.000 A 
ATOM     28  C   UNL     1       1.600   9.208  18.956  0.00  0.00    +0.000 A 
ATOM     29  C   UNL     1       1.061   9.049  20.232  0.00  0.00    +0.000 A 
ATOM     30  C   UNL     1       1.187   7.823  20.895  0.00  0.00    +0.000 A 
ENDBRANCH  24  25
ENDBRANCH  23  24
ENDBRANCH  20  23
ENDBRANCH  19  20
ENDBRANCH  17  19
ENDBRANCH  16  17
ENDBRANCH   1  16
TORSDOF 13
ENDMDL
MODEL 4
REMARK VINA RESULT:      -6.7      2.663      4.011
REMARK  Name = 
REMARK  15 active torsions:
REMARK  status: ('A' for Active; 'I' for Inactive)
REMARK    1  A    between atoms: C_1  and  N_2
REMARK    2  A    between atoms: N_2  and  C_3
REMARK    3  A    between atoms: C_4  and  C_6
REMARK    4  A    between atoms: C_6  and  O_7
REMARK    5  A    between atoms: O_7  and  C_8
REMARK    6  A    between atoms: C_11  and  O_12
REMARK    7  A    between atoms: O_12  and  C_13
REMARK    8  A    between atoms: C_13  and  C_14
REMARK    9  A    between atoms: C_14  and  N_15
REMARK   10  A    between atoms: N_15  and  C_16
REMARK   11  A    between atoms: C_16  and  C_17
REMARK   12  A    between atoms: C_17  and  O_18
REMARK   13  A    between atoms: C_17  and  C_19
REMARK   14  A    between atoms: C_19  and  O_20
REMARK   15  A    between atoms: O_20  and  C_21
REMARK                            x       y       z     vdW  Elec       q    Type
REMARK                         _______ _______ _______ _____ _____    ______ ____
ROOT
ATOM      1  C   UNL     1       1.497   4.699  20.758  0.00  0.00    +0.000 C 
ENDROOT
BRANCH   1   2
ATOM      2  O   UNL     1       2.408   5.499  20.010  0.00  0.00    +0.000 OA
BRANCH   2   6
ATOM      3  C   UNL     1       1.541   9.374  18.811  0.00  0.00    +0.000 A 
ATOM      4  C   UNL     1       2.158   8.453  17.966  0.00  0.00    +0.000 A 
ATOM      5  C   UNL     1       2.394   7.156  18.413  0.00  0.00    +0.000 A 
ATOM      6  C   UNL     1       2.064   6.781  19.715  0.00  0.00    +0.000 A 
ATOM      7  C   UNL     1       1.441   7.695  20.560  0.00  0.00    +0.000 A 
ATOM      8  C   UNL     1       1.190   8.994  20.108  0.00  0.00    +0.000 A 
BRANCH   3   9
ATOM      9  O   UNL     1       1.245  10.663  18.470  0.00  0.00    +0.000 OA
BRANCH   9  10
ATOM     10  C   UNL     1       1.044  11.539  19.572  0.00  0.00    +0.000 C 
BRANCH  10  14
ATOM     11  C   UNL     1      -2.413  12.982  20.324  0.00  0.00    +0.000 C 
ATOM     12  N   UNL     1      -1.144  12.305  20.509  0.00  0.00    +0.000 N 
ATOM     13  C   UNL     1      -0.885  11.624  21.766  0.00  0.00    +0.000 C 
ATOM     14  C   UNL     1      -0.277  12.286  19.428  0.00  0.00    +0.000 C 
ATOM     15  O   UNL     1      -0.533  12.882  18.377  0.00  0.00    +0.000 OA
ENDBRANCH  10  14
ENDBRANCH   9  10
ENDBRANCH   3   9
ENDBRANCH   2   6
ENDBRANCH   1   2
BRANCH   1  16
ATOM     16  C   UNL     1       1.814   3.218  20.477  0.00  0.00    +0.000 C 
BRANCH  16  17
ATOM     17  N   UNL     1       3.069   2.956  19.751  0.00  0.00    +0.000 NA
ATOM     18  H   UNL     1       3.753   2.495  20.356  0.00  0.00    +0.000 HD
BRANCH  17  19
ATOM     19  C   UNL     1       2.874   2.113  18.565  0.00  0.00    +0.000 C 
BRANCH  19  20
ATOM     20  C   UNL     1       2.985   2.909  17.253  0.00  0.00    +0.000 C 
BRANCH  20  21
ATOM     21  O   UNL     1       1.926   3.886  17.223  0.00  0.00    +0.000 OA
ATOM     22  H   UNL     1       2.041   4.424  16.420  0.00  0.00    +0.000 HD
ENDBRANCH  20  21
BRANCH  20  23
ATOM     23  C   UNL     1       4.362   3.594  17.213  0.00  0.00    +0.000 C 
BRANCH  23  24
ATOM     24  O   UNL     1       4.345   4.747  18.056  0.00  0.00    +0.000 OA
BRANCH  24  25
ATOM     25  C   UNL     1       5.504   5.477  18.074  0.00  0.00    +0.000 A 
ATOM     26  C   UNL     1       6.393   5.146  19.096  0.00  0.00    +0.000 A 
ATOM     27  C   UNL     1       7.611   5.817  19.216  0.00  0.00    +0.000 A 
ATOM     28  C   UNL     1       7.952   6.810  18.301  0.00  0.00    +0.000 A 
ATOM     29  C   UNL     1       7.078   7.131  17.263  0.00  0.00    +0.000 A 
ATOM     30  C   UNL     1       5.854   6.463  17.149  0.00  0.00    +0.000 A 
ENDBRANCH  24  25
ENDBRANCH  23  24
ENDBRANCH  20  23
ENDBRANCH  19  20
ENDBRANCH  17  19
ENDBRANCH  16  17
ENDBRANCH   1  16
TORSDOF 13
ENDMDL
MODEL 5
REMARK VINA RESULT:      -6.6      2.650      8.996
REMARK  Name = 
REMARK  15 active torsions:
REMARK  status: ('A' for Active; 'I' for Inactive)
REMARK    1  A    between atoms: C_1  and  N_2
REMARK    2  A    between atoms: N_2  and  C_3
REMARK    3  A    between atoms: C_4  and  C_6
REMARK    4  A    between atoms: C_6  and  O_7
REMARK    5  A    between atoms: O_7  and  C_8
REMARK    6  A    between atoms: C_11  and  O_12
REMARK    7  A    between atoms: O_12  and  C_13
REMARK    8  A    between atoms: C_13  and  C_14
REMARK    9  A    between atoms: C_14  and  N_15
REMARK   10  A    between atoms: N_15  and  C_16
REMARK   11  A    between atoms: C_16  and  C_17
REMARK   12  A    between atoms: C_17  and  O_18
REMARK   13  A    between atoms: C_17  and  C_19
REMARK   14  A    between atoms: C_19  and  O_20
REMARK   15  A    between atoms: O_20  and  C_21
REMARK                            x       y       z     vdW  Elec       q    Type
REMARK                         _______ _______ _______ _____ _____    ______ ____
ROOT
ATOM      1  C   UNL     1       0.149   8.721  21.459  0.00  0.00    +0.000 C 
ENDROOT
BRANCH   1   2
ATOM      2  O   UNL     1       1.372   8.871  20.743  0.00  0.00    +0.000 OA
BRANCH   2   6
ATOM      3  C   UNL     1       2.753   5.506  18.751  0.00  0.00    +0.000 A 
ATOM      4  C   UNL     1       2.319   5.463  20.074  0.00  0.00    +0.000 A 
ATOM      5  C   UNL     1       1.835   6.618  20.681  0.00  0.00    +0.000 A 
ATOM      6  C   UNL     1       1.824   7.832  19.994  0.00  0.00    +0.000 A 
ATOM      7  C   UNL     1       2.248   7.878  18.669  0.00  0.00    +0.000 A 
ATOM      8  C   UNL     1       2.722   6.715  18.054  0.00  0.00    +0.000 A 
BRANCH   3   9
ATOM      9  O   UNL     1       3.226   4.431  18.053  0.00  0.00    +0.000 OA
BRANCH   9  10
ATOM     10  C   UNL     1       4.484   4.638  17.423  0.00  0.00    +0.000 C 
BRANCH  10  14
ATOM     11  C   UNL     1       7.591   5.715  19.369  0.00  0.00    +0.000 C 
ATOM     12  N   UNL     1       6.512   5.726  18.400  0.00  0.00    +0.000 N 
ATOM     13  C   UNL     1       6.490   6.763  17.383  0.00  0.00    +0.000 C 
ATOM     14  C   UNL     1       5.601   4.685  18.460  0.00  0.00    +0.000 C 
ATOM     15  O   UNL     1       5.652   3.824  19.345  0.00  0.00    +0.000 OA
ENDBRANCH  10  14
ENDBRANCH   9  10
ENDBRANCH   3   9
ENDBRANCH   2   6
ENDBRANCH   1   2
BRANCH   1  16
ATOM     16  C   UNL     1       0.339   9.320  22.866  0.00  0.00    +0.000 C 
BRANCH  16  17
ATOM     17  N   UNL     1      -0.193  10.679  23.063  0.00  0.00    +0.000 NA
ATOM     18  H   UNL     1       0.560  11.371  23.067  0.00  0.00    +0.000 HD
BRANCH  17  19
ATOM     19  C   UNL     1      -1.159  11.067  22.028  0.00  0.00    +0.000 C 
BRANCH  19  20
ATOM     20  C   UNL     1      -0.905  12.484  21.487  0.00  0.00    +0.000 C 
BRANCH  20  21
ATOM     21  O   UNL     1       0.419  12.892  21.884  0.00  0.00    +0.000 OA
ATOM     22  H   UNL     1       1.050  12.513  21.249  0.00  0.00    +0.000 HD
ENDBRANCH  20  21
BRANCH  20  23
ATOM     23  C   UNL     1      -1.029  12.451  19.953  0.00  0.00    +0.000 C 
BRANCH  23  24
ATOM     24  O   UNL     1      -1.125  11.096  19.513  0.00  0.00    +0.000 OA
BRANCH  24  25
ATOM     25  C   UNL     1      -1.935  10.888  18.427  0.00  0.00    +0.000 A 
ATOM     26  C   UNL     1      -3.083  11.680  18.389  0.00  0.00    +0.000 A 
ATOM     27  C   UNL     1      -3.985  11.563  17.330  0.00  0.00    +0.000 A 
ATOM     28  C   UNL     1      -3.730  10.666  16.295  0.00  0.00    +0.000 A 
ATOM     29  C   UNL     1      -2.573   9.888  16.315  0.00  0.00    +0.000 A 
ATOM     30  C   UNL     1      -1.675  10.000  17.382  0.00  0.00    +0.000 A 
ENDBRANCH  24  25
ENDBRANCH  23  24
ENDBRANCH  20  23
ENDBRANCH  19  20
ENDBRANCH  17  19
ENDBRANCH  16  17
ENDBRANCH   1  16
TORSDOF 13
ENDMDL
MODEL 6
REMARK VINA RESULT:      -6.6      2.022      4.293
REMARK  Name = 
REMARK  15 active torsions:
REMARK  status: ('A' for Active; 'I' for Inactive)
REMARK    1  A    between atoms: C_1  and  N_2
REMARK    2  A    between atoms: N_2  and  C_3
REMARK    3  A    between atoms: C_4  and  C_6
REMARK    4  A    between atoms: C_6  and  O_7
REMARK    5  A    between atoms: O_7  and  C_8
REMARK    6  A    between atoms: C_11  and  O_12
REMARK    7  A    between atoms: O_12  and  C_13
REMARK    8  A    between atoms: C_13  and  C_14
REMARK    9  A    between atoms: C_14  and  N_15
REMARK   10  A    between atoms: N_15  and  C_16
REMARK   11  A    between atoms: C_16  and  C_17
REMARK   12  A    between atoms: C_17  and  O_18
REMARK   13  A    between atoms: C_17  and  C_19
REMARK   14  A    between atoms: C_19  and  O_20
REMARK   15  A    between atoms: O_20  and  C_21
REMARK                            x       y       z     vdW  Elec       q    Type
REMARK                         _______ _______ _______ _____ _____    ______ ____
ROOT
ATOM      1  C   UNL     1       6.802   5.554  18.928  0.00  0.00    +0.000 C 
ENDROOT
BRANCH   1   2
ATOM      2  O   UNL     1       5.520   4.943  19.054  0.00  0.00    +0.000 OA
BRANCH   2   6
ATOM      3  C   UNL     1       2.297   7.546  18.873  0.00  0.00    +0.000 A 
ATOM      4  C   UNL     1       3.311   7.549  17.918  0.00  0.00    +0.000 A 
ATOM      5  C   UNL     1       4.352   6.629  18.013  0.00  0.00    +0.000 A 
ATOM      6  C   UNL     1       4.417   5.735  19.081  0.00  0.00    +0.000 A 
ATOM      7  C   UNL     1       3.401   5.723  20.032  0.00  0.00    +0.000 A 
ATOM      8  C   UNL     1       2.347   6.637  19.931  0.00  0.00    +0.000 A 
BRANCH   3   9
ATOM      9  O   UNL     1       1.221   8.388  18.866  0.00  0.00    +0.000 OA
BRANCH   9  10
ATOM     10  C   UNL     1       1.365   9.530  18.031  0.00  0.00    +0.000 C 
BRANCH  10  14
ATOM     11  C   UNL     1      -1.242  12.162  18.966  0.00  0.00    +0.000 C 
ATOM     12  N   UNL     1      -0.645  10.973  18.389  0.00  0.00    +0.000 N 
ATOM     13  C   UNL     1      -1.444  10.144  17.502  0.00  0.00    +0.000 C 
ATOM     14  C   UNL     1       0.693  10.744  18.663  0.00  0.00    +0.000 C 
ATOM     15  O   UNL     1       1.336  11.472  19.428  0.00  0.00    +0.000 OA
ENDBRANCH  10  14
ENDBRANCH   9  10
ENDBRANCH   3   9
ENDBRANCH   2   6
ENDBRANCH   1   2
BRANCH   1  16
ATOM     16  C   UNL     1       7.601   4.782  17.861  0.00  0.00    +0.000 C 
BRANCH  16  17
ATOM     17  N   UNL     1       7.585   5.358  16.506  0.00  0.00    +0.000 NA
ATOM     18  H   UNL     1       8.518   5.670  16.228  0.00  0.00    +0.000 HD
BRANCH  17  19
ATOM     19  C   UNL     1       7.105   4.410  15.491  0.00  0.00    +0.000 C 
BRANCH  19  20
ATOM     20  C   UNL     1       5.585   4.494  15.279  0.00  0.00    +0.000 C 
BRANCH  20  21
ATOM     21  O   UNL     1       5.300   4.197  13.899  0.00  0.00    +0.000 OA
ATOM     22  H   UNL     1       5.574   3.279  13.729  0.00  0.00    +0.000 HD
ENDBRANCH  20  21
BRANCH  20  23
ATOM     23  C   UNL     1       4.905   3.473  16.210  0.00  0.00    +0.000 C 
BRANCH  23  24
ATOM     24  O   UNL     1       3.497   3.708  16.225  0.00  0.00    +0.000 OA
BRANCH  24  25
ATOM     25  C   UNL     1       2.838   3.248  17.335  0.00  0.00    +0.000 A 
ATOM     26  C   UNL     1       1.611   3.861  17.588  0.00  0.00    +0.000 A 
ATOM     27  C   UNL     1       0.844   3.475  18.689  0.00  0.00    +0.000 A 
ATOM     28  C   UNL     1       1.295   2.461  19.530  0.00  0.00    +0.000 A 
ATOM     29  C   UNL     1       2.510   1.828  19.271  0.00  0.00    +0.000 A 
ATOM     30  C   UNL     1       3.282   2.222  18.172  0.00  0.00    +0.000 A 
ENDBRANCH  24  25
ENDBRANCH  23  24
ENDBRANCH  20  23
ENDBRANCH  19  20
ENDBRANCH  17  19
ENDBRANCH  16  17
ENDBRANCH   1  16
TORSDOF 13
ENDMDL
MODEL 7
REMARK VINA RESULT:      -6.6      3.596      7.266
REMARK  Name = 
REMARK  15 active torsions:
REMARK  status: ('A' for Active; 'I' for Inactive)
REMARK    1  A    between atoms: C_1  and  N_2
REMARK    2  A    between atoms: N_2  and  C_3
REMARK    3  A    between atoms: C_4  and  C_6
REMARK    4  A    between atoms: C_6  and  O_7
REMARK    5  A    between atoms: O_7  and  C_8
REMARK    6  A    between atoms: C_11  and  O_12
REMARK    7  A    between atoms: O_12  and  C_13
REMARK    8  A    between atoms: C_13  and  C_14
REMARK    9  A    between atoms: C_14  and  N_15
REMARK   10  A    between atoms: N_15  and  C_16
REMARK   11  A    between atoms: C_16  and  C_17
REMARK   12  A    between atoms: C_17  and  O_18
REMARK   13  A    between atoms: C_17  and  C_19
REMARK   14  A    between atoms: C_19  and  O_20
REMARK   15  A    between atoms: O_20  and  C_21
REMARK                            x       y       z     vdW  Elec       q    Type
REMARK                         _______ _______ _______ _____ _____    ______ ____
ROOT
ATOM      1  C   UNL     1       4.472   3.893  16.901  0.00  0.00    +0.000 C 
ENDROOT
BRANCH   1   2
ATOM      2  O   UNL     1       5.208   4.374  18.023  0.00  0.00    +0.000 OA
BRANCH   2   6
ATOM      3  C   UNL     1       7.784   7.619  17.834  0.00  0.00    +0.000 A 
ATOM      4  C   UNL     1       8.004   6.542  18.690  0.00  0.00    +0.000 A 
ATOM      5  C   UNL     1       7.122   5.464  18.685  0.00  0.00    +0.000 A 
ATOM      6  C   UNL     1       5.992   5.473  17.869  0.00  0.00    +0.000 A 
ATOM      7  C   UNL     1       5.773   6.543  17.006  0.00  0.00    +0.000 A 
ATOM      8  C   UNL     1       6.666   7.620  16.999  0.00  0.00    +0.000 A 
BRANCH   3   9
ATOM      9  O   UNL     1       8.594   8.715  17.741  0.00  0.00    +0.000 OA
BRANCH   9  10
ATOM     10  C   UNL     1       8.459   9.646  18.808  0.00  0.00    +0.000 C 
BRANCH  10  14
ATOM     11  C   UNL     1      10.869  12.458  19.750  0.00  0.00    +0.000 C 
ATOM     12  N   UNL     1       9.871  11.413  19.874  0.00  0.00    +0.000 N 
ATOM     13  C   UNL     1       9.221  11.209  21.157  0.00  0.00    +0.000 C 
ATOM     14  C   UNL     1       9.541  10.717  18.723  0.00  0.00    +0.000 C 
ATOM     15  O   UNL     1      10.122  10.918  17.651  0.00  0.00    +0.000 OA
ENDBRANCH  10  14
ENDBRANCH   9  10
ENDBRANCH   3   9
ENDBRANCH   2   6
ENDBRANCH   1   2
BRANCH   1  16
ATOM     16  C   UNL     1       3.107   3.387  17.403  0.00  0.00    +0.000 C 
BRANCH  16  17
ATOM     17  N   UNL     1       3.128   2.616  18.657  0.00  0.00    +0.000 NA
ATOM     18  H   UNL     1       3.884   2.931  19.269  0.00  0.00    +0.000 HD
BRANCH  17  19
ATOM     19  C   UNL     1       1.869   2.713  19.406  0.00  0.00    +0.000 C 
BRANCH  19  20
ATOM     20  C   UNL     1       2.091   3.045  20.891  0.00  0.00    +0.000 C 
BRANCH  20  21
ATOM     21  O   UNL     1       3.428   2.645  21.252  0.00  0.00    +0.000 OA
ATOM     22  H   UNL     1       3.721   3.213  21.985  0.00  0.00    +0.000 HD
ENDBRANCH  20  21
BRANCH  20  23
ATOM     23  C   UNL     1       1.904   4.560  21.086  0.00  0.00    +0.000 C 
BRANCH  23  24
ATOM     24  O   UNL     1       2.788   5.266  20.214  0.00  0.00    +0.000 OA
BRANCH  24  25
ATOM     25  C   UNL     1       2.367   6.514  19.837  0.00  0.00    +0.000 A 
ATOM     26  C   UNL     1       2.623   6.844  18.506  0.00  0.00    +0.000 A 
ATOM     27  C   UNL     1       2.237   8.087  18.002  0.00  0.00    +0.000 A 
ATOM     28  C   UNL     1       1.576   8.997  18.824  0.00  0.00    +0.000 A 
ATOM     29  C   UNL     1       1.296   8.665  20.149  0.00  0.00    +0.000 A 
ATOM     30  C   UNL     1       1.692   7.422  20.656  0.00  0.00    +0.000 A 
ENDBRANCH  24  25
ENDBRANCH  23  24
ENDBRANCH  20  23
ENDBRANCH  19  20
ENDBRANCH  17  19
ENDBRANCH  16  17
ENDBRANCH   1  16
TORSDOF 13
ENDMDL
MODEL 8
REMARK VINA RESULT:      -6.6      2.109      4.522
REMARK  Name = 
REMARK  15 active torsions:
REMARK  status: ('A' for Active; 'I' for Inactive)
REMARK    1  A    between atoms: C_1  and  N_2
REMARK    2  A    between atoms: N_2  and  C_3
REMARK    3  A    between atoms: C_4  and  C_6
REMARK    4  A    between atoms: C_6  and  O_7
REMARK    5  A    between atoms: O_7  and  C_8
REMARK    6  A    between atoms: C_11  and  O_12
REMARK    7  A    between atoms: O_12  and  C_13
REMARK    8  A    between atoms: C_13  and  C_14
REMARK    9  A    between atoms: C_14  and  N_15
REMARK   10  A    between atoms: N_15  and  C_16
REMARK   11  A    between atoms: C_16  and  C_17
REMARK   12  A    between atoms: C_17  and  O_18
REMARK   13  A    between atoms: C_17  and  C_19
REMARK   14  A    between atoms: C_19  and  O_20
REMARK   15  A    between atoms: O_20  and  C_21
REMARK                            x       y       z     vdW  Elec       q    Type
REMARK                         _______ _______ _______ _____ _____    ______ ____
ROOT
ATOM      1  C   UNL     1       4.304   7.123  16.712  0.00  0.00    +0.000 C 
ENDROOT
BRANCH   1   2
ATOM      2  O   UNL     1       3.485   6.544  17.724  0.00  0.00    +0.000 OA
BRANCH   2   6
ATOM      3  C   UNL     1       1.079   9.260  19.732  0.00  0.00    +0.000 A 
ATOM      4  C   UNL     1       1.466   9.446  18.407  0.00  0.00    +0.000 A 
ATOM      5  C   UNL     1       2.248   8.483  17.774  0.00  0.00    +0.000 A 
ATOM      6  C   UNL     1       2.689   7.357  18.468  0.00  0.00    +0.000 A 
ATOM      7  C   UNL     1       2.298   7.163  19.789  0.00  0.00    +0.000 A 
ATOM      8  C   UNL     1       1.500   8.122  20.422  0.00  0.00    +0.000 A 
BRANCH   3   9
ATOM      9  O   UNL     1       0.298  10.128  20.442  0.00  0.00    +0.000 OA
BRANCH   9  10
ATOM     10  C   UNL     1       0.263  11.453  19.928  0.00  0.00    +0.000 C 
BRANCH  10  14
ATOM     11  C   UNL     1      -2.198  13.714  21.781  0.00  0.00    +0.000 C 
ATOM     12  N   UNL     1      -1.669  12.766  20.818  0.00  0.00    +0.000 N 
ATOM     13  C   UNL     1      -2.523  12.313  19.734  0.00  0.00    +0.000 C 
ATOM     14  C   UNL     1      -0.338  12.409  20.953  0.00  0.00    +0.000 C 
ATOM     15  O   UNL     1       0.354  12.814  21.894  0.00  0.00    +0.000 OA
ENDBRANCH  10  14
ENDBRANCH   9  10
ENDBRANCH   3   9
ENDBRANCH   2   6
ENDBRANCH   1   2
BRANCH   1  16
ATOM     16  C   UNL     1       5.755   7.157  17.227  0.00  0.00    +0.000 C 
BRANCH  16  17
ATOM     17  N   UNL     1       6.717   6.315  16.495  0.00  0.00    +0.000 NA
ATOM     18  H   UNL     1       7.390   5.886  17.134  0.00  0.00    +0.000 HD
BRANCH  17  19
ATOM     19  C   UNL     1       6.067   5.239  15.735  0.00  0.00    +0.000 C 
BRANCH  19  20
ATOM     20  C   UNL     1       6.099   3.892  16.477  0.00  0.00    +0.000 C 
BRANCH  20  21
ATOM     21  O   UNL     1       6.925   4.037  17.649  0.00  0.00    +0.000 OA
ATOM     22  H   UNL     1       6.440   4.584  18.290  0.00  0.00    +0.000 HD
ENDBRANCH  20  21
BRANCH  20  23
ATOM     23  C   UNL     1       4.659   3.515  16.868  0.00  0.00    +0.000 C 
BRANCH  23  24
ATOM     24  O   UNL     1       4.573   3.370  18.285  0.00  0.00    +0.000 OA
BRANCH  24  25
ATOM     25  C   UNL     1       3.303   3.250  18.786  0.00  0.00    +0.000 A 
ATOM     26  C   UNL     1       3.162   3.613  20.126  0.00  0.00    +0.000 A 
ATOM     27  C   UNL     1       1.915   3.538  20.748  0.00  0.00    +0.000 A 
ATOM     28  C   UNL     1       0.800   3.118  20.026  0.00  0.00    +0.000 A 
ATOM     29  C   UNL     1       0.929   2.776  18.680  0.00  0.00    +0.000 A 
ATOM     30  C   UNL     1       2.182   2.843  18.060  0.00  0.00    +0.000 A 
ENDBRANCH  24  25
ENDBRANCH  23  24
ENDBRANCH  20  23
ENDBRANCH  19  20
ENDBRANCH  17  19
ENDBRANCH  16  17
ENDBRANCH   1  16
TORSDOF 13
ENDMDL
MODEL 9
REMARK VINA RESULT:      -6.5      2.355      4.002
REMARK  Name = 
REMARK  15 active torsions:
REMARK  status: ('A' for Active; 'I' for Inactive)
REMARK    1  A    between atoms: C_1  and  N_2
REMARK    2  A    between atoms: N_2  and  C_3
REMARK    3  A    between atoms: C_4  and  C_6
REMARK    4  A    between atoms: C_6  and  O_7
REMARK    5  A    between atoms: O_7  and  C_8
REMARK    6  A    between atoms: C_11  and  O_12
REMARK    7  A    between atoms: O_12  and  C_13
REMARK    8  A    between atoms: C_13  and  C_14
REMARK    9  A    between atoms: C_14  and  N_15
REMARK   10  A    between atoms: N_15  and  C_16
REMARK   11  A    between atoms: C_16  and  C_17
REMARK   12  A    between atoms: C_17  and  O_18
REMARK   13  A    between atoms: C_17  and  C_19
REMARK   14  A    between atoms: C_19  and  O_20
REMARK   15  A    between atoms: O_20  and  C_21
REMARK                            x       y       z     vdW  Elec       q    Type
REMARK                         _______ _______ _______ _____ _____    ______ ____
ROOT
ATOM      1  C   UNL     1       1.845   5.221  19.455  0.00  0.00    +0.000 C 
ENDROOT
BRANCH   1   2
ATOM      2  O   UNL     1       2.478   6.361  20.030  0.00  0.00    +0.000 OA
BRANCH   2   6
ATOM      3  C   UNL     1       0.993  10.151  19.237  0.00  0.00    +0.000 A 
ATOM      4  C   UNL     1       0.836   9.534  20.476  0.00  0.00    +0.000 A 
ATOM      5  C   UNL     1       1.386   8.274  20.695  0.00  0.00    +0.000 A 
ATOM      6  C   UNL     1       2.049   7.599  19.670  0.00  0.00    +0.000 A 
ATOM      7  C   UNL     1       2.215   8.215  18.434  0.00  0.00    +0.000 A 
ATOM      8  C   UNL     1       1.676   9.487  18.217  0.00  0.00    +0.000 A 
BRANCH   3   9
ATOM      9  O   UNL     1       0.514  11.391  18.920  0.00  0.00    +0.000 OA
BRANCH   9  10
ATOM     10  C   UNL     1       0.100  12.171  20.035  0.00  0.00    +0.000 C 
BRANCH  10  14
ATOM     11  C   UNL     1       1.999  15.486  20.065  0.00  0.00    +0.000 C 
ATOM     12  N   UNL     1       0.972  14.501  19.786  0.00  0.00    +0.000 N 
ATOM     13  C   UNL     1      -0.109  14.848  18.880  0.00  0.00    +0.000 C 
ATOM     14  C   UNL     1       1.134  13.246  20.349  0.00  0.00    +0.000 C 
ATOM     15  O   UNL     1       2.067  12.993  21.120  0.00  0.00    +0.000 OA
ENDBRANCH  10  14
ENDBRANCH   9  10
ENDBRANCH   3   9
ENDBRANCH   2   6
ENDBRANCH   1   2
BRANCH   1  16
ATOM     16  C   UNL     1       1.216   4.394  20.593  0.00  0.00    +0.000 C 
BRANCH  16  17
ATOM     17  N   UNL     1       1.437   2.939  20.528  0.00  0.00    +0.000 NA
ATOM     18  H   UNL     1       0.766   2.494  19.898  0.00  0.00    +0.000 HD
BRANCH  17  19
ATOM     19  C   UNL     1       2.788   2.589  20.070  0.00  0.00    +0.000 C 
BRANCH  19  20
ATOM     20  C   UNL     1       2.772   1.732  18.794  0.00  0.00    +0.000 C 
BRANCH  20  21
ATOM     21  O   UNL     1       1.517   1.940  18.119  0.00  0.00    +0.000 OA
ATOM     22  H   UNL     1       1.322   1.143  17.598  0.00  0.00    +0.000 HD
ENDBRANCH  20  21
BRANCH  20  23
ATOM     23  C   UNL     1       3.950   2.164  17.901  0.00  0.00    +0.000 C 
BRANCH  23  24
ATOM     24  O   UNL     1       4.474   3.405  18.373  0.00  0.00    +0.000 OA
BRANCH  24  25
ATOM     25  C   UNL     1       4.824   4.302  17.399  0.00  0.00    +0.000 A 
ATOM     26  C   UNL     1       5.088   3.741  16.149  0.00  0.00    +0.000 A 
ATOM     27  C   UNL     1       5.450   4.554  15.074  0.00  0.00    +0.000 A 
ATOM     28  C   UNL     1       5.530   5.935  15.241  0.00  0.00    +0.000 A 
ATOM     29  C   UNL     1       5.246   6.505  16.481  0.00  0.00    +0.000 A 
ATOM     30  C   UNL     1       4.892   5.687  17.561  0.00  0.00    +0.000 A 
ENDBRANCH  24  25
ENDBRANCH  23  24
ENDBRANCH  20  23
ENDBRANCH  19  20
ENDBRANCH  17  19
ENDBRANCH  16  17
ENDBRANCH   1  16
TORSDOF 13
ENDMDL
