MODEL 1
REMARK VINA RESULT:      -7.5      0.000      0.000
REMARK  Name = 
REMARK  2 active torsions:
REMARK  status: ('A' for Active; 'I' for Inactive)
REMARK    1  A    between atoms: C_11  and  C_13
REMARK    2  A    between atoms: C_16  and  C_17
REMARK                            x       y       z     vdW  Elec       q    Type
REMARK                         _______ _______ _______ _____ _____    ______ ____
ROOT
ATOM      1  N   UNL     1       3.640   1.277  18.258  0.00  0.00    +0.000 N 
ATOM      2  C   UNL     1       3.003   2.431  18.723  0.00  0.00    +0.000 A 
ATOM      3  C   UNL     1       3.533   3.678  18.443  0.00  0.00    +0.000 A 
ATOM      4  C   UNL     1       2.909   4.815  18.961  0.00  0.00    +0.000 A 
ATOM      5  C   UNL     1       1.791   4.632  19.775  0.00  0.00    +0.000 A 
ATOM      6  N   UNL     1       1.291   3.403  20.020  0.00  0.00    +0.000 NA
ATOM      7  N   UNL     1       1.909   2.298  19.494  0.00  0.00    +0.000 NA
ATOM      8  C   UNL     1       1.074   5.801  20.404  0.00  0.00    +0.000 C 
ATOM      9  C   UNL     1       1.999   7.010  20.460  0.00  0.00    +0.000 C 
ATOM     10  N   UNL     1       2.569   7.235  19.132  0.00  0.00    +0.000 N 
ATOM     11  C   UNL     1       2.226   8.253  18.243  0.00  0.00    +0.000 C 
ATOM     12  O   UNL     1       2.856   8.421  17.198  0.00  0.00    +0.000 OA
ATOM     13  C   UNL     1       3.476   6.187  18.692  0.00  0.00    +0.000 C 
ATOM     14  H   UNL     1       3.810   1.311  17.260  0.00  0.00    +0.000 HD
ATOM     15  H   UNL     1       3.066   0.479  18.520  0.00  0.00    +0.000 HD
ENDROOT
BRANCH  11  16
ATOM     16  C   UNL     1       1.098   9.144  18.570  0.00  0.00    +0.000 A 
ATOM     17  C   UNL     1       1.032   9.845  19.760  0.00  0.00    +0.000 A 
ATOM     18  S   UNL     1      -0.398  10.778  19.830  0.00  0.00    +0.000 S 
ATOM     19  C   UNL     1      -0.838  10.228  18.261  0.00  0.00    +0.000 A 
ATOM     20  N   UNL     1       0.033   9.407  17.704  0.00  0.00    +0.000 NA
BRANCH  19  21
ATOM     21  C   UNL     1      -2.065  10.593  17.586  0.00  0.00    +0.000 A 
ATOM     22  C   UNL     1      -2.417  10.250  16.289  0.00  0.00    +0.000 A 
ATOM     23  C   UNL     1      -3.703  10.739  15.911  0.00  0.00    +0.000 A 
ATOM     24  C   UNL     1      -4.298  11.449  16.927  0.00  0.00    +0.000 A 
ATOM     25  S   UNL     1      -3.312  11.523  18.318  0.00  0.00    +0.000 S 
ENDBRANCH  19  21
ENDBRANCH  11  16
TORSDOF 2
ENDMDL
MODEL 2
REMARK VINA RESULT:      -7.3      2.220      2.910
REMARK  Name = 
REMARK  2 active torsions:
REMARK  status: ('A' for Active; 'I' for Inactive)
REMARK    1  A    between atoms: C_11  and  C_13
REMARK    2  A    between atoms: C_16  and  C_17
REMARK                            x       y       z     vdW  Elec       q    Type
REMARK                         _______ _______ _______ _____ _____    ______ ____
ROOT
ATOM      1  N   UNL     1       4.052   0.792  18.053  0.00  0.00    +0.000 N 
ATOM      2  C   UNL     1       3.376   1.921  18.522  0.00  0.00    +0.000 A 
ATOM      3  C   UNL     1       3.964   3.170  18.436  0.00  0.00    +0.000 A 
ATOM      4  C   UNL     1       3.292   4.278  18.957  0.00  0.00    +0.000 A 
ATOM      5  C   UNL     1       2.063   4.061  19.580  0.00  0.00    +0.000 A 
ATOM      6  N   UNL     1       1.509   2.833  19.639  0.00  0.00    +0.000 NA
ATOM      7  N   UNL     1       2.177   1.758  19.111  0.00  0.00    +0.000 NA
ATOM      8  C   UNL     1       1.284   5.193  20.201  0.00  0.00    +0.000 C 
ATOM      9  C   UNL     1       2.212   6.364  20.499  0.00  0.00    +0.000 C 
ATOM     10  N   UNL     1       2.977   6.684  19.294  0.00  0.00    +0.000 N 
ATOM     11  C   UNL     1       2.788   7.785  18.460  0.00  0.00    +0.000 C 
ATOM     12  O   UNL     1       3.568   8.022  17.537  0.00  0.00    +0.000 OA
ATOM     13  C   UNL     1       3.918   5.649  18.898  0.00  0.00    +0.000 C 
ATOM     14  H   UNL     1       4.368   0.907  17.098  0.00  0.00    +0.000 HD
ATOM     15  H   UNL     1       3.430  -0.007  18.156  0.00  0.00    +0.000 HD
ENDROOT
BRANCH  11  16
ATOM     16  C   UNL     1       1.641   8.680  18.698  0.00  0.00    +0.000 A 
ATOM     17  C   UNL     1       0.878   9.193  17.665  0.00  0.00    +0.000 A 
ATOM     18  S   UNL     1      -0.366  10.192  18.275  0.00  0.00    +0.000 S 
ATOM     19  C   UNL     1       0.153   9.864  19.881  0.00  0.00    +0.000 A 
ATOM     20  N   UNL     1       1.185   9.046  19.967  0.00  0.00    +0.000 NA
BRANCH  19  21
ATOM     21  C   UNL     1      -0.452  10.439  21.064  0.00  0.00    +0.000 A 
ATOM     22  C   UNL     1      -0.469   9.872  22.330  0.00  0.00    +0.000 A 
ATOM     23  C   UNL     1      -1.122  10.690  23.299  0.00  0.00    +0.000 A 
ATOM     24  C   UNL     1      -1.594  11.858  22.748  0.00  0.00    +0.000 A 
ATOM     25  S   UNL     1      -1.251  11.961  21.079  0.00  0.00    +0.000 S 
ENDBRANCH  19  21
ENDBRANCH  11  16
TORSDOF 2
ENDMDL
MODEL 3
REMARK VINA RESULT:      -7.2      0.898      1.114
REMARK  Name = 
REMARK  2 active torsions:
REMARK  status: ('A' for Active; 'I' for Inactive)
REMARK    1  A    between atoms: C_11  and  C_13
REMARK    2  A    between atoms: C_16  and  C_17
REMARK                            x       y       z     vdW  Elec       q    Type
REMARK                         _______ _______ _______ _____ _____    ______ ____
ROOT
ATOM      1  N   UNL     1       2.852   1.604  18.641  0.00  0.00    +0.000 N 
ATOM      2  C   UNL     1       2.355   2.838  19.070  0.00  0.00    +0.000 A 
ATOM      3  C   UNL     1       2.943   4.013  18.638  0.00  0.00    +0.000 A 
ATOM      4  C   UNL     1       2.464   5.233  19.119  0.00  0.00    +0.000 A 
ATOM      5  C   UNL     1       1.428   5.203  20.053  0.00  0.00    +0.000 A 
ATOM      6  N   UNL     1       0.866   4.042  20.446  0.00  0.00    +0.000 NA
ATOM      7  N   UNL     1       1.342   2.854  19.955  0.00  0.00    +0.000 NA
ATOM      8  C   UNL     1       0.870   6.471  20.651  0.00  0.00    +0.000 C 
ATOM      9  C   UNL     1       1.883   7.601  20.515  0.00  0.00    +0.000 C 
ATOM     10  N   UNL     1       2.325   7.679  19.123  0.00  0.00    +0.000 N 
ATOM     11  C   UNL     1       1.966   8.653  18.192  0.00  0.00    +0.000 C 
ATOM     12  O   UNL     1       2.493   8.690  17.079  0.00  0.00    +0.000 OA
ATOM     13  C   UNL     1       3.100   6.530  18.683  0.00  0.00    +0.000 C 
ATOM     14  H   UNL     1       2.918   1.551  17.632  0.00  0.00    +0.000 HD
ATOM     15  H   UNL     1       2.251   0.878  19.024  0.00  0.00    +0.000 HD
ENDROOT
BRANCH  11  16
ATOM     16  C   UNL     1       0.949   9.655  18.555  0.00  0.00    +0.000 A 
ATOM     17  C   UNL     1       1.146  10.575  19.569  0.00  0.00    +0.000 A 
ATOM     18  S   UNL     1      -0.220  11.587  19.738  0.00  0.00    +0.000 S 
ATOM     19  C   UNL     1      -0.989  10.773  18.432  0.00  0.00    +0.000 A 
ATOM     20  N   UNL     1      -0.269   9.810  17.887  0.00  0.00    +0.000 NA
BRANCH  19  21
ATOM     21  C   UNL     1      -2.323  11.075  17.959  0.00  0.00    +0.000 A 
ATOM     22  C   UNL     1      -3.364  11.584  18.722  0.00  0.00    +0.000 A 
ATOM     23  C   UNL     1      -4.555  11.800  17.968  0.00  0.00    +0.000 A 
ATOM     24  C   UNL     1      -4.397  11.443  16.649  0.00  0.00    +0.000 A 
ATOM     25  S   UNL     1      -2.827  10.855  16.331  0.00  0.00    +0.000 S 
ENDBRANCH  19  21
ENDBRANCH  11  16
TORSDOF 2
ENDMDL
MODEL 4
REMARK VINA RESULT:      -7.1      3.515      7.797
REMARK  Name = 
REMARK  2 active torsions:
REMARK  status: ('A' for Active; 'I' for Inactive)
REMARK    1  A    between atoms: C_11  and  C_13
REMARK    2  A    between atoms: C_16  and  C_17
REMARK                            x       y       z     vdW  Elec       q    Type
REMARK                         _______ _______ _______ _____ _____    ______ ____
ROOT
ATOM      1  N   UNL     1      -3.969  12.818  19.306  0.00  0.00    +0.000 N 
ATOM      2  C   UNL     1      -2.978  11.905  18.936  0.00  0.00    +0.000 A 
ATOM      3  C   UNL     1      -1.898  11.674  19.769  0.00  0.00    +0.000 A 
ATOM      4  C   UNL     1      -0.893  10.797  19.357  0.00  0.00    +0.000 A 
ATOM      5  C   UNL     1      -1.011  10.219  18.092  0.00  0.00    +0.000 A 
ATOM      6  N   UNL     1      -2.082  10.455  17.306  0.00  0.00    +0.000 NA
ATOM      7  N   UNL     1      -3.065  11.310  17.733  0.00  0.00    +0.000 NA
ATOM      8  C   UNL     1       0.044   9.286  17.551  0.00  0.00    +0.000 C 
ATOM      9  C   UNL     1       1.361   9.507  18.284  0.00  0.00    +0.000 C 
ATOM     10  N   UNL     1       1.118   9.448  19.726  0.00  0.00    +0.000 N 
ATOM     11  C   UNL     1       1.471   8.408  20.585  0.00  0.00    +0.000 C 
ATOM     12  O   UNL     1       1.325   8.516  21.803  0.00  0.00    +0.000 OA
ATOM     13  C   UNL     1       0.307  10.542  20.234  0.00  0.00    +0.000 C 
ATOM     14  H   UNL     1      -4.341  12.622  20.228  0.00  0.00    +0.000 HD
ATOM     15  H   UNL     1      -4.692  12.797  18.590  0.00  0.00    +0.000 HD
ENDROOT
BRANCH  11  16
ATOM     16  C   UNL     1       2.032   7.168  20.021  0.00  0.00    +0.000 A 
ATOM     17  C   UNL     1       1.806   5.928  20.591  0.00  0.00    +0.000 A 
ATOM     18  S   UNL     1       2.596   4.703  19.701  0.00  0.00    +0.000 S 
ATOM     19  C   UNL     1       3.170   5.879  18.584  0.00  0.00    +0.000 A 
ATOM     20  N   UNL     1       2.786   7.114  18.845  0.00  0.00    +0.000 NA
BRANCH  19  21
ATOM     21  C   UNL     1       4.025   5.578  17.455  0.00  0.00    +0.000 A 
ATOM     22  C   UNL     1       4.664   6.506  16.647  0.00  0.00    +0.000 A 
ATOM     23  C   UNL     1       5.459   5.903  15.626  0.00  0.00    +0.000 A 
ATOM     24  C   UNL     1       5.399   4.530  15.677  0.00  0.00    +0.000 A 
ATOM     25  S   UNL     1       4.395   3.980  16.942  0.00  0.00    +0.000 S 
ENDBRANCH  19  21
ENDBRANCH  11  16
TORSDOF 2
ENDMDL
MODEL 5
REMARK VINA RESULT:      -6.9      3.723      5.067
REMARK  Name = 
REMARK  2 active torsions:
REMARK  status: ('A' for Active; 'I' for Inactive)
REMARK    1  A    between atoms: C_11  and  C_13
REMARK    2  A    between atoms: C_16  and  C_17
REMARK                            x       y       z     vdW  Elec       q    Type
REMARK                         _______ _______ _______ _____ _____    ______ ____
ROOT
ATOM      1  N   UNL     1       4.413   4.567  19.220  0.00  0.00    +0.000 N 
ATOM      2  C   UNL     1       3.777   5.779  18.941  0.00  0.00    +0.000 A 
ATOM      3  C   UNL     1       2.873   6.314  19.840  0.00  0.00    +0.000 A 
ATOM      4  C   UNL     1       2.209   7.500  19.518  0.00  0.00    +0.000 A 
ATOM      5  C   UNL     1       2.467   8.072  18.272  0.00  0.00    +0.000 A 
ATOM      6  N   UNL     1       3.363   7.534  17.420  0.00  0.00    +0.000 NA
ATOM      7  N   UNL     1       4.014   6.375  17.758  0.00  0.00    +0.000 NA
ATOM      8  C   UNL     1       1.771   9.334  17.826  0.00  0.00    +0.000 C 
ATOM      9  C   UNL     1       0.486   9.531  18.622  0.00  0.00    +0.000 C 
ATOM     10  N   UNL     1       0.790   9.425  20.049  0.00  0.00    +0.000 N 
ATOM     11  C   UNL     1       0.845  10.474  20.965  0.00  0.00    +0.000 C 
ATOM     12  O   UNL     1       0.992  10.257  22.168  0.00  0.00    +0.000 OA
ATOM     13  C   UNL     1       1.201   8.095  20.469  0.00  0.00    +0.000 C 
ATOM     14  H   UNL     1       4.865   4.575  20.127  0.00  0.00    +0.000 HD
ATOM     15  H   UNL     1       5.072   4.382  18.467  0.00  0.00    +0.000 HD
ENDROOT
BRANCH  11  16
ATOM     16  C   UNL     1       0.716  11.860  20.481  0.00  0.00    +0.000 A 
ATOM     17  C   UNL     1      -0.450  12.589  20.631  0.00  0.00    +0.000 A 
ATOM     18  S   UNL     1      -0.273  14.151  19.961  0.00  0.00    +0.000 S 
ATOM     19  C   UNL     1       1.354  13.789  19.537  0.00  0.00    +0.000 A 
ATOM     20  N   UNL     1       1.755  12.580  19.884  0.00  0.00    +0.000 NA
BRANCH  19  21
ATOM     21  C   UNL     1       2.233  14.701  18.835  0.00  0.00    +0.000 A 
ATOM     22  C   UNL     1       3.418  14.364  18.199  0.00  0.00    +0.000 A 
ATOM     23  C   UNL     1       4.053  15.478  17.574  0.00  0.00    +0.000 A 
ATOM     24  C   UNL     1       3.339  16.640  17.755  0.00  0.00    +0.000 A 
ATOM     25  S   UNL     1       1.921  16.383  18.670  0.00  0.00    +0.000 S 
ENDBRANCH  19  21
ENDBRANCH  11  16
TORSDOF 2
ENDMDL
MODEL 6
REMARK VINA RESULT:      -6.9      3.838      7.902
REMARK  Name = 
REMARK  2 active torsions:
REMARK  status: ('A' for Active; 'I' for Inactive)
REMARK    1  A    between atoms: C_11  and  C_13
REMARK    2  A    between atoms: C_16  and  C_17
REMARK                            x       y       z     vdW  Elec       q    Type
REMARK                         _______ _______ _______ _____ _____    ______ ____
ROOT
ATOM      1  N   UNL     1      -1.796  11.879  20.875  0.00  0.00    +0.000 N 
ATOM      2  C   UNL     1      -0.946  11.043  20.146  0.00  0.00    +0.000 A 
ATOM      3  C   UNL     1      -0.162  10.108  20.798  0.00  0.00    +0.000 A 
ATOM      4  C   UNL     1       0.718   9.317  20.056  0.00  0.00    +0.000 A 
ATOM      5  C   UNL     1       0.791   9.540  18.681  0.00  0.00    +0.000 A 
ATOM      6  N   UNL     1       0.006  10.452  18.071  0.00  0.00    +0.000 NA
ATOM      7  N   UNL     1      -0.862  11.211  18.814  0.00  0.00    +0.000 NA
ATOM      8  C   UNL     1       1.737   8.757  17.805  0.00  0.00    +0.000 C 
ATOM      9  C   UNL     1       2.860   8.166  18.648  0.00  0.00    +0.000 C 
ATOM     10  N   UNL     1       2.276   7.448  19.781  0.00  0.00    +0.000 N 
ATOM     11  C   UNL     1       2.201   6.064  19.936  0.00  0.00    +0.000 C 
ATOM     12  O   UNL     1       1.796   5.565  20.987  0.00  0.00    +0.000 OA
ATOM     13  C   UNL     1       1.601   8.305  20.742  0.00  0.00    +0.000 C 
ATOM     14  H   UNL     1      -2.407  11.356  21.492  0.00  0.00    +0.000 HD
ATOM     15  H   UNL     1      -2.317  12.446  20.211  0.00  0.00    +0.000 HD
ENDROOT
BRANCH  11  16
ATOM     16  C   UNL     1       2.623   5.192  18.825  0.00  0.00    +0.000 A 
ATOM     17  C   UNL     1       1.881   4.096  18.423  0.00  0.00    +0.000 A 
ATOM     18  S   UNL     1       2.643   3.298  17.119  0.00  0.00    +0.000 S 
ATOM     19  C   UNL     1       3.903   4.469  17.135  0.00  0.00    +0.000 A 
ATOM     20  N   UNL     1       3.763   5.413  18.047  0.00  0.00    +0.000 NA
BRANCH  19  21
ATOM     21  C   UNL     1       5.050   4.440  16.252  0.00  0.00    +0.000 A 
ATOM     22  C   UNL     1       5.060   3.986  14.942  0.00  0.00    +0.000 A 
ATOM     23  C   UNL     1       6.338   4.106  14.319  0.00  0.00    +0.000 A 
ATOM     24  C   UNL     1       7.273   4.643  15.172  0.00  0.00    +0.000 A 
ATOM     25  S   UNL     1       6.613   4.995  16.705  0.00  0.00    +0.000 S 
ENDBRANCH  19  21
ENDBRANCH  11  16
TORSDOF 2
ENDMDL
MODEL 7
REMARK VINA RESULT:      -6.9      6.147      7.860
REMARK  Name = 
REMARK  2 active torsions:
REMARK  status: ('A' for Active; 'I' for Inactive)
REMARK    1  A    between atoms: C_11  and  C_13
REMARK    2  A    between atoms: C_16  and  C_17
REMARK                            x       y       z     vdW  Elec       q    Type
REMARK                         _______ _______ _______ _____ _____    ______ ____
ROOT
ATOM      1  N   UNL     1       1.460   2.223  22.144  0.00  0.00    +0.000 N 
ATOM      2  C   UNL     1       1.892   2.735  20.918  0.00  0.00    +0.000 A 
ATOM      3  C   UNL     1       3.110   3.384  20.825  0.00  0.00    +0.000 A 
ATOM      4  C   UNL     1       3.499   3.934  19.601  0.00  0.00    +0.000 A 
ATOM      5  C   UNL     1       2.611   3.832  18.530  0.00  0.00    +0.000 A 
ATOM      6  N   UNL     1       1.435   3.183  18.648  0.00  0.00    +0.000 NA
ATOM      7  N   UNL     1       1.074   2.639  19.854  0.00  0.00    +0.000 NA
ATOM      8  C   UNL     1       2.933   4.426  17.181  0.00  0.00    +0.000 C 
ATOM      9  C   UNL     1       3.995   5.509  17.328  0.00  0.00    +0.000 C 
ATOM     10  N   UNL     1       5.123   4.969  18.088  0.00  0.00    +0.000 N 
ATOM     11  C   UNL     1       6.371   4.613  17.578  0.00  0.00    +0.000 C 
ATOM     12  O   UNL     1       7.290   4.281  18.329  0.00  0.00    +0.000 OA
ATOM     13  C   UNL     1       4.812   4.667  19.475  0.00  0.00    +0.000 C 
ATOM     14  H   UNL     1       2.153   1.618  22.569  0.00  0.00    +0.000 HD
ATOM     15  H   UNL     1       0.579   1.741  21.985  0.00  0.00    +0.000 HD
ENDROOT
BRANCH  11  16
ATOM     16  C   UNL     1       6.590   4.645  16.121  0.00  0.00    +0.000 A 
ATOM     17  C   UNL     1       7.553   5.446  15.536  0.00  0.00    +0.000 A 
ATOM     18  S   UNL     1       7.547   5.253  13.839  0.00  0.00    +0.000 S 
ATOM     19  C   UNL     1       6.287   4.090  13.972  0.00  0.00    +0.000 A 
ATOM     20  N   UNL     1       5.898   3.843  15.209  0.00  0.00    +0.000 NA
BRANCH  19  21
ATOM     21  C   UNL     1       5.664   3.434  12.842  0.00  0.00    +0.000 A 
ATOM     22  C   UNL     1       4.420   3.735  12.308  0.00  0.00    +0.000 A 
ATOM     23  C   UNL     1       4.088   2.929  11.179  0.00  0.00    +0.000 A 
ATOM     24  C   UNL     1       5.084   2.028  10.883  0.00  0.00    +0.000 A 
ATOM     25  S   UNL     1       6.402   2.157  11.959  0.00  0.00    +0.000 S 
ENDBRANCH  19  21
ENDBRANCH  11  16
TORSDOF 2
ENDMDL
MODEL 8
REMARK VINA RESULT:      -6.8      3.492      8.115
REMARK  Name = 
REMARK  2 active torsions:
REMARK  status: ('A' for Active; 'I' for Inactive)
REMARK    1  A    between atoms: C_11  and  C_13
REMARK    2  A    between atoms: C_16  and  C_17
REMARK                            x       y       z     vdW  Elec       q    Type
REMARK                         _______ _______ _______ _____ _____    ______ ____
ROOT
ATOM      1  N   UNL     1      -3.496  12.592  19.382  0.00  0.00    +0.000 N 
ATOM      2  C   UNL     1      -2.512  11.689  18.970  0.00  0.00    +0.000 A 
ATOM      3  C   UNL     1      -1.482  11.346  19.826  0.00  0.00    +0.000 A 
ATOM      4  C   UNL     1      -0.481  10.481  19.376  0.00  0.00    +0.000 A 
ATOM      5  C   UNL     1      -0.552  10.033  18.057  0.00  0.00    +0.000 A 
ATOM      6  N   UNL     1      -1.576  10.376  17.250  0.00  0.00    +0.000 NA
ATOM      7  N   UNL     1      -2.557  11.216  17.712  0.00  0.00    +0.000 NA
ATOM      8  C   UNL     1       0.503   9.124  17.476  0.00  0.00    +0.000 C 
ATOM      9  C   UNL     1       1.788   9.231  18.288  0.00  0.00    +0.000 C 
ATOM     10  N   UNL     1       1.473   9.041  19.704  0.00  0.00    +0.000 N 
ATOM     11  C   UNL     1       1.756   7.912  20.472  0.00  0.00    +0.000 C 
ATOM     12  O   UNL     1       1.554   7.907  21.687  0.00  0.00    +0.000 OA
ATOM     13  C   UNL     1       0.668  10.106  20.279  0.00  0.00    +0.000 C 
ATOM     14  H   UNL     1      -3.918  12.320  20.262  0.00  0.00    +0.000 HD
ATOM     15  H   UNL     1      -4.183  12.664  18.635  0.00  0.00    +0.000 HD
ENDROOT
BRANCH  11  16
ATOM     16  C   UNL     1       2.311   6.716  19.815  0.00  0.00    +0.000 A 
ATOM     17  C   UNL     1       1.592   5.540  19.692  0.00  0.00    +0.000 A 
ATOM     18  S   UNL     1       2.518   4.350  18.889  0.00  0.00    +0.000 S 
ATOM     19  C   UNL     1       3.814   5.469  18.717  0.00  0.00    +0.000 A 
ATOM     20  N   UNL     1       3.572   6.667  19.213  0.00  0.00    +0.000 NA
BRANCH  19  21
ATOM     21  C   UNL     1       5.086   5.150  18.105  0.00  0.00    +0.000 A 
ATOM     22  C   UNL     1       6.332   5.277  18.700  0.00  0.00    +0.000 A 
ATOM     23  C   UNL     1       7.401   4.861  17.852  0.00  0.00    +0.000 A 
ATOM     24  C   UNL     1       6.945   4.434  16.627  0.00  0.00    +0.000 A 
ATOM     25  S   UNL     1       5.246   4.536  16.508  0.00  0.00    +0.000 S 
ENDBRANCH  19  21
ENDBRANCH  11  16
TORSDOF 2
ENDMDL
MODEL 9
REMARK VINA RESULT:      -6.7      2.062      2.999
REMARK  Name = 
REMARK  2 active torsions:
REMARK  status: ('A' for Active; 'I' for Inactive)
REMARK    1  A    between atoms: C_11  and  C_13
REMARK    2  A    between atoms: C_16  and  C_17
REMARK                            x       y       z     vdW  Elec       q    Type
REMARK                         _______ _______ _______ _____ _____    ______ ____
ROOT
ATOM      1  N   UNL     1       3.964   1.909  17.996  0.00  0.00    +0.000 N 
ATOM      2  C   UNL     1       3.278   3.005  18.525  0.00  0.00    +0.000 A 
ATOM      3  C   UNL     1       3.676   4.292  18.213  0.00  0.00    +0.000 A 
ATOM      4  C   UNL     1       3.008   5.372  18.794  0.00  0.00    +0.000 A 
ATOM      5  C   UNL     1       1.986   5.095  19.701  0.00  0.00    +0.000 A 
ATOM      6  N   UNL     1       1.612   3.828  19.976  0.00  0.00    +0.000 NA
ATOM      7  N   UNL     1       2.271   2.780  19.388  0.00  0.00    +0.000 NA
ATOM      8  C   UNL     1       1.233   6.198  20.401  0.00  0.00    +0.000 C 
ATOM      9  C   UNL     1       2.056   7.481  20.388  0.00  0.00    +0.000 C 
ATOM     10  N   UNL     1       2.487   7.755  19.017  0.00  0.00    +0.000 N 
ATOM     11  C   UNL     1       1.984   8.744  18.172  0.00  0.00    +0.000 C 
ATOM     12  O   UNL     1       2.504   8.965  17.078  0.00  0.00    +0.000 OA
ATOM     13  C   UNL     1       3.434   6.787  18.490  0.00  0.00    +0.000 C 
ATOM     14  H   UNL     1       4.043   1.960  16.987  0.00  0.00    +0.000 HD
ATOM     15  H   UNL     1       3.483   1.065  18.299  0.00  0.00    +0.000 HD
ENDROOT
BRANCH  11  16
ATOM     16  C   UNL     1       0.820   9.537  18.605  0.00  0.00    +0.000 A 
ATOM     17  C   UNL     1      -0.345   9.603  17.862  0.00  0.00    +0.000 A 
ATOM     18  S   UNL     1      -1.495  10.604  18.635  0.00  0.00    +0.000 S 
ATOM     19  C   UNL     1      -0.397  10.870  19.932  0.00  0.00    +0.000 A 
ATOM     20  N   UNL     1       0.757  10.240  19.811  0.00  0.00    +0.000 NA
BRANCH  19  21
ATOM     21  C   UNL     1      -0.672  11.725  21.067  0.00  0.00    +0.000 A 
ATOM     22  C   UNL     1      -1.247  11.331  22.265  0.00  0.00    +0.000 A 
ATOM     23  C   UNL     1      -1.369  12.398  23.204  0.00  0.00    +0.000 A 
ATOM     24  C   UNL     1      -0.890  13.583  22.695  0.00  0.00    +0.000 A 
ATOM     25  S   UNL     1      -0.302  13.403  21.104  0.00  0.00    +0.000 S 
ENDBRANCH  19  21
ENDBRANCH  11  16
TORSDOF 2
ENDMDL
