MODEL 1
REMARK VINA RESULT:      -7.6      0.000      0.000
REMARK  Name = 
REMARK  13 active torsions:
REMARK  status: ('A' for Active; 'I' for Inactive)
REMARK    1  A    between atoms: C_1  and  C_2
REMARK    2  A    between atoms: C_2  and  C_3
REMARK    3  A    between atoms: C_2  and  C_4
REMARK    4  A    between atoms: C_2  and  C_5
REMARK    5  A    between atoms: C_8  and  C_9
REMARK    6  A    between atoms: C_9  and  S_10
REMARK    7  A    between atoms: S_10  and  C_11
REMARK    8  A    between atoms: C_16  and  C_18
REMARK    9  A    between atoms: N_21  and  C_22
REMARK   10  A    between atoms: C_22  and  C_23
REMARK   11  A    between atoms: C_23  and  C_24
REMARK   12  A    between atoms: C_24  and  C_25
REMARK   13  A    between atoms: N_27  and  O_28
REMARK                            x       y       z     vdW  Elec       q    Type
REMARK                         _______ _______ _______ _____ _____    ______ ____
ROOT
ATOM      1  C   UNL     1       0.410  10.786  21.219  0.00  0.00    +0.000 A 
ATOM      2  C   UNL     1       0.751  10.442  19.924  0.00  0.00    +0.000 A 
ATOM      3  N   UNL     1       1.111   9.127  19.717  0.00  0.00    +0.000 NA
ATOM      4  C   UNL     1       1.009   8.472  20.842  0.00  0.00    +0.000 A 
ATOM      5  N   UNL     1       1.293   7.152  21.084  0.00  0.00    +0.000 N 
ATOM      6  C   UNL     1       2.019   6.386  20.183  0.00  0.00    +0.000 C 
ATOM      7  O   UNL     1       2.533   6.791  19.151  0.00  0.00    +0.000 OA
ATOM      8  S   UNL     1       0.428   9.365  22.185  0.00  0.00    +0.000 S 
ATOM      9  H   UNL     1       1.018   6.789  21.984  0.00  0.00    +0.000 HD
ENDROOT
BRANCH   6  10
ATOM     10  C   UNL     1       2.135   4.908  20.592  0.00  0.00    +0.000 C 
ATOM     11  C   UNL     1       3.574   4.401  20.560  0.00  0.00    +0.000 C 
ATOM     12  C   UNL     1       4.074   4.220  19.130  0.00  0.00    +0.000 C 
ATOM     13  N   UNL     1       3.258   3.252  18.390  0.00  0.00    +0.000 NA
ATOM     14  C   UNL     1       1.841   3.667  18.353  0.00  0.00    +0.000 C 
ATOM     15  C   UNL     1       1.257   3.977  19.739  0.00  0.00    +0.000 C 
BRANCH  13  16
ATOM     16  C   UNL     1       3.755   3.089  17.007  0.00  0.00    +0.000 C 
BRANCH  16  17
ATOM     17  C   UNL     1       4.474   4.322  16.443  0.00  0.00    +0.000 C 
BRANCH  17  18
ATOM     18  C   UNL     1       5.809   3.983  15.782  0.00  0.00    +0.000 C 
BRANCH  18  19
ATOM     19  C   UNL     1       6.927   4.827  16.349  0.00  0.00    +0.000 C 
ATOM     20  O   UNL     1       7.941   4.377  16.879  0.00  0.00    +0.000 OA
ATOM     21  N   UNL     1       6.723   6.178  16.223  0.00  0.00    +0.000 N 
ATOM     22  H   UNL     1       5.950   6.613  15.733  0.00  0.00    +0.000 HD
BRANCH  21  23
ATOM     23  O   UNL     1       7.758   7.013  16.695  0.00  0.00    +0.000 OA
ATOM     24  H   UNL     1       7.404   7.308  17.565  0.00  0.00    +0.000 HD
ENDBRANCH  21  23
ENDBRANCH  18  19
ENDBRANCH  17  18
ENDBRANCH  16  17
ENDBRANCH  13  16
ENDBRANCH   6  10
BRANCH   1  25
ATOM     25  S   UNL     1      -0.057  12.406  21.707  0.00  0.00    +0.000 S 
BRANCH  25  26
ATOM     26  C   UNL     1       0.397  13.491  20.334  0.00  0.00    +0.000 C 
BRANCH  26  30
ATOM     27  C   UNL     1       3.566  14.913  19.473  0.00  0.00    +0.000 A 
ATOM     28  C   UNL     1       3.829  14.416  20.731  0.00  0.00    +0.000 A 
ATOM     29  N   UNL     1       2.719  13.811  21.250  0.00  0.00    +0.000 NA
ATOM     30  C   UNL     1       1.816  13.932  20.296  0.00  0.00    +0.000 A 
ATOM     31  O   UNL     1       2.258  14.605  19.184  0.00  0.00    +0.000 OA
BRANCH  27  33
ATOM     32  C   UNL     1       3.483  16.075  17.284  0.00  0.00    +0.000 C 
ATOM     33  C   UNL     1       4.394  15.627  18.439  0.00  0.00    +0.000 C 
ATOM     34  C   UNL     1       5.475  14.680  17.878  0.00  0.00    +0.000 C 
ATOM     35  C   UNL     1       5.100  16.858  19.032  0.00  0.00    +0.000 C 
ENDBRANCH  27  33
ENDBRANCH  26  30
ENDBRANCH  25  26
ENDBRANCH   1  25
TORSDOF 10
ENDMDL
MODEL 2
REMARK VINA RESULT:      -7.5      3.986      6.069
REMARK  Name = 
REMARK  13 active torsions:
REMARK  status: ('A' for Active; 'I' for Inactive)
REMARK    1  A    between atoms: C_1  and  C_2
REMARK    2  A    between atoms: C_2  and  C_3
REMARK    3  A    between atoms: C_2  and  C_4
REMARK    4  A    between atoms: C_2  and  C_5
REMARK    5  A    between atoms: C_8  and  C_9
REMARK    6  A    between atoms: C_9  and  S_10
REMARK    7  A    between atoms: S_10  and  C_11
REMARK    8  A    between atoms: C_16  and  C_18
REMARK    9  A    between atoms: N_21  and  C_22
REMARK   10  A    between atoms: C_22  and  C_23
REMARK   11  A    between atoms: C_23  and  C_24
REMARK   12  A    between atoms: C_24  and  C_25
REMARK   13  A    between atoms: N_27  and  O_28
REMARK                            x       y       z     vdW  Elec       q    Type
REMARK                         _______ _______ _______ _____ _____    ______ ____
ROOT
ATOM      1  C   UNL     1       0.747   9.620  19.690  0.00  0.00    +0.000 A 
ATOM      2  C   UNL     1       1.116   8.641  20.593  0.00  0.00    +0.000 A 
ATOM      3  N   UNL     1       1.985   7.678  20.126  0.00  0.00    +0.000 NA
ATOM      4  C   UNL     1       2.298   7.945  18.887  0.00  0.00    +0.000 A 
ATOM      5  N   UNL     1       3.111   7.231  18.043  0.00  0.00    +0.000 N 
ATOM      6  C   UNL     1       3.497   5.930  18.332  0.00  0.00    +0.000 C 
ATOM      7  O   UNL     1       3.120   5.267  19.287  0.00  0.00    +0.000 OA
ATOM      8  S   UNL     1       1.626   9.381  18.233  0.00  0.00    +0.000 S 
ATOM      9  H   UNL     1       3.347   7.670  17.167  0.00  0.00    +0.000 HD
ENDROOT
BRANCH   6  10
ATOM     10  C   UNL     1       4.492   5.348  17.314  0.00  0.00    +0.000 C 
ATOM     11  C   UNL     1       5.627   4.575  17.979  0.00  0.00    +0.000 C 
ATOM     12  C   UNL     1       6.617   5.509  18.667  0.00  0.00    +0.000 C 
ATOM     13  N   UNL     1       7.230   6.443  17.716  0.00  0.00    +0.000 NA
ATOM     14  C   UNL     1       6.203   7.253  17.029  0.00  0.00    +0.000 C 
ATOM     15  C   UNL     1       5.092   6.415  16.382  0.00  0.00    +0.000 C 
BRANCH  13  16
ATOM     16  C   UNL     1       8.185   7.342  18.399  0.00  0.00    +0.000 C 
BRANCH  16  17
ATOM     17  C   UNL     1       8.075   8.815  17.983  0.00  0.00    +0.000 C 
BRANCH  17  18
ATOM     18  C   UNL     1       8.991   9.732  18.792  0.00  0.00    +0.000 C 
BRANCH  18  19
ATOM     19  C   UNL     1       9.131  11.084  18.132  0.00  0.00    +0.000 C 
ATOM     20  O   UNL     1      10.174  11.733  18.084  0.00  0.00    +0.000 OA
ATOM     21  N   UNL     1       7.970  11.549  17.568  0.00  0.00    +0.000 N 
ATOM     22  H   UNL     1       7.099  11.035  17.505  0.00  0.00    +0.000 HD
BRANCH  21  23
ATOM     23  O   UNL     1       8.054  12.788  16.897  0.00  0.00    +0.000 OA
ATOM     24  H   UNL     1       8.702  12.592  16.182  0.00  0.00    +0.000 HD
ENDBRANCH  21  23
ENDBRANCH  18  19
ENDBRANCH  17  18
ENDBRANCH  16  17
ENDBRANCH  13  16
ENDBRANCH   6  10
BRANCH   1  25
ATOM     25  S   UNL     1      -0.362  10.927  20.067  0.00  0.00    +0.000 S 
BRANCH  25  26
ATOM     26  C   UNL     1      -0.370  11.069  21.870  0.00  0.00    +0.000 C 
BRANCH  26  30
ATOM     27  C   UNL     1      -2.883  13.201  23.266  0.00  0.00    +0.000 A 
ATOM     28  C   UNL     1      -1.796  14.046  23.248  0.00  0.00    +0.000 A 
ATOM     29  N   UNL     1      -0.702  13.411  22.731  0.00  0.00    +0.000 NA
ATOM     30  C   UNL     1      -1.148  12.207  22.428  0.00  0.00    +0.000 A 
ATOM     31  O   UNL     1      -2.470  12.001  22.737  0.00  0.00    +0.000 OA
BRANCH  27  33
ATOM     32  C   UNL     1      -4.556  14.804  24.149  0.00  0.00    +0.000 C 
ATOM     33  C   UNL     1      -4.321  13.358  23.682  0.00  0.00    +0.000 C 
ATOM     34  C   UNL     1      -4.643  12.403  24.849  0.00  0.00    +0.000 C 
ATOM     35  C   UNL     1      -5.282  13.038  22.524  0.00  0.00    +0.000 C 
ENDBRANCH  27  33
ENDBRANCH  26  30
ENDBRANCH  25  26
ENDBRANCH   1  25
TORSDOF 10
ENDMDL
MODEL 3
REMARK VINA RESULT:      -7.5      4.131      5.752
REMARK  Name = 
REMARK  13 active torsions:
REMARK  status: ('A' for Active; 'I' for Inactive)
REMARK    1  A    between atoms: C_1  and  C_2
REMARK    2  A    between atoms: C_2  and  C_3
REMARK    3  A    between atoms: C_2  and  C_4
REMARK    4  A    between atoms: C_2  and  C_5
REMARK    5  A    between atoms: C_8  and  C_9
REMARK    6  A    between atoms: C_9  and  S_10
REMARK    7  A    between atoms: S_10  and  C_11
REMARK    8  A    between atoms: C_16  and  C_18
REMARK    9  A    between atoms: N_21  and  C_22
REMARK   10  A    between atoms: C_22  and  C_23
REMARK   11  A    between atoms: C_23  and  C_24
REMARK   12  A    between atoms: C_24  and  C_25
REMARK   13  A    between atoms: N_27  and  O_28
REMARK                            x       y       z     vdW  Elec       q    Type
REMARK                         _______ _______ _______ _____ _____    ______ ____
ROOT
ATOM      1  C   UNL     1       1.201   9.405  18.957  0.00  0.00    +0.000 A 
ATOM      2  C   UNL     1       1.077   8.845  20.214  0.00  0.00    +0.000 A 
ATOM      3  N   UNL     1       1.738   7.652  20.418  0.00  0.00    +0.000 NA
ATOM      4  C   UNL     1       2.385   7.328  19.332  0.00  0.00    +0.000 A 
ATOM      5  N   UNL     1       3.147   6.211  19.098  0.00  0.00    +0.000 N 
ATOM      6  C   UNL     1       3.093   5.105  19.934  0.00  0.00    +0.000 C 
ATOM      7  O   UNL     1       2.343   4.967  20.890  0.00  0.00    +0.000 OA
ATOM      8  S   UNL     1       2.293   8.448  18.037  0.00  0.00    +0.000 S 
ATOM      9  H   UNL     1       3.687   6.203  18.247  0.00  0.00    +0.000 HD
ENDROOT
BRANCH   6  10
ATOM     10  C   UNL     1       4.100   4.005  19.559  0.00  0.00    +0.000 C 
ATOM     11  C   UNL     1       5.492   4.559  19.267  0.00  0.00    +0.000 C 
ATOM     12  C   UNL     1       5.536   5.291  17.930  0.00  0.00    +0.000 C 
ATOM     13  N   UNL     1       5.181   4.405  16.816  0.00  0.00    +0.000 NA
ATOM     14  C   UNL     1       3.834   3.829  17.003  0.00  0.00    +0.000 C 
ATOM     15  C   UNL     1       3.640   3.150  18.366  0.00  0.00    +0.000 C 
BRANCH  13  16
ATOM     16  C   UNL     1       5.228   5.130  15.528  0.00  0.00    +0.000 C 
BRANCH  16  17
ATOM     17  C   UNL     1       6.157   4.503  14.481  0.00  0.00    +0.000 C 
BRANCH  17  18
ATOM     18  C   UNL     1       5.415   4.032  13.231  0.00  0.00    +0.000 C 
BRANCH  18  19
ATOM     19  C   UNL     1       6.366   3.414  12.233  0.00  0.00    +0.000 C 
ATOM     20  O   UNL     1       7.286   4.014  11.680  0.00  0.00    +0.000 OA
ATOM     21  N   UNL     1       6.122   2.088  11.980  0.00  0.00    +0.000 N 
ATOM     22  H   UNL     1       5.432   1.516  12.454  0.00  0.00    +0.000 HD
BRANCH  21  23
ATOM     23  O   UNL     1       7.009   1.447  11.088  0.00  0.00    +0.000 OA
ATOM     24  H   UNL     1       7.426   0.767  11.665  0.00  0.00    +0.000 HD
ENDBRANCH  21  23
ENDBRANCH  18  19
ENDBRANCH  17  18
ENDBRANCH  16  17
ENDBRANCH  13  16
ENDBRANCH   6  10
BRANCH   1  25
ATOM     25  S   UNL     1       0.429  10.905  18.477  0.00  0.00    +0.000 S 
BRANCH  25  26
ATOM     26  C   UNL     1      -1.292  10.487  18.115  0.00  0.00    +0.000 C 
BRANCH  26  30
ATOM     27  C   UNL     1      -4.323  11.970  19.307  0.00  0.00    +0.000 A 
ATOM     28  C   UNL     1      -3.391  12.576  20.122  0.00  0.00    +0.000 A 
ATOM     29  N   UNL     1      -2.133  12.140  19.817  0.00  0.00    +0.000 NA
ATOM     30  C   UNL     1      -2.320  11.299  18.818  0.00  0.00    +0.000 A 
ATOM     31  O   UNL     1      -3.635  11.135  18.459  0.00  0.00    +0.000 OA
BRANCH  27  33
ATOM     32  C   UNL     1      -6.476  11.788  20.525  0.00  0.00    +0.000 C 
ATOM     33  C   UNL     1      -5.817  12.083  19.167  0.00  0.00    +0.000 C 
ATOM     34  C   UNL     1      -6.332  11.060  18.134  0.00  0.00    +0.000 C 
ATOM     35  C   UNL     1      -6.235  13.487  18.697  0.00  0.00    +0.000 C 
ENDBRANCH  27  33
ENDBRANCH  26  30
ENDBRANCH  25  26
ENDBRANCH   1  25
TORSDOF 10
ENDMDL
MODEL 4
REMARK VINA RESULT:      -7.4      2.994      4.516
REMARK  Name = 
REMARK  13 active torsions:
REMARK  status: ('A' for Active; 'I' for Inactive)
REMARK    1  A    between atoms: C_1  and  C_2
REMARK    2  A    between atoms: C_2  and  C_3
REMARK    3  A    between atoms: C_2  and  C_4
REMARK    4  A    between atoms: C_2  and  C_5
REMARK    5  A    between atoms: C_8  and  C_9
REMARK    6  A    between atoms: C_9  and  S_10
REMARK    7  A    between atoms: S_10  and  C_11
REMARK    8  A    between atoms: C_16  and  C_18
REMARK    9  A    between atoms: N_21  and  C_22
REMARK   10  A    between atoms: C_22  and  C_23
REMARK   11  A    between atoms: C_23  and  C_24
REMARK   12  A    between atoms: C_24  and  C_25
REMARK   13  A    between atoms: N_27  and  O_28
REMARK                            x       y       z     vdW  Elec       q    Type
REMARK                         _______ _______ _______ _____ _____    ______ ____
ROOT
ATOM      1  C   UNL     1       0.753  11.631  20.086  0.00  0.00    +0.000 A 
ATOM      2  C   UNL     1       1.100  11.181  18.826  0.00  0.00    +0.000 A 
ATOM      3  N   UNL     1       1.443   9.849  18.728  0.00  0.00    +0.000 NA
ATOM      4  C   UNL     1       1.324   9.287  19.900  0.00  0.00    +0.000 A 
ATOM      5  N   UNL     1       1.588   7.987  20.250  0.00  0.00    +0.000 N 
ATOM      6  C   UNL     1       2.311   7.143  19.420  0.00  0.00    +0.000 C 
ATOM      7  O   UNL     1       2.839   7.457  18.363  0.00  0.00    +0.000 OA
ATOM      8  S   UNL     1       0.743  10.292  21.162  0.00  0.00    +0.000 S 
ATOM      9  H   UNL     1       1.300   7.701  21.173  0.00  0.00    +0.000 HD
ENDROOT
BRANCH   6  10
ATOM     10  C   UNL     1       2.403   5.700  19.946  0.00  0.00    +0.000 C 
ATOM     11  C   UNL     1       3.835   5.174  19.967  0.00  0.00    +0.000 C 
ATOM     12  C   UNL     1       4.345   4.873  18.561  0.00  0.00    +0.000 C 
ATOM     13  N   UNL     1       3.522   3.859  17.893  0.00  0.00    +0.000 NA
ATOM     14  C   UNL     1       2.111   4.289  17.811  0.00  0.00    +0.000 C 
ATOM     15  C   UNL     1       1.519   4.716  19.161  0.00  0.00    +0.000 C 
BRANCH  13  16
ATOM     16  C   UNL     1       4.028   3.581  16.532  0.00  0.00    +0.000 C 
BRANCH  16  17
ATOM     17  C   UNL     1       5.497   3.966  16.312  0.00  0.00    +0.000 C 
BRANCH  17  18
ATOM     18  C   UNL     1       5.834   4.211  14.842  0.00  0.00    +0.000 C 
BRANCH  18  19
ATOM     19  C   UNL     1       7.067   5.074  14.702  0.00  0.00    +0.000 C 
ATOM     20  O   UNL     1       7.648   5.619  15.638  0.00  0.00    +0.000 OA
ATOM     21  N   UNL     1       7.507   5.208  13.409  0.00  0.00    +0.000 N 
ATOM     22  H   UNL     1       7.122   4.729  12.604  0.00  0.00    +0.000 HD
BRANCH  21  23
ATOM     23  O   UNL     1       8.682   5.968  13.225  0.00  0.00    +0.000 OA
ATOM     24  H   UNL     1       8.540   6.353  12.330  0.00  0.00    +0.000 HD
ENDBRANCH  21  23
ENDBRANCH  18  19
ENDBRANCH  17  18
ENDBRANCH  16  17
ENDBRANCH  13  16
ENDBRANCH   6  10
BRANCH   1  25
ATOM     25  S   UNL     1       0.303  13.290  20.439  0.00  0.00    +0.000 S 
BRANCH  25  26
ATOM     26  C   UNL     1      -1.291  13.206  21.286  0.00  0.00    +0.000 C 
BRANCH  26  30
ATOM     27  C   UNL     1      -3.443  11.810  18.790  0.00  0.00    +0.000 A 
ATOM     28  C   UNL     1      -4.363  12.339  19.670  0.00  0.00    +0.000 A 
ATOM     29  N   UNL     1      -3.730  12.940  20.721  0.00  0.00    +0.000 NA
ATOM     30  C   UNL     1      -2.448  12.784  20.452  0.00  0.00    +0.000 A 
ATOM     31  O   UNL     1      -2.195  12.093  19.293  0.00  0.00    +0.000 OA
BRANCH  27  33
ATOM     32  C   UNL     1      -4.822  11.556  16.744  0.00  0.00    +0.000 C 
ATOM     33  C   UNL     1      -3.553  11.086  17.476  0.00  0.00    +0.000 C 
ATOM     34  C   UNL     1      -3.655   9.566  17.715  0.00  0.00    +0.000 C 
ATOM     35  C   UNL     1      -2.329  11.348  16.582  0.00  0.00    +0.000 C 
ENDBRANCH  27  33
ENDBRANCH  26  30
ENDBRANCH  25  26
ENDBRANCH   1  25
TORSDOF 10
ENDMDL
MODEL 5
REMARK VINA RESULT:      -7.4      3.843      5.588
REMARK  Name = 
REMARK  13 active torsions:
REMARK  status: ('A' for Active; 'I' for Inactive)
REMARK    1  A    between atoms: C_1  and  C_2
REMARK    2  A    between atoms: C_2  and  C_3
REMARK    3  A    between atoms: C_2  and  C_4
REMARK    4  A    between atoms: C_2  and  C_5
REMARK    5  A    between atoms: C_8  and  C_9
REMARK    6  A    between atoms: C_9  and  S_10
REMARK    7  A    between atoms: S_10  and  C_11
REMARK    8  A    between atoms: C_16  and  C_18
REMARK    9  A    between atoms: N_21  and  C_22
REMARK   10  A    between atoms: C_22  and  C_23
REMARK   11  A    between atoms: C_23  and  C_24
REMARK   12  A    between atoms: C_24  and  C_25
REMARK   13  A    between atoms: N_27  and  O_28
REMARK                            x       y       z     vdW  Elec       q    Type
REMARK                         _______ _______ _______ _____ _____    ______ ____
ROOT
ATOM      1  C   UNL     1       0.663   9.586  20.434  0.00  0.00    +0.000 A 
ATOM      2  C   UNL     1       1.032   9.557  19.103  0.00  0.00    +0.000 A 
ATOM      3  N   UNL     1       1.813   8.490  18.711  0.00  0.00    +0.000 NA
ATOM      4  C   UNL     1       2.004   7.699  19.731  0.00  0.00    +0.000 A 
ATOM      5  N   UNL     1       2.740   6.541  19.783  0.00  0.00    +0.000 N 
ATOM      6  C   UNL     1       3.637   6.204  18.779  0.00  0.00    +0.000 C 
ATOM      7  O   UNL     1       3.924   6.896  17.813  0.00  0.00    +0.000 OA
ATOM      8  S   UNL     1       1.221   8.147  21.189  0.00  0.00    +0.000 S 
ATOM      9  H   UNL     1       2.654   5.990  20.622  0.00  0.00    +0.000 HD
ENDROOT
BRANCH   6  10
ATOM     10  C   UNL     1       4.279   4.820  18.974  0.00  0.00    +0.000 C 
ATOM     11  C   UNL     1       5.800   4.886  19.071  0.00  0.00    +0.000 C 
ATOM     12  C   UNL     1       6.437   5.178  17.716  0.00  0.00    +0.000 C 
ATOM     13  N   UNL     1       6.111   4.142  16.730  0.00  0.00    +0.000 NA
ATOM     14  C   UNL     1       4.650   4.013  16.556  0.00  0.00    +0.000 C 
ATOM     15  C   UNL     1       3.889   3.817  17.874  0.00  0.00    +0.000 C 
BRANCH  13  16
ATOM     16  C   UNL     1       6.735   4.441  15.423  0.00  0.00    +0.000 C 
BRANCH  16  17
ATOM     17  C   UNL     1       5.755   4.941  14.354  0.00  0.00    +0.000 C 
BRANCH  17  18
ATOM     18  C   UNL     1       5.314   3.841  13.389  0.00  0.00    +0.000 C 
BRANCH  18  19
ATOM     19  C   UNL     1       6.416   3.496  12.415  0.00  0.00    +0.000 C 
ATOM     20  O   UNL     1       7.279   4.282  12.029  0.00  0.00    +0.000 OA
ATOM     21  N   UNL     1       6.383   2.195  11.978  0.00  0.00    +0.000 N 
ATOM     22  H   UNL     1       5.749   1.478  12.311  0.00  0.00    +0.000 HD
BRANCH  21  23
ATOM     23  O   UNL     1       7.417   1.805  11.099  0.00  0.00    +0.000 OA
ATOM     24  H   UNL     1       6.924   1.309  10.408  0.00  0.00    +0.000 HD
ENDBRANCH  21  23
ENDBRANCH  18  19
ENDBRANCH  17  18
ENDBRANCH  16  17
ENDBRANCH  13  16
ENDBRANCH   6  10
BRANCH   1  25
ATOM     25  S   UNL     1      -0.310  10.860  21.149  0.00  0.00    +0.000 S 
BRANCH  25  26
ATOM     26  C   UNL     1      -0.904  11.867  19.770  0.00  0.00    +0.000 C 
BRANCH  26  30
ATOM     27  C   UNL     1      -4.426  12.451  19.521  0.00  0.00    +0.000 A 
ATOM     28  C   UNL     1      -4.065  13.392  20.461  0.00  0.00    +0.000 A 
ATOM     29  N   UNL     1      -2.721  13.338  20.702  0.00  0.00    +0.000 NA
ATOM     30  C   UNL     1      -2.291  12.387  19.896  0.00  0.00    +0.000 A 
ATOM     31  O   UNL     1      -3.278  11.791  19.150  0.00  0.00    +0.000 OA
BRANCH  27  33
ATOM     32  C   UNL     1      -6.485  13.370  18.488  0.00  0.00    +0.000 C 
ATOM     33  C   UNL     1      -5.726  12.084  18.858  0.00  0.00    +0.000 C 
ATOM     34  C   UNL     1      -6.598  11.256  19.824  0.00  0.00    +0.000 C 
ATOM     35  C   UNL     1      -5.496  11.249  17.587  0.00  0.00    +0.000 C 
ENDBRANCH  27  33
ENDBRANCH  26  30
ENDBRANCH  25  26
ENDBRANCH   1  25
TORSDOF 10
ENDMDL
MODEL 6
REMARK VINA RESULT:      -7.4      3.440      4.916
REMARK  Name = 
REMARK  13 active torsions:
REMARK  status: ('A' for Active; 'I' for Inactive)
REMARK    1  A    between atoms: C_1  and  C_2
REMARK    2  A    between atoms: C_2  and  C_3
REMARK    3  A    between atoms: C_2  and  C_4
REMARK    4  A    between atoms: C_2  and  C_5
REMARK    5  A    between atoms: C_8  and  C_9
REMARK    6  A    between atoms: C_9  and  S_10
REMARK    7  A    between atoms: S_10  and  C_11
REMARK    8  A    between atoms: C_16  and  C_18
REMARK    9  A    between atoms: N_21  and  C_22
REMARK   10  A    between atoms: C_22  and  C_23
REMARK   11  A    between atoms: C_23  and  C_24
REMARK   12  A    between atoms: C_24  and  C_25
REMARK   13  A    between atoms: N_27  and  O_28
REMARK                            x       y       z     vdW  Elec       q    Type
REMARK                         _______ _______ _______ _____ _____    ______ ____
ROOT
ATOM      1  C   UNL     1       1.547   9.596  19.375  0.00  0.00    +0.000 A 
ATOM      2  C   UNL     1       1.299   8.934  20.562  0.00  0.00    +0.000 A 
ATOM      3  N   UNL     1       1.510   7.571  20.555  0.00  0.00    +0.000 NA
ATOM      4  C   UNL     1       1.948   7.210  19.380  0.00  0.00    +0.000 A 
ATOM      5  N   UNL     1       2.259   5.947  18.940  0.00  0.00    +0.000 N 
ATOM      6  C   UNL     1       1.863   4.816  19.638  0.00  0.00    +0.000 C 
ATOM      7  O   UNL     1       1.161   4.801  20.639  0.00  0.00    +0.000 OA
ATOM      8  S   UNL     1       2.188   8.472  18.245  0.00  0.00    +0.000 S 
ATOM      9  H   UNL     1       2.718   5.883  18.045  0.00  0.00    +0.000 HD
ENDROOT
BRANCH   6  10
ATOM     10  C   UNL     1       2.402   3.507  19.037  0.00  0.00    +0.000 C 
ATOM     11  C   UNL     1       3.622   2.976  19.784  0.00  0.00    +0.000 C 
ATOM     12  C   UNL     1       4.864   3.816  19.502  0.00  0.00    +0.000 C 
ATOM     13  N   UNL     1       5.200   3.820  18.074  0.00  0.00    +0.000 NA
ATOM     14  C   UNL     1       4.078   4.337  17.265  0.00  0.00    +0.000 C 
ATOM     15  C   UNL     1       2.745   3.629  17.542  0.00  0.00    +0.000 C 
BRANCH  13  16
ATOM     16  C   UNL     1       6.405   4.639  17.818  0.00  0.00    +0.000 C 
BRANCH  16  17
ATOM     17  C   UNL     1       7.120   4.318  16.499  0.00  0.00    +0.000 C 
BRANCH  17  18
ATOM     18  C   UNL     1       6.930   5.401  15.439  0.00  0.00    +0.000 C 
BRANCH  18  19
ATOM     19  C   UNL     1       7.023   4.823  14.046  0.00  0.00    +0.000 C 
ATOM     20  O   UNL     1       7.659   5.326  13.122  0.00  0.00    +0.000 OA
ATOM     21  N   UNL     1       6.323   3.654  13.882  0.00  0.00    +0.000 N 
ATOM     22  H   UNL     1       5.842   3.148  14.616  0.00  0.00    +0.000 HD
BRANCH  21  23
ATOM     23  O   UNL     1       6.411   3.046  12.611  0.00  0.00    +0.000 OA
ATOM     24  H   UNL     1       6.721   3.790  12.047  0.00  0.00    +0.000 HD
ENDBRANCH  21  23
ENDBRANCH  18  19
ENDBRANCH  17  18
ENDBRANCH  16  17
ENDBRANCH  13  16
ENDBRANCH   6  10
BRANCH   1  25
ATOM     25  S   UNL     1       1.325  11.323  19.157  0.00  0.00    +0.000 S 
BRANCH  25  26
ATOM     26  C   UNL     1       0.070  11.820  20.360  0.00  0.00    +0.000 C 
BRANCH  26  30
ATOM     27  C   UNL     1      -2.979  11.528  18.508  0.00  0.00    +0.000 A 
ATOM     28  C   UNL     1      -3.371  12.355  19.538  0.00  0.00    +0.000 A 
ATOM     29  N   UNL     1      -2.323  12.602  20.380  0.00  0.00    +0.000 NA
ATOM     30  C   UNL     1      -1.317  11.943  19.838  0.00  0.00    +0.000 A 
ATOM     31  O   UNL     1      -1.645  11.254  18.697  0.00  0.00    +0.000 OA
BRANCH  27  33
ATOM     32  C   UNL     1      -2.750  11.083  16.079  0.00  0.00    +0.000 C 
ATOM     33  C   UNL     1      -3.677  10.963  17.300  0.00  0.00    +0.000 C 
ATOM     34  C   UNL     1      -4.972  11.753  17.018  0.00  0.00    +0.000 C 
ATOM     35  C   UNL     1      -4.054   9.486  17.505  0.00  0.00    +0.000 C 
ENDBRANCH  27  33
ENDBRANCH  26  30
ENDBRANCH  25  26
ENDBRANCH   1  25
TORSDOF 10
ENDMDL
MODEL 7
REMARK VINA RESULT:      -7.3      3.857      5.262
REMARK  Name = 
REMARK  13 active torsions:
REMARK  status: ('A' for Active; 'I' for Inactive)
REMARK    1  A    between atoms: C_1  and  C_2
REMARK    2  A    between atoms: C_2  and  C_3
REMARK    3  A    between atoms: C_2  and  C_4
REMARK    4  A    between atoms: C_2  and  C_5
REMARK    5  A    between atoms: C_8  and  C_9
REMARK    6  A    between atoms: C_9  and  S_10
REMARK    7  A    between atoms: S_10  and  C_11
REMARK    8  A    between atoms: C_16  and  C_18
REMARK    9  A    between atoms: N_21  and  C_22
REMARK   10  A    between atoms: C_22  and  C_23
REMARK   11  A    between atoms: C_23  and  C_24
REMARK   12  A    between atoms: C_24  and  C_25
REMARK   13  A    between atoms: N_27  and  O_28
REMARK                            x       y       z     vdW  Elec       q    Type
REMARK                         _______ _______ _______ _____ _____    ______ ____
ROOT
ATOM      1  C   UNL     1       1.260   9.135  19.456  0.00  0.00    +0.000 A 
ATOM      2  C   UNL     1       1.284   8.569  20.716  0.00  0.00    +0.000 A 
ATOM      3  N   UNL     1       1.616   7.233  20.778  0.00  0.00    +0.000 NA
ATOM      4  C   UNL     1       1.875   6.798  19.575  0.00  0.00    +0.000 A 
ATOM      5  N   UNL     1       2.219   5.527  19.186  0.00  0.00    +0.000 N 
ATOM      6  C   UNL     1       2.058   4.439  20.031  0.00  0.00    +0.000 C 
ATOM      7  O   UNL     1       1.545   4.464  21.141  0.00  0.00    +0.000 OA
ATOM      8  S   UNL     1       1.795   7.963  18.319  0.00  0.00    +0.000 S 
ATOM      9  H   UNL     1       2.520   5.415  18.231  0.00  0.00    +0.000 HD
ENDROOT
BRANCH   6  10
ATOM     10  C   UNL     1       2.603   3.125  19.446  0.00  0.00    +0.000 C 
ATOM     11  C   UNL     1       4.108   2.973  19.647  0.00  0.00    +0.000 C 
ATOM     12  C   UNL     1       4.894   3.905  18.730  0.00  0.00    +0.000 C 
ATOM     13  N   UNL     1       4.617   3.633  17.315  0.00  0.00    +0.000 NA
ATOM     14  C   UNL     1       3.177   3.771  17.019  0.00  0.00    +0.000 C 
ATOM     15  C   UNL     1       2.276   2.951  17.953  0.00  0.00    +0.000 C 
BRANCH  13  16
ATOM     16  C   UNL     1       5.385   4.545  16.441  0.00  0.00    +0.000 C 
BRANCH  16  17
ATOM     17  C   UNL     1       6.839   4.766  16.879  0.00  0.00    +0.000 C 
BRANCH  17  18
ATOM     18  C   UNL     1       7.168   6.237  17.130  0.00  0.00    +0.000 C 
BRANCH  18  19
ATOM     19  C   UNL     1       7.812   6.429  18.484  0.00  0.00    +0.000 C 
ATOM     20  O   UNL     1       8.420   7.438  18.832  0.00  0.00    +0.000 OA
ATOM     21  N   UNL     1       7.660   5.357  19.328  0.00  0.00    +0.000 N 
ATOM     22  H   UNL     1       7.110   4.528  19.134  0.00  0.00    +0.000 HD
BRANCH  21  23
ATOM     23  O   UNL     1       8.204   5.499  20.623  0.00  0.00    +0.000 OA
ATOM     24  H   UNL     1       7.410   5.382  21.193  0.00  0.00    +0.000 HD
ENDBRANCH  21  23
ENDBRANCH  18  19
ENDBRANCH  17  18
ENDBRANCH  16  17
ENDBRANCH  13  16
ENDBRANCH   6  10
BRANCH   1  25
ATOM     25  S   UNL     1       0.844  10.812  19.147  0.00  0.00    +0.000 S 
BRANCH  25  26
ATOM     26  C   UNL     1      -0.747  10.781  18.289  0.00  0.00    +0.000 C 
BRANCH  26  30
ATOM     27  C   UNL     1      -3.912  12.058  19.368  0.00  0.00    +0.000 A 
ATOM     28  C   UNL     1      -3.048  12.772  20.171  0.00  0.00    +0.000 A 
ATOM     29  N   UNL     1      -1.752  12.428  19.905  0.00  0.00    +0.000 NA
ATOM     30  C   UNL     1      -1.851  11.535  18.941  0.00  0.00    +0.000 A 
ATOM     31  O   UNL     1      -3.141  11.249  18.567  0.00  0.00    +0.000 OA
BRANCH  27  33
ATOM     32  C   UNL     1      -5.858  13.374  18.577  0.00  0.00    +0.000 C 
ATOM     33  C   UNL     1      -5.407  12.043  19.199  0.00  0.00    +0.000 C 
ATOM     34  C   UNL     1      -6.094  11.879  20.570  0.00  0.00    +0.000 C 
ATOM     35  C   UNL     1      -5.861  10.883  18.296  0.00  0.00    +0.000 C 
ENDBRANCH  27  33
ENDBRANCH  26  30
ENDBRANCH  25  26
ENDBRANCH   1  25
TORSDOF 10
ENDMDL
MODEL 8
REMARK VINA RESULT:      -7.3      4.488     10.031
REMARK  Name = 
REMARK  13 active torsions:
REMARK  status: ('A' for Active; 'I' for Inactive)
REMARK    1  A    between atoms: C_1  and  C_2
REMARK    2  A    between atoms: C_2  and  C_3
REMARK    3  A    between atoms: C_2  and  C_4
REMARK    4  A    between atoms: C_2  and  C_5
REMARK    5  A    between atoms: C_8  and  C_9
REMARK    6  A    between atoms: C_9  and  S_10
REMARK    7  A    between atoms: S_10  and  C_11
REMARK    8  A    between atoms: C_16  and  C_18
REMARK    9  A    between atoms: N_21  and  C_22
REMARK   10  A    between atoms: C_22  and  C_23
REMARK   11  A    between atoms: C_23  and  C_24
REMARK   12  A    between atoms: C_24  and  C_25
REMARK   13  A    between atoms: N_27  and  O_28
REMARK                            x       y       z     vdW  Elec       q    Type
REMARK                         _______ _______ _______ _____ _____    ______ ____
ROOT
ATOM      1  C   UNL     1       3.635   5.534  17.684  0.00  0.00    +0.000 A 
ATOM      2  C   UNL     1       4.092   6.703  17.106  0.00  0.00    +0.000 A 
ATOM      3  N   UNL     1       3.498   7.870  17.539  0.00  0.00    +0.000 NA
ATOM      4  C   UNL     1       2.621   7.589  18.464  0.00  0.00    +0.000 A 
ATOM      5  N   UNL     1       1.793   8.449  19.141  0.00  0.00    +0.000 N 
ATOM      6  C   UNL     1       1.586   9.750  18.707  0.00  0.00    +0.000 C 
ATOM      7  O   UNL     1       2.031  10.242  17.680  0.00  0.00    +0.000 OA
ATOM      8  S   UNL     1       2.497   5.937  18.908  0.00  0.00    +0.000 S 
ATOM      9  H   UNL     1       1.284   8.064  19.921  0.00  0.00    +0.000 HD
ENDROOT
BRANCH   6  10
ATOM     10  C   UNL     1       0.712  10.580  19.662  0.00  0.00    +0.000 C 
ATOM     11  C   UNL     1      -0.630   9.916  19.958  0.00  0.00    +0.000 C 
ATOM     12  C   UNL     1      -1.571   9.991  18.759  0.00  0.00    +0.000 C 
ATOM     13  N   UNL     1      -1.851  11.380  18.379  0.00  0.00    +0.000 NA
ATOM     14  C   UNL     1      -0.606  12.106  18.057  0.00  0.00    +0.000 C 
ATOM     15  C   UNL     1       0.461  12.012  19.157  0.00  0.00    +0.000 C 
BRANCH  13  16
ATOM     16  C   UNL     1      -2.763  11.436  17.216  0.00  0.00    +0.000 C 
BRANCH  16  17
ATOM     17  C   UNL     1      -3.073  10.070  16.589  0.00  0.00    +0.000 C 
BRANCH  17  18
ATOM     18  C   UNL     1      -2.315   9.828  15.285  0.00  0.00    +0.000 C 
BRANCH  18  19
ATOM     19  C   UNL     1      -3.253   9.830  14.100  0.00  0.00    +0.000 C 
ATOM     20  O   UNL     1      -4.470   9.985  14.173  0.00  0.00    +0.000 OA
ATOM     21  N   UNL     1      -2.625   9.642  12.894  0.00  0.00    +0.000 N 
ATOM     22  H   UNL     1      -1.623   9.583  12.755  0.00  0.00    +0.000 HD
BRANCH  21  23
ATOM     23  O   UNL     1      -3.449   9.679  11.748  0.00  0.00    +0.000 OA
ATOM     24  H   UNL     1      -3.586   8.723  11.562  0.00  0.00    +0.000 HD
ENDBRANCH  21  23
ENDBRANCH  18  19
ENDBRANCH  17  18
ENDBRANCH  16  17
ENDBRANCH  13  16
ENDBRANCH   6  10
BRANCH   1  25
ATOM     25  S   UNL     1       4.236   3.939  17.266  0.00  0.00    +0.000 S 
BRANCH  25  26
ATOM     26  C   UNL     1       6.023   4.118  17.063  0.00  0.00    +0.000 C 
BRANCH  26  30
ATOM     27  C   UNL     1       6.512   4.110  13.517  0.00  0.00    +0.000 A 
ATOM     28  C   UNL     1       7.434   5.054  13.911  0.00  0.00    +0.000 A 
ATOM     29  N   UNL     1       7.413   5.208  15.269  0.00  0.00    +0.000 NA
ATOM     30  C   UNL     1       6.499   4.347  15.672  0.00  0.00    +0.000 A 
ATOM     31  O   UNL     1       5.897   3.647  14.656  0.00  0.00    +0.000 OA
BRANCH  27  33
ATOM     32  C   UNL     1       6.898   4.241  11.071  0.00  0.00    +0.000 C 
ATOM     33  C   UNL     1       6.127   3.518  12.188  0.00  0.00    +0.000 C 
ATOM     34  C   UNL     1       4.615   3.702  11.944  0.00  0.00    +0.000 C 
ATOM     35  C   UNL     1       6.441   2.014  12.127  0.00  0.00    +0.000 C 
ENDBRANCH  27  33
ENDBRANCH  26  30
ENDBRANCH  25  26
ENDBRANCH   1  25
TORSDOF 10
ENDMDL
MODEL 9
REMARK VINA RESULT:      -7.3      3.886      5.902
REMARK  Name = 
REMARK  13 active torsions:
REMARK  status: ('A' for Active; 'I' for Inactive)
REMARK    1  A    between atoms: C_1  and  C_2
REMARK    2  A    between atoms: C_2  and  C_3
REMARK    3  A    between atoms: C_2  and  C_4
REMARK    4  A    between atoms: C_2  and  C_5
REMARK    5  A    between atoms: C_8  and  C_9
REMARK    6  A    between atoms: C_9  and  S_10
REMARK    7  A    between atoms: S_10  and  C_11
REMARK    8  A    between atoms: C_16  and  C_18
REMARK    9  A    between atoms: N_21  and  C_22
REMARK   10  A    between atoms: C_22  and  C_23
REMARK   11  A    between atoms: C_23  and  C_24
REMARK   12  A    between atoms: C_24  and  C_25
REMARK   13  A    between atoms: N_27  and  O_28
REMARK                            x       y       z     vdW  Elec       q    Type
REMARK                         _______ _______ _______ _____ _____    ______ ____
ROOT
ATOM      1  C   UNL     1       0.830  10.036  19.299  0.00  0.00    +0.000 A 
ATOM      2  C   UNL     1       1.077   9.114  20.298  0.00  0.00    +0.000 A 
ATOM      3  N   UNL     1       1.885   8.050  19.958  0.00  0.00    +0.000 NA
ATOM      4  C   UNL     1       2.275   8.184  18.720  0.00  0.00    +0.000 A 
ATOM      5  N   UNL     1       3.065   7.339  17.981  0.00  0.00    +0.000 N 
ATOM      6  C   UNL     1       3.332   6.043  18.397  0.00  0.00    +0.000 C 
ATOM      7  O   UNL     1       2.859   5.496  19.382  0.00  0.00    +0.000 OA
ATOM      8  S   UNL     1       1.752   9.605  17.915  0.00  0.00    +0.000 S 
ATOM      9  H   UNL     1       3.376   7.682  17.085  0.00  0.00    +0.000 HD
ENDROOT
BRANCH   6  10
ATOM     10  C   UNL     1       4.322   5.300  17.484  0.00  0.00    +0.000 C 
ATOM     11  C   UNL     1       5.387   4.541  18.269  0.00  0.00    +0.000 C 
ATOM     12  C   UNL     1       6.409   5.487  18.891  0.00  0.00    +0.000 C 
ATOM     13  N   UNL     1       7.106   6.278  17.870  0.00  0.00    +0.000 NA
ATOM     14  C   UNL     1       6.151   7.065  17.064  0.00  0.00    +0.000 C 
ATOM     15  C   UNL     1       5.013   6.225  16.467  0.00  0.00    +0.000 C 
BRANCH  13  16
ATOM     16  C   UNL     1       8.090   7.190  18.490  0.00  0.00    +0.000 C 
BRANCH  16  17
ATOM     17  C   UNL     1       8.088   8.612  17.912  0.00  0.00    +0.000 C 
BRANCH  17  18
ATOM     18  C   UNL     1       8.916   9.593  18.740  0.00  0.00    +0.000 C 
BRANCH  18  19
ATOM     19  C   UNL     1       9.110  10.899  18.004  0.00  0.00    +0.000 C 
ATOM     20  O   UNL     1      10.203  11.376  17.705  0.00  0.00    +0.000 OA
ATOM     21  N   UNL     1       7.938  11.534  17.680  0.00  0.00    +0.000 N 
ATOM     22  H   UNL     1       7.007  11.162  17.828  0.00  0.00    +0.000 HD
BRANCH  21  23
ATOM     23  O   UNL     1       8.059  12.737  16.951  0.00  0.00    +0.000 OA
ATOM     24  H   UNL     1       8.305  13.380  17.654  0.00  0.00    +0.000 HD
ENDBRANCH  21  23
ENDBRANCH  18  19
ENDBRANCH  17  18
ENDBRANCH  16  17
ENDBRANCH  13  16
ENDBRANCH   6  10
BRANCH   1  25
ATOM     25  S   UNL     1      -0.186  11.451  19.509  0.00  0.00    +0.000 S 
BRANCH  25  26
ATOM     26  C   UNL     1      -0.001  11.947  21.237  0.00  0.00    +0.000 C 
BRANCH  26  30
ATOM     27  C   UNL     1      -3.305  12.751  22.354  0.00  0.00    +0.000 A 
ATOM     28  C   UNL     1      -2.845  11.990  23.407  0.00  0.00    +0.000 A 
ATOM     29  N   UNL     1      -1.562  11.578  23.177  0.00  0.00    +0.000 NA
ATOM     30  C   UNL     1      -1.263  12.107  22.007  0.00  0.00    +0.000 A 
ATOM     31  O   UNL     1      -2.283  12.829  21.437  0.00  0.00    +0.000 OA
BRANCH  27  33
ATOM     32  C   UNL     1      -4.324  14.614  21.074  0.00  0.00    +0.000 C 
ATOM     33  C   UNL     1      -4.592  13.480  22.077  0.00  0.00    +0.000 C 
ATOM     34  C   UNL     1      -5.145  14.092  23.380  0.00  0.00    +0.000 C 
ATOM     35  C   UNL     1      -5.662  12.537  21.501  0.00  0.00    +0.000 C 
ENDBRANCH  27  33
ENDBRANCH  26  30
ENDBRANCH  25  26
ENDBRANCH   1  25
TORSDOF 10
ENDMDL
