MODEL 1
REMARK VINA RESULT:      -5.7      0.000      0.000
REMARK  Name = 
REMARK  9 active torsions:
REMARK  status: ('A' for Active; 'I' for Inactive)
REMARK    1  A    between atoms: C_1  and  C_2
REMARK    2  A    between atoms: C_2  and  O_3
REMARK    3  A    between atoms: O_3  and  C_4
REMARK    4  A    between atoms: C_9  and  O_10
REMARK    5  A    between atoms: O_10  and  C_11
REMARK    6  A    between atoms: C_11  and  C_12
REMARK    7  A    between atoms: C_13  and  C_14
REMARK    8  A    between atoms: C_14  and  N_15
REMARK    9  A    between atoms: N_15  and  C_16
REMARK                            x       y       z     vdW  Elec       q    Type
REMARK                         _______ _______ _______ _____ _____    ______ ____
ROOT
ATOM      1  C   UNL     1       6.580   5.706  16.602  0.00  0.00    +0.000 A 
ATOM      2  C   UNL     1       7.484   6.626  17.153  0.00  0.00    +0.000 A 
ATOM      3  C   UNL     1       7.789   6.607  18.510  0.00  0.00    +0.000 A 
ATOM      4  C   UNL     1       7.174   5.680  19.343  0.00  0.00    +0.000 A 
ATOM      5  C   UNL     1       6.249   4.778  18.812  0.00  0.00    +0.000 A 
ATOM      6  C   UNL     1       5.937   4.780  17.440  0.00  0.00    +0.000 A 
ENDROOT
BRANCH   1   7
ATOM      7  O   UNL     1       6.265   5.736  15.277  0.00  0.00    +0.000 OA
BRANCH   7   9
ATOM      8  C   UNL     1       6.065   3.886  13.645  0.00  0.00    +0.000 C 
ATOM      9  C   UNL     1       6.966   4.869  14.378  0.00  0.00    +0.000 C 
ENDBRANCH   7   9
ENDBRANCH   1   7
BRANCH   6  10
ATOM     10  O   UNL     1       5.017   3.817  17.077  0.00  0.00    +0.000 OA
BRANCH  10  11
ATOM     11  C   UNL     1       3.717   4.272  16.717  0.00  0.00    +0.000 C 
BRANCH  11  12
ATOM     12  C   UNL     1       2.689   3.639  17.548  0.00  0.00    +0.000 C 
ATOM     13  C   UNL     1       1.772   3.090  18.294  0.00  0.00    +0.000 C 
BRANCH  13  14
ATOM     14  C   UNL     1       0.703   2.448  19.164  0.00  0.00    +0.000 C 
BRANCH  14  15
ATOM     15  N   UNL     1       0.809   2.972  20.521  0.00  0.00    +0.000 NA
ATOM     16  C   UNL     1       1.103   4.397  20.500  0.00  0.00    +0.000 C 
ATOM     17  H   UNL     1       1.557   2.474  21.002  0.00  0.00    +0.000 HD
ENDBRANCH  14  15
ENDBRANCH  13  14
ENDBRANCH  11  12
ENDBRANCH  10  11
ENDBRANCH   6  10
TORSDOF 7
ENDMDL
MODEL 2
REMARK VINA RESULT:      -5.7      2.938      5.968
REMARK  Name = 
REMARK  9 active torsions:
REMARK  status: ('A' for Active; 'I' for Inactive)
REMARK    1  A    between atoms: C_1  and  C_2
REMARK    2  A    between atoms: C_2  and  O_3
REMARK    3  A    between atoms: O_3  and  C_4
REMARK    4  A    between atoms: C_9  and  O_10
REMARK    5  A    between atoms: O_10  and  C_11
REMARK    6  A    between atoms: C_11  and  C_12
REMARK    7  A    between atoms: C_13  and  C_14
REMARK    8  A    between atoms: C_14  and  N_15
REMARK    9  A    between atoms: N_15  and  C_16
REMARK                            x       y       z     vdW  Elec       q    Type
REMARK                         _______ _______ _______ _____ _____    ______ ____
ROOT
ATOM      1  C   UNL     1       2.501   4.945  19.866  0.00  0.00    +0.000 A 
ATOM      2  C   UNL     1       2.380   4.649  21.231  0.00  0.00    +0.000 A 
ATOM      3  C   UNL     1       1.790   3.464  21.659  0.00  0.00    +0.000 A 
ATOM      4  C   UNL     1       1.288   2.566  20.725  0.00  0.00    +0.000 A 
ATOM      5  C   UNL     1       1.374   2.863  19.362  0.00  0.00    +0.000 A 
ATOM      6  C   UNL     1       1.976   4.053  18.915  0.00  0.00    +0.000 A 
ENDROOT
BRANCH   1   7
ATOM      7  O   UNL     1       3.061   6.113  19.445  0.00  0.00    +0.000 OA
BRANCH   7   9
ATOM      8  C   UNL     1       2.307   8.083  18.151  0.00  0.00    +0.000 C 
ATOM      9  C   UNL     1       2.268   7.306  19.458  0.00  0.00    +0.000 C 
ENDBRANCH   7   9
ENDBRANCH   1   7
BRANCH   6  10
ATOM     10  O   UNL     1       1.993   4.185  17.541  0.00  0.00    +0.000 OA
BRANCH  10  11
ATOM     11  C   UNL     1       2.935   3.388  16.829  0.00  0.00    +0.000 C 
BRANCH  11  12
ATOM     12  C   UNL     1       4.296   3.902  17.002  0.00  0.00    +0.000 C 
ATOM     13  C   UNL     1       5.511   4.345  17.160  0.00  0.00    +0.000 C 
BRANCH  13  14
ATOM     14  C   UNL     1       6.929   4.863  17.345  0.00  0.00    +0.000 C 
BRANCH  14  15
ATOM     15  N   UNL     1       7.723   4.519  16.172  0.00  0.00    +0.000 NA
ATOM     16  C   UNL     1       7.004   4.845  14.950  0.00  0.00    +0.000 C 
ATOM     17  H   UNL     1       7.922   3.520  16.197  0.00  0.00    +0.000 HD
ENDBRANCH  14  15
ENDBRANCH  13  14
ENDBRANCH  11  12
ENDBRANCH  10  11
ENDBRANCH   6  10
TORSDOF 7
ENDMDL
MODEL 3
REMARK VINA RESULT:      -5.7      3.254      5.906
REMARK  Name = 
REMARK  9 active torsions:
REMARK  status: ('A' for Active; 'I' for Inactive)
REMARK    1  A    between atoms: C_1  and  C_2
REMARK    2  A    between atoms: C_2  and  O_3
REMARK    3  A    between atoms: O_3  and  C_4
REMARK    4  A    between atoms: C_9  and  O_10
REMARK    5  A    between atoms: O_10  and  C_11
REMARK    6  A    between atoms: C_11  and  C_12
REMARK    7  A    between atoms: C_13  and  C_14
REMARK    8  A    between atoms: C_14  and  N_15
REMARK    9  A    between atoms: N_15  and  C_16
REMARK                            x       y       z     vdW  Elec       q    Type
REMARK                         _______ _______ _______ _____ _____    ______ ____
ROOT
ATOM      1  C   UNL     1       4.866   4.953  17.756  0.00  0.00    +0.000 A 
ATOM      2  C   UNL     1       5.343   5.106  19.065  0.00  0.00    +0.000 A 
ATOM      3  C   UNL     1       6.673   5.436  19.310  0.00  0.00    +0.000 A 
ATOM      4  C   UNL     1       7.552   5.594  18.246  0.00  0.00    +0.000 A 
ATOM      5  C   UNL     1       7.096   5.415  16.938  0.00  0.00    +0.000 A 
ATOM      6  C   UNL     1       5.753   5.090  16.675  0.00  0.00    +0.000 A 
ENDROOT
BRANCH   1   7
ATOM      7  O   UNL     1       3.569   4.611  17.515  0.00  0.00    +0.000 OA
BRANCH   7   9
ATOM      8  C   UNL     1       1.393   3.691  18.253  0.00  0.00    +0.000 C 
ATOM      9  C   UNL     1       2.904   3.729  18.427  0.00  0.00    +0.000 C 
ENDBRANCH   7   9
ENDBRANCH   1   7
BRANCH   6  10
ATOM     10  O   UNL     1       5.464   4.963  15.331  0.00  0.00    +0.000 OA
BRANCH  10  11
ATOM     11  C   UNL     1       6.569   4.799  14.448  0.00  0.00    +0.000 C 
BRANCH  11  12
ATOM     12  C   UNL     1       6.249   3.857  13.372  0.00  0.00    +0.000 C 
ATOM     13  C   UNL     1       5.955   3.013  12.424  0.00  0.00    +0.000 C 
BRANCH  13  14
ATOM     14  C   UNL     1       5.613   2.027  11.318  0.00  0.00    +0.000 C 
BRANCH  14  15
ATOM     15  N   UNL     1       6.656   1.011  11.240  0.00  0.00    +0.000 NA
ATOM     16  C   UNL     1       6.080  -0.324  11.303  0.00  0.00    +0.000 C 
ATOM     17  H   UNL     1       7.297   1.145  12.021  0.00  0.00    +0.000 HD
ENDBRANCH  14  15
ENDBRANCH  13  14
ENDBRANCH  11  12
ENDBRANCH  10  11
ENDBRANCH   6  10
TORSDOF 7
ENDMDL
MODEL 4
REMARK VINA RESULT:      -5.6      2.961      6.453
REMARK  Name = 
REMARK  9 active torsions:
REMARK  status: ('A' for Active; 'I' for Inactive)
REMARK    1  A    between atoms: C_1  and  C_2
REMARK    2  A    between atoms: C_2  and  O_3
REMARK    3  A    between atoms: O_3  and  C_4
REMARK    4  A    between atoms: C_9  and  O_10
REMARK    5  A    between atoms: O_10  and  C_11
REMARK    6  A    between atoms: C_11  and  C_12
REMARK    7  A    between atoms: C_13  and  C_14
REMARK    8  A    between atoms: C_14  and  N_15
REMARK    9  A    between atoms: N_15  and  C_16
REMARK                            x       y       z     vdW  Elec       q    Type
REMARK                         _______ _______ _______ _____ _____    ______ ____
ROOT
ATOM      1  C   UNL     1       2.401   4.825  19.554  0.00  0.00    +0.000 A 
ATOM      2  C   UNL     1       1.574   4.246  20.527  0.00  0.00    +0.000 A 
ATOM      3  C   UNL     1       0.900   3.055  20.280  0.00  0.00    +0.000 A 
ATOM      4  C   UNL     1       1.024   2.435  19.042  0.00  0.00    +0.000 A 
ATOM      5  C   UNL     1       1.821   3.017  18.053  0.00  0.00    +0.000 A 
ATOM      6  C   UNL     1       2.515   4.217  18.292  0.00  0.00    +0.000 A 
ENDROOT
BRANCH   1   7
ATOM      7  O   UNL     1       3.046   6.002  19.787  0.00  0.00    +0.000 OA
BRANCH   7   9
ATOM      8  C   UNL     1       1.616   7.879  20.534  0.00  0.00    +0.000 C 
ATOM      9  C   UNL     1       2.409   7.228  19.410  0.00  0.00    +0.000 C 
ENDBRANCH   7   9
ENDBRANCH   1   7
BRANCH   6  10
ATOM     10  O   UNL     1       3.267   4.647  17.217  0.00  0.00    +0.000 OA
BRANCH  10  11
ATOM     11  C   UNL     1       4.551   4.054  17.051  0.00  0.00    +0.000 C 
BRANCH  11  12
ATOM     12  C   UNL     1       5.614   4.976  17.459  0.00  0.00    +0.000 C 
ATOM     13  C   UNL     1       6.558   5.792  17.836  0.00  0.00    +0.000 C 
BRANCH  13  14
ATOM     14  C   UNL     1       7.659   6.745  18.275  0.00  0.00    +0.000 C 
BRANCH  14  15
ATOM     15  N   UNL     1       7.767   7.833  17.311  0.00  0.00    +0.000 NA
ATOM     16  C   UNL     1       8.203   9.058  17.963  0.00  0.00    +0.000 C 
ATOM     17  H   UNL     1       6.853   7.978  16.884  0.00  0.00    +0.000 HD
ENDBRANCH  14  15
ENDBRANCH  13  14
ENDBRANCH  11  12
ENDBRANCH  10  11
ENDBRANCH   6  10
TORSDOF 7
ENDMDL
MODEL 5
REMARK VINA RESULT:      -5.6      3.187      6.355
REMARK  Name = 
REMARK  9 active torsions:
REMARK  status: ('A' for Active; 'I' for Inactive)
REMARK    1  A    between atoms: C_1  and  C_2
REMARK    2  A    between atoms: C_2  and  O_3
REMARK    3  A    between atoms: O_3  and  C_4
REMARK    4  A    between atoms: C_9  and  O_10
REMARK    5  A    between atoms: O_10  and  C_11
REMARK    6  A    between atoms: C_11  and  C_12
REMARK    7  A    between atoms: C_13  and  C_14
REMARK    8  A    between atoms: C_14  and  N_15
REMARK    9  A    between atoms: N_15  and  C_16
REMARK                            x       y       z     vdW  Elec       q    Type
REMARK                         _______ _______ _______ _____ _____    ______ ____
ROOT
ATOM      1  C   UNL     1       2.802   5.010  18.897  0.00  0.00    +0.000 A 
ATOM      2  C   UNL     1       1.785   4.324  19.577  0.00  0.00    +0.000 A 
ATOM      3  C   UNL     1       1.332   3.087  19.132  0.00  0.00    +0.000 A 
ATOM      4  C   UNL     1       1.875   2.526  17.982  0.00  0.00    +0.000 A 
ATOM      5  C   UNL     1       2.867   3.213  17.278  0.00  0.00    +0.000 A 
ATOM      6  C   UNL     1       3.340   4.461  17.721  0.00  0.00    +0.000 A 
ENDROOT
BRANCH   1   7
ATOM      7  O   UNL     1       3.232   6.231  19.321  0.00  0.00    +0.000 OA
BRANCH   7   9
ATOM      8  C   UNL     1       2.626   8.124  17.846  0.00  0.00    +0.000 C 
ATOM      9  C   UNL     1       2.378   7.367  19.142  0.00  0.00    +0.000 C 
ENDBRANCH   7   9
ENDBRANCH   1   7
BRANCH   6  10
ATOM     10  O   UNL     1       4.329   4.997  16.921  0.00  0.00    +0.000 OA
BRANCH  10  11
ATOM     11  C   UNL     1       5.513   4.223  16.756  0.00  0.00    +0.000 C 
BRANCH  11  12
ATOM     12  C   UNL     1       5.845   4.064  15.338  0.00  0.00    +0.000 C 
ATOM     13  C   UNL     1       6.133   3.911  14.076  0.00  0.00    +0.000 C 
BRANCH  13  14
ATOM     14  C   UNL     1       6.468   3.732  12.603  0.00  0.00    +0.000 C 
BRANCH  14  15
ATOM     15  N   UNL     1       5.370   3.041  11.940  0.00  0.00    +0.000 NA
ATOM     16  C   UNL     1       5.813   1.762  11.407  0.00  0.00    +0.000 C 
ATOM     17  H   UNL     1       5.029   3.629  11.181  0.00  0.00    +0.000 HD
ENDBRANCH  14  15
ENDBRANCH  13  14
ENDBRANCH  11  12
ENDBRANCH  10  11
ENDBRANCH   6  10
TORSDOF 7
ENDMDL
MODEL 6
REMARK VINA RESULT:      -5.5      3.092      6.002
REMARK  Name = 
REMARK  9 active torsions:
REMARK  status: ('A' for Active; 'I' for Inactive)
REMARK    1  A    between atoms: C_1  and  C_2
REMARK    2  A    between atoms: C_2  and  O_3
REMARK    3  A    between atoms: O_3  and  C_4
REMARK    4  A    between atoms: C_9  and  O_10
REMARK    5  A    between atoms: O_10  and  C_11
REMARK    6  A    between atoms: C_11  and  C_12
REMARK    7  A    between atoms: C_13  and  C_14
REMARK    8  A    between atoms: C_14  and  N_15
REMARK    9  A    between atoms: N_15  and  C_16
REMARK                            x       y       z     vdW  Elec       q    Type
REMARK                         _______ _______ _______ _____ _____    ______ ____
ROOT
ATOM      1  C   UNL     1       3.424   4.493  17.738  0.00  0.00    +0.000 A 
ATOM      2  C   UNL     1       2.369   5.323  18.142  0.00  0.00    +0.000 A 
ATOM      3  C   UNL     1       2.478   6.708  18.071  0.00  0.00    +0.000 A 
ATOM      4  C   UNL     1       3.657   7.285  17.617  0.00  0.00    +0.000 A 
ATOM      5  C   UNL     1       4.727   6.470  17.241  0.00  0.00    +0.000 A 
ATOM      6  C   UNL     1       4.628   5.068  17.299  0.00  0.00    +0.000 A 
ENDROOT
BRANCH   1   7
ATOM      7  O   UNL     1       3.326   3.137  17.825  0.00  0.00    +0.000 OA
BRANCH   7   9
ATOM      8  C   UNL     1       2.557   2.459  20.078  0.00  0.00    +0.000 C 
ATOM      9  C   UNL     1       3.683   2.494  19.055  0.00  0.00    +0.000 C 
ENDBRANCH   7   9
ENDBRANCH   1   7
BRANCH   6  10
ATOM     10  O   UNL     1       5.768   4.412  16.878  0.00  0.00    +0.000 OA
BRANCH  10  11
ATOM     11  C   UNL     1       6.661   5.144  16.043  0.00  0.00    +0.000 C 
BRANCH  11  12
ATOM     12  C   UNL     1       6.691   4.586  14.689  0.00  0.00    +0.000 C 
ATOM     13  C   UNL     1       6.706   4.096  13.481  0.00  0.00    +0.000 C 
BRANCH  13  14
ATOM     14  C   UNL     1       6.723   3.523  12.073  0.00  0.00    +0.000 C 
BRANCH  14  15
ATOM     15  N   UNL     1       5.666   2.526  11.947  0.00  0.00    +0.000 NA
ATOM     16  C   UNL     1       4.426   3.145  11.502  0.00  0.00    +0.000 C 
ATOM     17  H   UNL     1       5.524   2.089  12.856  0.00  0.00    +0.000 HD
ENDBRANCH  14  15
ENDBRANCH  13  14
ENDBRANCH  11  12
ENDBRANCH  10  11
ENDBRANCH   6  10
TORSDOF 7
ENDMDL
MODEL 7
REMARK VINA RESULT:      -5.5      3.340      6.262
REMARK  Name = 
REMARK  9 active torsions:
REMARK  status: ('A' for Active; 'I' for Inactive)
REMARK    1  A    between atoms: C_1  and  C_2
REMARK    2  A    between atoms: C_2  and  O_3
REMARK    3  A    between atoms: O_3  and  C_4
REMARK    4  A    between atoms: C_9  and  O_10
REMARK    5  A    between atoms: O_10  and  C_11
REMARK    6  A    between atoms: C_11  and  C_12
REMARK    7  A    between atoms: C_13  and  C_14
REMARK    8  A    between atoms: C_14  and  N_15
REMARK    9  A    between atoms: N_15  and  C_16
REMARK                            x       y       z     vdW  Elec       q    Type
REMARK                         _______ _______ _______ _____ _____    ______ ____
ROOT
ATOM      1  C   UNL     1       2.454   5.505  18.858  0.00  0.00    +0.000 A 
ATOM      2  C   UNL     1       1.732   5.445  20.058  0.00  0.00    +0.000 A 
ATOM      3  C   UNL     1       1.307   4.228  20.581  0.00  0.00    +0.000 A 
ATOM      4  C   UNL     1       1.578   3.051  19.895  0.00  0.00    +0.000 A 
ATOM      5  C   UNL     1       2.270   3.098  18.683  0.00  0.00    +0.000 A 
ATOM      6  C   UNL     1       2.713   4.321  18.147  0.00  0.00    +0.000 A 
ENDROOT
BRANCH   1   7
ATOM      7  O   UNL     1       2.854   6.698  18.335  0.00  0.00    +0.000 OA
BRANCH   7   9
ATOM      8  C   UNL     1       1.794   8.869  17.797  0.00  0.00    +0.000 C 
ATOM      9  C   UNL     1       2.297   7.908  18.864  0.00  0.00    +0.000 C 
ENDBRANCH   7   9
ENDBRANCH   1   7
BRANCH   6  10
ATOM     10  O   UNL     1       3.393   4.191  16.952  0.00  0.00    +0.000 OA
BRANCH  10  11
ATOM     11  C   UNL     1       4.783   3.892  17.032  0.00  0.00    +0.000 C 
BRANCH  11  12
ATOM     12  C   UNL     1       5.420   3.994  15.716  0.00  0.00    +0.000 C 
ATOM     13  C   UNL     1       5.985   4.070  14.544  0.00  0.00    +0.000 C 
BRANCH  13  14
ATOM     14  C   UNL     1       6.646   4.159  13.177  0.00  0.00    +0.000 C 
BRANCH  14  15
ATOM     15  N   UNL     1       6.292   2.981  12.395  0.00  0.00    +0.000 NA
ATOM     16  C   UNL     1       4.936   3.094  11.879  0.00  0.00    +0.000 C 
ATOM     17  H   UNL     1       6.363   2.160  12.996  0.00  0.00    +0.000 HD
ENDBRANCH  14  15
ENDBRANCH  13  14
ENDBRANCH  11  12
ENDBRANCH  10  11
ENDBRANCH   6  10
TORSDOF 7
ENDMDL
MODEL 8
REMARK VINA RESULT:      -5.5      1.657      3.116
REMARK  Name = 
REMARK  9 active torsions:
REMARK  status: ('A' for Active; 'I' for Inactive)
REMARK    1  A    between atoms: C_1  and  C_2
REMARK    2  A    between atoms: C_2  and  O_3
REMARK    3  A    between atoms: O_3  and  C_4
REMARK    4  A    between atoms: C_9  and  O_10
REMARK    5  A    between atoms: O_10  and  C_11
REMARK    6  A    between atoms: C_11  and  C_12
REMARK    7  A    between atoms: C_13  and  C_14
REMARK    8  A    between atoms: C_14  and  N_15
REMARK    9  A    between atoms: N_15  and  C_16
REMARK                            x       y       z     vdW  Elec       q    Type
REMARK                         _______ _______ _______ _____ _____    ______ ____
ROOT
ATOM      1  C   UNL     1       6.771   5.845  16.904  0.00  0.00    +0.000 A 
ATOM      2  C   UNL     1       7.417   5.318  15.777  0.00  0.00    +0.000 A 
ATOM      3  C   UNL     1       6.762   4.441  14.919  0.00  0.00    +0.000 A 
ATOM      4  C   UNL     1       5.455   4.057  15.190  0.00  0.00    +0.000 A 
ATOM      5  C   UNL     1       4.809   4.551  16.326  0.00  0.00    +0.000 A 
ATOM      6  C   UNL     1       5.456   5.445  17.198  0.00  0.00    +0.000 A 
ENDROOT
BRANCH   1   7
ATOM      7  O   UNL     1       7.417   6.689  17.756  0.00  0.00    +0.000 OA
BRANCH   7   9
ATOM      8  C   UNL     1       8.460   8.867  18.300  0.00  0.00    +0.000 C 
ATOM      9  C   UNL     1       7.487   8.082  17.432  0.00  0.00    +0.000 C 
ENDBRANCH   7   9
ENDBRANCH   1   7
BRANCH   6  10
ATOM     10  O   UNL     1       4.674   5.848  18.263  0.00  0.00    +0.000 OA
BRANCH  10  11
ATOM     11  C   UNL     1       3.299   6.100  17.992  0.00  0.00    +0.000 C 
BRANCH  11  12
ATOM     12  C   UNL     1       2.454   5.021  18.509  0.00  0.00    +0.000 C 
ATOM     13  C   UNL     1       1.708   4.062  18.981  0.00  0.00    +0.000 C 
BRANCH  13  14
ATOM     14  C   UNL     1       0.839   2.942  19.532  0.00  0.00    +0.000 C 
BRANCH  14  15
ATOM     15  N   UNL     1       0.835   3.009  20.988  0.00  0.00    +0.000 NA
ATOM     16  C   UNL     1       2.164   2.747  21.519  0.00  0.00    +0.000 C 
ATOM     17  H   UNL     1       0.182   2.311  21.341  0.00  0.00    +0.000 HD
ENDBRANCH  14  15
ENDBRANCH  13  14
ENDBRANCH  11  12
ENDBRANCH  10  11
ENDBRANCH   6  10
TORSDOF 7
ENDMDL
MODEL 9
REMARK VINA RESULT:      -5.5      4.524      6.241
REMARK  Name = 
REMARK  9 active torsions:
REMARK  status: ('A' for Active; 'I' for Inactive)
REMARK    1  A    between atoms: C_1  and  C_2
REMARK    2  A    between atoms: C_2  and  O_3
REMARK    3  A    between atoms: O_3  and  C_4
REMARK    4  A    between atoms: C_9  and  O_10
REMARK    5  A    between atoms: O_10  and  C_11
REMARK    6  A    between atoms: C_11  and  C_12
REMARK    7  A    between atoms: C_13  and  C_14
REMARK    8  A    between atoms: C_14  and  N_15
REMARK    9  A    between atoms: N_15  and  C_16
REMARK                            x       y       z     vdW  Elec       q    Type
REMARK                         _______ _______ _______ _____ _____    ______ ____
ROOT
ATOM      1  C   UNL     1       2.585   4.788  18.544  0.00  0.00    +0.000 A 
ATOM      2  C   UNL     1       3.139   3.660  17.923  0.00  0.00    +0.000 A 
ATOM      3  C   UNL     1       4.209   3.778  17.043  0.00  0.00    +0.000 A 
ATOM      4  C   UNL     1       4.727   5.034  16.751  0.00  0.00    +0.000 A 
ATOM      5  C   UNL     1       4.166   6.169  17.339  0.00  0.00    +0.000 A 
ATOM      6  C   UNL     1       3.088   6.064  18.238  0.00  0.00    +0.000 A 
ENDROOT
BRANCH   1   7
ATOM      7  O   UNL     1       1.524   4.676  19.392  0.00  0.00    +0.000 OA
BRANCH   7   9
ATOM      8  C   UNL     1       1.384   2.971  21.180  0.00  0.00    +0.000 C 
ATOM      9  C   UNL     1       1.768   4.386  20.773  0.00  0.00    +0.000 C 
ENDBRANCH   7   9
ENDBRANCH   1   7
BRANCH   6  10
ATOM     10  O   UNL     1       2.662   7.277  18.740  0.00  0.00    +0.000 OA
BRANCH  10  11
ATOM     11  C   UNL     1       2.617   8.371  17.829  0.00  0.00    +0.000 C 
BRANCH  11  12
ATOM     12  C   UNL     1       1.435   9.205  18.065  0.00  0.00    +0.000 C 
ATOM     13  C   UNL     1       0.376   9.935  18.273  0.00  0.00    +0.000 C 
BRANCH  13  14
ATOM     14  C   UNL     1      -0.859  10.788  18.515  0.00  0.00    +0.000 C 
BRANCH  14  15
ATOM     15  N   UNL     1      -1.500  11.078  17.238  0.00  0.00    +0.000 NA
ATOM     16  C   UNL     1      -2.247   9.923  16.763  0.00  0.00    +0.000 C 
ATOM     17  H   UNL     1      -0.778  11.322  16.562  0.00  0.00    +0.000 HD
ENDBRANCH  14  15
ENDBRANCH  13  14
ENDBRANCH  11  12
ENDBRANCH  10  11
ENDBRANCH   6  10
TORSDOF 7
ENDMDL
