MODEL 1
REMARK VINA RESULT:      -8.1      0.000      0.000
REMARK  Name = 
REMARK  4 active torsions:
REMARK  status: ('A' for Active; 'I' for Inactive)
REMARK    1  A    between atoms: C_2  and  C_3
REMARK    2  A    between atoms: C_3  and  O_4
REMARK    3  A    between atoms: O_4  and  C_5
REMARK    4  A    between atoms: C_16  and  C_17
REMARK                            x       y       z     vdW  Elec       q    Type
REMARK                         _______ _______ _______ _____ _____    ______ ____
ROOT
ATOM      1  O   UNL     1       7.718   5.821  18.851  0.00  0.00    +0.000 OA
ATOM      2  C   UNL     1       6.844   5.281  18.162  0.00  0.00    +0.000 C 
ATOM      3  N   UNL     1       5.542   5.434  18.542  0.00  0.00    +0.000 N 
ATOM      4  C   UNL     1       4.417   4.827  18.011  0.00  0.00    +0.000 A 
ATOM      5  N   UNL     1       4.435   3.695  17.309  0.00  0.00    +0.000 NA
ATOM      6  O   UNL     1       3.113   3.386  17.057  0.00  0.00    +0.000 OA
ATOM      7  N   UNL     1       2.268   4.361  17.558  0.00  0.00    +0.000 NA
ATOM      8  C   UNL     1       3.065   5.269  18.138  0.00  0.00    +0.000 A 
ATOM      9  H   UNL     1       5.407   6.059  19.326  0.00  0.00    +0.000 HD
ENDROOT
BRANCH   8  10
ATOM     10  C   UNL     1       2.519   6.497  18.720  0.00  0.00    +0.000 A 
ATOM     11  C   UNL     1       2.109   6.518  20.063  0.00  0.00    +0.000 A 
ATOM     12  C   UNL     1       1.603   7.689  20.638  0.00  0.00    +0.000 A 
ATOM     13  C   UNL     1       1.499   8.850  19.878  0.00  0.00    +0.000 A 
ATOM     14  C   UNL     1       1.867   8.836  18.535  0.00  0.00    +0.000 A 
ATOM     15  C   UNL     1       2.358   7.664  17.955  0.00  0.00    +0.000 A 
ENDBRANCH   8  10
BRANCH   2  16
ATOM     16  C   UNL     1       7.184   4.594  16.841  0.00  0.00    +0.000 C 
BRANCH  16  17
ATOM     17  O   UNL     1       7.367   5.515  15.776  0.00  0.00    +0.000 OA
BRANCH  17  18
ATOM     18  C   UNL     1       7.124   4.982  14.534  0.00  0.00    +0.000 A 
ATOM     19  C   UNL     1       6.072   4.069  14.449  0.00  0.00    +0.000 A 
ATOM     20  C   UNL     1       5.765   3.462  13.229  0.00  0.00    +0.000 A 
ATOM     21  C   UNL     1       6.497   3.778  12.085  0.00  0.00    +0.000 A 
ATOM     22  C   UNL     1       7.522   4.716  12.157  0.00  0.00    +0.000 A 
ATOM     23  C   UNL     1       7.828   5.324  13.377  0.00  0.00    +0.000 A 
ENDBRANCH  17  18
ENDBRANCH  16  17
ENDBRANCH   2  16
TORSDOF 4
ENDMDL
MODEL 2
REMARK VINA RESULT:      -8.1      0.480      1.131
REMARK  Name = 
REMARK  4 active torsions:
REMARK  status: ('A' for Active; 'I' for Inactive)
REMARK    1  A    between atoms: C_2  and  C_3
REMARK    2  A    between atoms: C_3  and  O_4
REMARK    3  A    between atoms: O_4  and  C_5
REMARK    4  A    between atoms: C_16  and  C_17
REMARK                            x       y       z     vdW  Elec       q    Type
REMARK                         _______ _______ _______ _____ _____    ______ ____
ROOT
ATOM      1  O   UNL     1       7.837   6.624  18.277  0.00  0.00    +0.000 OA
ATOM      2  C   UNL     1       6.967   5.862  17.840  0.00  0.00    +0.000 C 
ATOM      3  N   UNL     1       5.702   5.975  18.342  0.00  0.00    +0.000 N 
ATOM      4  C   UNL     1       4.609   5.160  18.104  0.00  0.00    +0.000 A 
ATOM      5  N   UNL     1       4.689   3.905  17.667  0.00  0.00    +0.000 NA
ATOM      6  O   UNL     1       3.394   3.425  17.659  0.00  0.00    +0.000 OA
ATOM      7  N   UNL     1       2.496   4.406  18.042  0.00  0.00    +0.000 NA
ATOM      8  C   UNL     1       3.235   5.493  18.305  0.00  0.00    +0.000 A 
ATOM      9  H   UNL     1       5.576   6.748  18.983  0.00  0.00    +0.000 HD
ENDROOT
BRANCH   8  10
ATOM     10  C   UNL     1       2.609   6.764  18.673  0.00  0.00    +0.000 A 
ATOM     11  C   UNL     1       2.109   6.954  19.971  0.00  0.00    +0.000 A 
ATOM     12  C   UNL     1       1.526   8.170  20.342  0.00  0.00    +0.000 A 
ATOM     13  C   UNL     1       1.434   9.210  19.421  0.00  0.00    +0.000 A 
ATOM     14  C   UNL     1       1.894   9.026  18.120  0.00  0.00    +0.000 A 
ATOM     15  C   UNL     1       2.462   7.806  17.743  0.00  0.00    +0.000 A 
ENDBRANCH   8  10
BRANCH   2  16
ATOM     16  C   UNL     1       7.247   4.925  16.666  0.00  0.00    +0.000 C 
BRANCH  16  17
ATOM     17  O   UNL     1       7.437   5.621  15.443  0.00  0.00    +0.000 OA
BRANCH  17  18
ATOM     18  C   UNL     1       6.991   4.936  14.340  0.00  0.00    +0.000 A 
ATOM     19  C   UNL     1       7.743   5.089  13.175  0.00  0.00    +0.000 A 
ATOM     20  C   UNL     1       7.353   4.445  11.998  0.00  0.00    +0.000 A 
ATOM     21  C   UNL     1       6.219   3.633  11.985  0.00  0.00    +0.000 A 
ATOM     22  C   UNL     1       5.488   3.449  13.155  0.00  0.00    +0.000 A 
ATOM     23  C   UNL     1       5.878   4.092  14.331  0.00  0.00    +0.000 A 
ENDBRANCH  17  18
ENDBRANCH  16  17
ENDBRANCH   2  16
TORSDOF 4
ENDMDL
MODEL 3
REMARK VINA RESULT:      -8.0      1.149      1.212
REMARK  Name = 
REMARK  4 active torsions:
REMARK  status: ('A' for Active; 'I' for Inactive)
REMARK    1  A    between atoms: C_2  and  C_3
REMARK    2  A    between atoms: C_3  and  O_4
REMARK    3  A    between atoms: O_4  and  C_5
REMARK    4  A    between atoms: C_16  and  C_17
REMARK                            x       y       z     vdW  Elec       q    Type
REMARK                         _______ _______ _______ _____ _____    ______ ____
ROOT
ATOM      1  O   UNL     1       7.264   7.604  17.023  0.00  0.00    +0.000 OA
ATOM      2  C   UNL     1       6.504   6.638  17.162  0.00  0.00    +0.000 C 
ATOM      3  N   UNL     1       5.414   6.790  17.971  0.00  0.00    +0.000 N 
ATOM      4  C   UNL     1       4.506   5.828  18.376  0.00  0.00    +0.000 A 
ATOM      5  N   UNL     1       4.751   4.519  18.379  0.00  0.00    +0.000 NA
ATOM      6  O   UNL     1       3.636   3.928  18.941  0.00  0.00    +0.000 OA
ATOM      7  N   UNL     1       2.668   4.871  19.240  0.00  0.00    +0.000 NA
ATOM      8  C   UNL     1       3.189   6.053  18.880  0.00  0.00    +0.000 A 
ATOM      9  H   UNL     1       5.285   7.730  18.325  0.00  0.00    +0.000 HD
ENDROOT
BRANCH   8  10
ATOM     10  C   UNL     1       2.410   7.288  18.983  0.00  0.00    +0.000 A 
ATOM     11  C   UNL     1       1.879   7.684  20.221  0.00  0.00    +0.000 A 
ATOM     12  C   UNL     1       1.149   8.872  20.339  0.00  0.00    +0.000 A 
ATOM     13  C   UNL     1       0.939   9.675  19.222  0.00  0.00    +0.000 A 
ATOM     14  C   UNL     1       1.429   9.279  17.980  0.00  0.00    +0.000 A 
ATOM     15  C   UNL     1       2.145   8.085  17.858  0.00  0.00    +0.000 A 
ENDBRANCH   8  10
BRANCH   2  16
ATOM     16  C   UNL     1       6.680   5.363  16.341  0.00  0.00    +0.000 C 
BRANCH  16  17
ATOM     17  O   UNL     1       7.567   5.534  15.246  0.00  0.00    +0.000 OA
BRANCH  17  18
ATOM     18  C   UNL     1       7.160   4.901  14.097  0.00  0.00    +0.000 A 
ATOM     19  C   UNL     1       6.038   4.079  14.211  0.00  0.00    +0.000 A 
ATOM     20  C   UNL     1       5.564   3.379  13.098  0.00  0.00    +0.000 A 
ATOM     21  C   UNL     1       6.200   3.511  11.864  0.00  0.00    +0.000 A 
ATOM     22  C   UNL     1       7.297   4.359  11.738  0.00  0.00    +0.000 A 
ATOM     23  C   UNL     1       7.770   5.059  12.850  0.00  0.00    +0.000 A 
ENDBRANCH  17  18
ENDBRANCH  16  17
ENDBRANCH   2  16
TORSDOF 4
ENDMDL
MODEL 4
REMARK VINA RESULT:      -7.9      0.793      1.657
REMARK  Name = 
REMARK  4 active torsions:
REMARK  status: ('A' for Active; 'I' for Inactive)
REMARK    1  A    between atoms: C_2  and  C_3
REMARK    2  A    between atoms: C_3  and  O_4
REMARK    3  A    between atoms: O_4  and  C_5
REMARK    4  A    between atoms: C_16  and  C_17
REMARK                            x       y       z     vdW  Elec       q    Type
REMARK                         _______ _______ _______ _____ _____    ______ ____
ROOT
ATOM      1  O   UNL     1       7.669   7.103  17.764  0.00  0.00    +0.000 OA
ATOM      2  C   UNL     1       6.818   6.221  17.598  0.00  0.00    +0.000 C 
ATOM      3  N   UNL     1       5.617   6.359  18.232  0.00  0.00    +0.000 N 
ATOM      4  C   UNL     1       4.573   5.453  18.299  0.00  0.00    +0.000 A 
ATOM      5  N   UNL     1       4.703   4.142  18.100  0.00  0.00    +0.000 NA
ATOM      6  O   UNL     1       3.460   3.597  18.354  0.00  0.00    +0.000 OA
ATOM      7  N   UNL     1       2.536   4.582  18.661  0.00  0.00    +0.000 NA
ATOM      8  C   UNL     1       3.210   5.740  18.614  0.00  0.00    +0.000 A 
ATOM      9  H   UNL     1       5.505   7.235  18.727  0.00  0.00    +0.000 HD
ENDROOT
BRANCH   8  10
ATOM     10  C   UNL     1       2.531   7.021  18.815  0.00  0.00    +0.000 A 
ATOM     11  C   UNL     1       2.371   7.910  17.741  0.00  0.00    +0.000 A 
ATOM     12  C   UNL     1       1.708   9.129  17.914  0.00  0.00    +0.000 A 
ATOM     13  C   UNL     1       1.199   9.476  19.162  0.00  0.00    +0.000 A 
ATOM     14  C   UNL     1       1.381   8.621  20.246  0.00  0.00    +0.000 A 
ATOM     15  C   UNL     1       2.057   7.410  20.079  0.00  0.00    +0.000 A 
ENDBRANCH   8  10
BRANCH   2  16
ATOM     16  C   UNL     1       7.032   5.089  16.595  0.00  0.00    +0.000 C 
BRANCH  16  17
ATOM     17  O   UNL     1       7.581   5.542  15.366  0.00  0.00    +0.000 OA
BRANCH  17  18
ATOM     18  C   UNL     1       7.105   4.873  14.265  0.00  0.00    +0.000 A 
ATOM     19  C   UNL     1       7.782   5.099  13.067  0.00  0.00    +0.000 A 
ATOM     20  C   UNL     1       7.356   4.476  11.891  0.00  0.00    +0.000 A 
ATOM     21  C   UNL     1       6.261   3.612  11.913  0.00  0.00    +0.000 A 
ATOM     22  C   UNL     1       5.606   3.356  13.113  0.00  0.00    +0.000 A 
ATOM     23  C   UNL     1       6.033   3.977  14.288  0.00  0.00    +0.000 A 
ENDBRANCH  17  18
ENDBRANCH  16  17
ENDBRANCH   2  16
TORSDOF 4
ENDMDL
MODEL 5
REMARK VINA RESULT:      -7.8      1.310      6.847
REMARK  Name = 
REMARK  4 active torsions:
REMARK  status: ('A' for Active; 'I' for Inactive)
REMARK    1  A    between atoms: C_2  and  C_3
REMARK    2  A    between atoms: C_3  and  O_4
REMARK    3  A    between atoms: O_4  and  C_5
REMARK    4  A    between atoms: C_16  and  C_17
REMARK                            x       y       z     vdW  Elec       q    Type
REMARK                         _______ _______ _______ _____ _____    ______ ____
ROOT
ATOM      1  O   UNL     1       4.069   2.481  18.644  0.00  0.00    +0.000 OA
ATOM      2  C   UNL     1       4.584   3.602  18.558  0.00  0.00    +0.000 C 
ATOM      3  N   UNL     1       5.439   3.838  17.520  0.00  0.00    +0.000 N 
ATOM      4  C   UNL     1       6.222   4.956  17.291  0.00  0.00    +0.000 A 
ATOM      5  N   UNL     1       6.585   5.823  18.234  0.00  0.00    +0.000 NA
ATOM      6  O   UNL     1       7.432   6.722  17.614  0.00  0.00    +0.000 OA
ATOM      7  N   UNL     1       7.554   6.442  16.264  0.00  0.00    +0.000 NA
ATOM      8  C   UNL     1       6.795   5.359  16.047  0.00  0.00    +0.000 A 
ATOM      9  H   UNL     1       5.509   3.077  16.857  0.00  0.00    +0.000 HD
ENDROOT
BRANCH   8  10
ATOM     10  C   UNL     1       6.621   4.812  14.700  0.00  0.00    +0.000 A 
ATOM     11  C   UNL     1       7.587   5.056  13.710  0.00  0.00    +0.000 A 
ATOM     12  C   UNL     1       7.443   4.524  12.425  0.00  0.00    +0.000 A 
ATOM     13  C   UNL     1       6.333   3.745  12.112  0.00  0.00    +0.000 A 
ATOM     14  C   UNL     1       5.349   3.523  13.072  0.00  0.00    +0.000 A 
ATOM     15  C   UNL     1       5.483   4.067  14.352  0.00  0.00    +0.000 A 
ENDBRANCH   8  10
BRANCH   2  16
ATOM     16  C   UNL     1       4.166   4.742  19.484  0.00  0.00    +0.000 C 
BRANCH  16  17
ATOM     17  O   UNL     1       2.772   5.009  19.430  0.00  0.00    +0.000 OA
BRANCH  17  18
ATOM     18  C   UNL     1       2.467   6.327  19.194  0.00  0.00    +0.000 A 
ATOM     19  C   UNL     1       1.922   7.035  20.266  0.00  0.00    +0.000 A 
ATOM     20  C   UNL     1       1.563   8.376  20.112  0.00  0.00    +0.000 A 
ATOM     21  C   UNL     1       1.763   9.019  18.890  0.00  0.00    +0.000 A 
ATOM     22  C   UNL     1       2.341   8.327  17.830  0.00  0.00    +0.000 A 
ATOM     23  C   UNL     1       2.700   6.987  17.985  0.00  0.00    +0.000 A 
ENDBRANCH  17  18
ENDBRANCH  16  17
ENDBRANCH   2  16
TORSDOF 4
ENDMDL
MODEL 6
REMARK VINA RESULT:      -7.8      1.405      7.316
REMARK  Name = 
REMARK  4 active torsions:
REMARK  status: ('A' for Active; 'I' for Inactive)
REMARK    1  A    between atoms: C_2  and  C_3
REMARK    2  A    between atoms: C_3  and  O_4
REMARK    3  A    between atoms: O_4  and  C_5
REMARK    4  A    between atoms: C_16  and  C_17
REMARK                            x       y       z     vdW  Elec       q    Type
REMARK                         _______ _______ _______ _____ _____    ______ ____
ROOT
ATOM      1  O   UNL     1       2.250   4.787  17.485  0.00  0.00    +0.000 OA
ATOM      2  C   UNL     1       3.412   5.002  17.850  0.00  0.00    +0.000 C 
ATOM      3  N   UNL     1       4.428   4.528  17.071  0.00  0.00    +0.000 N 
ATOM      4  C   UNL     1       5.786   4.535  17.335  0.00  0.00    +0.000 A 
ATOM      5  N   UNL     1       6.313   4.637  18.554  0.00  0.00    +0.000 NA
ATOM      6  O   UNL     1       7.678   4.504  18.388  0.00  0.00    +0.000 OA
ATOM      7  N   UNL     1       8.007   4.372  17.050  0.00  0.00    +0.000 NA
ATOM      8  C   UNL     1       6.844   4.405  16.384  0.00  0.00    +0.000 A 
ATOM      9  H   UNL     1       4.125   4.104  16.203  0.00  0.00    +0.000 HD
ENDROOT
BRANCH   8  10
ATOM     10  C   UNL     1       6.806   4.365  14.921  0.00  0.00    +0.000 A 
ATOM     11  C   UNL     1       7.684   5.163  14.171  0.00  0.00    +0.000 A 
ATOM     12  C   UNL     1       7.672   5.121  12.773  0.00  0.00    +0.000 A 
ATOM     13  C   UNL     1       6.781   4.283  12.108  0.00  0.00    +0.000 A 
ATOM     14  C   UNL     1       5.879   3.512  12.837  0.00  0.00    +0.000 A 
ATOM     15  C   UNL     1       5.879   3.565  14.233  0.00  0.00    +0.000 A 
ENDBRANCH   8  10
BRANCH   2  16
ATOM     16  C   UNL     1       3.717   5.902  19.046  0.00  0.00    +0.000 C 
BRANCH  16  17
ATOM     17  O   UNL     1       2.583   6.113  19.875  0.00  0.00    +0.000 OA
BRANCH  17  18
ATOM     18  C   UNL     1       2.058   7.378  19.787  0.00  0.00    +0.000 A 
ATOM     19  C   UNL     1       2.197   8.018  18.555  0.00  0.00    +0.000 A 
ATOM     20  C   UNL     1       1.710   9.316  18.378  0.00  0.00    +0.000 A 
ATOM     21  C   UNL     1       1.067   9.972  19.428  0.00  0.00    +0.000 A 
ATOM     22  C   UNL     1       0.894   9.323  20.647  0.00  0.00    +0.000 A 
ATOM     23  C   UNL     1       1.380   8.026  20.822  0.00  0.00    +0.000 A 
ENDBRANCH  17  18
ENDBRANCH  16  17
ENDBRANCH   2  16
TORSDOF 4
ENDMDL
MODEL 7
REMARK VINA RESULT:      -7.7      1.224      7.172
REMARK  Name = 
REMARK  4 active torsions:
REMARK  status: ('A' for Active; 'I' for Inactive)
REMARK    1  A    between atoms: C_2  and  C_3
REMARK    2  A    between atoms: C_3  and  O_4
REMARK    3  A    between atoms: O_4  and  C_5
REMARK    4  A    between atoms: C_16  and  C_17
REMARK                            x       y       z     vdW  Elec       q    Type
REMARK                         _______ _______ _______ _____ _____    ______ ____
ROOT
ATOM      1  O   UNL     1       2.081   3.384  16.988  0.00  0.00    +0.000 OA
ATOM      2  C   UNL     1       3.100   3.922  17.438  0.00  0.00    +0.000 C 
ATOM      3  N   UNL     1       4.266   3.771  16.743  0.00  0.00    +0.000 N 
ATOM      4  C   UNL     1       5.540   4.167  17.111  0.00  0.00    +0.000 A 
ATOM      5  N   UNL     1       5.920   4.402  18.365  0.00  0.00    +0.000 NA
ATOM      6  O   UNL     1       7.274   4.671  18.304  0.00  0.00    +0.000 OA
ATOM      7  N   UNL     1       7.728   4.656  16.997  0.00  0.00    +0.000 NA
ATOM      8  C   UNL     1       6.658   4.360  16.244  0.00  0.00    +0.000 A 
ATOM      9  H   UNL     1       4.165   3.288  15.860  0.00  0.00    +0.000 HD
ENDROOT
BRANCH   8  10
ATOM     10  C   UNL     1       6.744   4.329  14.783  0.00  0.00    +0.000 A 
ATOM     11  C   UNL     1       5.972   3.412  14.051  0.00  0.00    +0.000 A 
ATOM     12  C   UNL     1       6.030   3.384  12.654  0.00  0.00    +0.000 A 
ATOM     13  C   UNL     1       6.861   4.268  11.972  0.00  0.00    +0.000 A 
ATOM     14  C   UNL     1       7.659   5.159  12.684  0.00  0.00    +0.000 A 
ATOM     15  C   UNL     1       7.615   5.178  14.080  0.00  0.00    +0.000 A 
ENDBRANCH   8  10
BRANCH   2  16
ATOM     16  C   UNL     1       3.039   4.856  18.645  0.00  0.00    +0.000 C 
BRANCH  16  17
ATOM     17  O   UNL     1       3.345   6.202  18.311  0.00  0.00    +0.000 OA
BRANCH  17  18
ATOM     18  C   UNL     1       2.548   7.125  18.941  0.00  0.00    +0.000 A 
ATOM     19  C   UNL     1       2.154   8.225  18.177  0.00  0.00    +0.000 A 
ATOM     20  C   UNL     1       1.358   9.224  18.742  0.00  0.00    +0.000 A 
ATOM     21  C   UNL     1       0.939   9.120  20.068  0.00  0.00    +0.000 A 
ATOM     22  C   UNL     1       1.298   8.007  20.822  0.00  0.00    +0.000 A 
ATOM     23  C   UNL     1       2.093   7.008  20.257  0.00  0.00    +0.000 A 
ENDBRANCH  17  18
ENDBRANCH  16  17
ENDBRANCH   2  16
TORSDOF 4
ENDMDL
MODEL 8
REMARK VINA RESULT:      -7.6      4.452      8.021
REMARK  Name = 
REMARK  4 active torsions:
REMARK  status: ('A' for Active; 'I' for Inactive)
REMARK    1  A    between atoms: C_2  and  C_3
REMARK    2  A    between atoms: C_3  and  O_4
REMARK    3  A    between atoms: O_4  and  C_5
REMARK    4  A    between atoms: C_16  and  C_17
REMARK                            x       y       z     vdW  Elec       q    Type
REMARK                         _______ _______ _______ _____ _____    ______ ____
ROOT
ATOM      1  O   UNL     1       0.541   9.677  20.959  0.00  0.00    +0.000 OA
ATOM      2  C   UNL     1       1.063   9.288  19.908  0.00  0.00    +0.000 C 
ATOM      3  N   UNL     1       1.666   8.063  19.905  0.00  0.00    +0.000 N 
ATOM      4  C   UNL     1       2.417   7.479  18.900  0.00  0.00    +0.000 A 
ATOM      5  N   UNL     1       3.019   8.155  17.923  0.00  0.00    +0.000 NA
ATOM      6  O   UNL     1       3.734   7.218  17.202  0.00  0.00    +0.000 OA
ATOM      7  N   UNL     1       3.532   5.943  17.701  0.00  0.00    +0.000 NA
ATOM      8  C   UNL     1       2.704   6.088  18.745  0.00  0.00    +0.000 A 
ATOM      9  H   UNL     1       1.554   7.541  20.765  0.00  0.00    +0.000 HD
ENDROOT
BRANCH   8  10
ATOM     10  C   UNL     1       2.206   4.927  19.485  0.00  0.00    +0.000 A 
ATOM     11  C   UNL     1       1.408   3.969  18.839  0.00  0.00    +0.000 A 
ATOM     12  C   UNL     1       0.941   2.846  19.527  0.00  0.00    +0.000 A 
ATOM     13  C   UNL     1       1.262   2.666  20.870  0.00  0.00    +0.000 A 
ATOM     14  C   UNL     1       2.023   3.625  21.534  0.00  0.00    +0.000 A 
ATOM     15  C   UNL     1       2.477   4.756  20.852  0.00  0.00    +0.000 A 
ENDBRANCH   8  10
BRANCH   2  16
ATOM     16  C   UNL     1       0.911  10.072  18.606  0.00  0.00    +0.000 C 
BRANCH  16  17
ATOM     17  O   UNL     1       0.045  11.190  18.738  0.00  0.00    +0.000 OA
BRANCH  17  18
ATOM     18  C   UNL     1      -1.237  10.952  18.309  0.00  0.00    +0.000 A 
ATOM     19  C   UNL     1      -2.227  11.783  18.833  0.00  0.00    +0.000 A 
ATOM     20  C   UNL     1      -3.563  11.602  18.468  0.00  0.00    +0.000 A 
ATOM     21  C   UNL     1      -3.913  10.599  17.564  0.00  0.00    +0.000 A 
ATOM     22  C   UNL     1      -2.924   9.792  17.010  0.00  0.00    +0.000 A 
ATOM     23  C   UNL     1      -1.589   9.974  17.374  0.00  0.00    +0.000 A 
ENDBRANCH  17  18
ENDBRANCH  16  17
ENDBRANCH   2  16
TORSDOF 4
ENDMDL
MODEL 9
REMARK VINA RESULT:      -7.6      2.298      7.393
REMARK  Name = 
REMARK  4 active torsions:
REMARK  status: ('A' for Active; 'I' for Inactive)
REMARK    1  A    between atoms: C_2  and  C_3
REMARK    2  A    between atoms: C_3  and  O_4
REMARK    3  A    between atoms: O_4  and  C_5
REMARK    4  A    between atoms: C_16  and  C_17
REMARK                            x       y       z     vdW  Elec       q    Type
REMARK                         _______ _______ _______ _____ _____    ______ ____
ROOT
ATOM      1  O   UNL     1       4.380   2.689  17.743  0.00  0.00    +0.000 OA
ATOM      2  C   UNL     1       4.973   3.667  17.274  0.00  0.00    +0.000 C 
ATOM      3  N   UNL     1       5.582   3.527  16.059  0.00  0.00    +0.000 N 
ATOM      4  C   UNL     1       6.400   4.428  15.401  0.00  0.00    +0.000 A 
ATOM      5  N   UNL     1       7.061   5.417  15.999  0.00  0.00    +0.000 NA
ATOM      6  O   UNL     1       7.828   6.009  15.014  0.00  0.00    +0.000 OA
ATOM      7  N   UNL     1       7.601   5.418  13.783  0.00  0.00    +0.000 NA
ATOM      8  C   UNL     1       6.705   4.446  14.006  0.00  0.00    +0.000 A 
ATOM      9  H   UNL     1       5.416   2.635  15.611  0.00  0.00    +0.000 HD
ENDROOT
BRANCH   8  10
ATOM     10  C   UNL     1       6.165   3.644  12.906  0.00  0.00    +0.000 A 
ATOM     11  C   UNL     1       6.990   2.732  12.229  0.00  0.00    +0.000 A 
ATOM     12  C   UNL     1       6.483   1.946  11.189  0.00  0.00    +0.000 A 
ATOM     13  C   UNL     1       5.148   2.064  10.811  0.00  0.00    +0.000 A 
ATOM     14  C   UNL     1       4.327   2.990  11.449  0.00  0.00    +0.000 A 
ATOM     15  C   UNL     1       4.836   3.787  12.478  0.00  0.00    +0.000 A 
ENDBRANCH   8  10
BRANCH   2  16
ATOM     16  C   UNL     1       4.903   5.038  17.944  0.00  0.00    +0.000 C 
BRANCH  16  17
ATOM     17  O   UNL     1       3.588   5.574  17.957  0.00  0.00    +0.000 OA
BRANCH  17  18
ATOM     18  C   UNL     1       2.732   4.926  18.812  0.00  0.00    +0.000 A 
ATOM     19  C   UNL     1       3.015   5.042  20.173  0.00  0.00    +0.000 A 
ATOM     20  C   UNL     1       2.208   4.399  21.115  0.00  0.00    +0.000 A 
ATOM     21  C   UNL     1       1.106   3.652  20.701  0.00  0.00    +0.000 A 
ATOM     22  C   UNL     1       0.799   3.564  19.347  0.00  0.00    +0.000 A 
ATOM     23  C   UNL     1       1.604   4.208  18.405  0.00  0.00    +0.000 A 
ENDBRANCH  17  18
ENDBRANCH  16  17
ENDBRANCH   2  16
TORSDOF 4
ENDMDL
