MODEL 1
REMARK VINA RESULT:      -7.9      0.000      0.000
REMARK  Name = 
REMARK  6 active torsions:
REMARK  status: ('A' for Active; 'I' for Inactive)
REMARK    1  A    between atoms: C_2  and  C_3
REMARK    2  A    between atoms: C_3  and  N_4
REMARK    3  A    between atoms: C_5  and  C_7
REMARK    4  A    between atoms: N_13  and  C_14
REMARK    5  A    between atoms: C_14  and  C_15
REMARK    6  A    between atoms: C_15  and  C_16
REMARK                            x       y       z     vdW  Elec       q    Type
REMARK                         _______ _______ _______ _____ _____    ______ ____
ROOT
ATOM      1  O   UNL     1       7.526   6.432  16.111  0.00  0.00    +0.000 OA
ATOM      2  C   UNL     1       7.565   6.269  17.324  0.00  0.00    +0.000 C 
ATOM      3  N   UNL     1       7.779   7.303  18.223  0.00  0.00    +0.000 N 
ATOM      4  H   UNL     1       7.935   7.057  19.195  0.00  0.00    +0.000 HD
ENDROOT
BRANCH   2   5
ATOM      5  C   UNL     1       7.416   4.877  17.961  0.00  0.00    +0.000 C 
BRANCH   5   6
ATOM      6  N   UNL     1       6.086   4.629  18.485  0.00  0.00    +0.000 N 
ATOM      7  C   UNL     1       5.082   4.156  17.679  0.00  0.00    +0.000 C 
ATOM      8  O   UNL     1       5.258   3.902  16.483  0.00  0.00    +0.000 OA
ATOM      9  H   UNL     1       5.904   4.741  19.481  0.00  0.00    +0.000 HD
BRANCH   7  10
ATOM     10  C   UNL     1       3.748   3.955  18.308  0.00  0.00    +0.000 A 
ATOM     11  C   UNL     1       3.649   3.725  19.674  0.00  0.00    +0.000 A 
ATOM     12  N   UNL     1       2.456   3.534  20.297  0.00  0.00    +0.000 NA
ATOM     13  C   UNL     1       1.370   3.590  19.492  0.00  0.00    +0.000 A 
ATOM     14  C   UNL     1       1.469   3.825  18.129  0.00  0.00    +0.000 A 
ATOM     15  N   UNL     1       2.654   4.017  17.495  0.00  0.00    +0.000 NA
ENDBRANCH   7  10
ENDBRANCH   5   6
ENDBRANCH   2   5
BRANCH   3  16
ATOM     16  C   UNL     1       8.002   8.679  17.787  0.00  0.00    +0.000 C 
BRANCH  16  17
ATOM     17  C   UNL     1       8.911   9.442  18.755  0.00  0.00    +0.000 C 
BRANCH  17  18
ATOM     18  C   UNL     1       9.110  10.871  18.349  0.00  0.00    +0.000 A 
ATOM     19  C   UNL     1       8.257  11.632  17.575  0.00  0.00    +0.000 A 
ATOM     20  N   UNL     1       8.794  12.886  17.448  0.00  0.00    +0.000 N 
ATOM     21  C   UNL     1      10.001  12.955  18.102  0.00  0.00    +0.000 A 
ATOM     22  C   UNL     1      10.903  14.018  18.226  0.00  0.00    +0.000 A 
ATOM     23  C   UNL     1      12.077  13.792  18.951  0.00  0.00    +0.000 A 
ATOM     24  C   UNL     1      12.329  12.556  19.541  0.00  0.00    +0.000 A 
ATOM     25  C   UNL     1      11.411  11.508  19.417  0.00  0.00    +0.000 A 
ATOM     26  C   UNL     1      10.226  11.704  18.680  0.00  0.00    +0.000 A 
ATOM     27  H   UNL     1       8.373  13.652  16.942  0.00  0.00    +0.000 HD
ENDBRANCH  17  18
ENDBRANCH  16  17
ENDBRANCH   3  16
TORSDOF 6
ENDMDL
MODEL 2
REMARK VINA RESULT:      -7.7      5.990      8.599
REMARK  Name = 
REMARK  6 active torsions:
REMARK  status: ('A' for Active; 'I' for Inactive)
REMARK    1  A    between atoms: C_2  and  C_3
REMARK    2  A    between atoms: C_3  and  N_4
REMARK    3  A    between atoms: C_5  and  C_7
REMARK    4  A    between atoms: N_13  and  C_14
REMARK    5  A    between atoms: C_14  and  C_15
REMARK    6  A    between atoms: C_15  and  C_16
REMARK                            x       y       z     vdW  Elec       q    Type
REMARK                         _______ _______ _______ _____ _____    ______ ____
ROOT
ATOM      1  O   UNL     1       5.191   2.661  19.786  0.00  0.00    +0.000 OA
ATOM      2  C   UNL     1       5.126   3.200  18.689  0.00  0.00    +0.000 C 
ATOM      3  N   UNL     1       4.207   2.836  17.717  0.00  0.00    +0.000 N 
ATOM      4  H   UNL     1       4.315   3.239  16.792  0.00  0.00    +0.000 HD
ENDROOT
BRANCH   2   5
ATOM      5  C   UNL     1       6.098   4.318  18.276  0.00  0.00    +0.000 C 
BRANCH   5   6
ATOM      6  N   UNL     1       6.546   4.206  16.901  0.00  0.00    +0.000 N 
ATOM      7  C   UNL     1       5.961   4.941  15.901  0.00  0.00    +0.000 C 
ATOM      8  O   UNL     1       5.045   5.740  16.117  0.00  0.00    +0.000 OA
ATOM      9  H   UNL     1       7.352   3.626  16.676  0.00  0.00    +0.000 HD
BRANCH   7  10
ATOM     10  C   UNL     1       6.479   4.737  14.521  0.00  0.00    +0.000 A 
ATOM     11  C   UNL     1       5.862   3.828  13.671  0.00  0.00    +0.000 A 
ATOM     12  N   UNL     1       6.296   3.604  12.403  0.00  0.00    +0.000 NA
ATOM     13  C   UNL     1       7.371   4.334  12.024  0.00  0.00    +0.000 A 
ATOM     14  C   UNL     1       7.984   5.244  12.872  0.00  0.00    +0.000 A 
ATOM     15  N   UNL     1       7.561   5.477  14.140  0.00  0.00    +0.000 NA
ENDBRANCH   7  10
ENDBRANCH   5   6
ENDBRANCH   2   5
BRANCH   3  16
ATOM     16  C   UNL     1       3.250   1.752  17.919  0.00  0.00    +0.000 C 
BRANCH  16  17
ATOM     17  C   UNL     1       1.835   2.280  18.170  0.00  0.00    +0.000 C 
BRANCH  17  18
ATOM     18  C   UNL     1       1.787   3.291  19.275  0.00  0.00    +0.000 A 
ATOM     19  C   UNL     1       1.552   3.036  20.613  0.00  0.00    +0.000 A 
ATOM     20  N   UNL     1       1.606   4.224  21.293  0.00  0.00    +0.000 N 
ATOM     21  C   UNL     1       1.843   5.260  20.423  0.00  0.00    +0.000 A 
ATOM     22  C   UNL     1       1.960   6.635  20.663  0.00  0.00    +0.000 A 
ATOM     23  C   UNL     1       2.194   7.468  19.565  0.00  0.00    +0.000 A 
ATOM     24  C   UNL     1       2.321   6.944  18.281  0.00  0.00    +0.000 A 
ATOM     25  C   UNL     1       2.213   5.567  18.060  0.00  0.00    +0.000 A 
ATOM     26  C   UNL     1       1.964   4.705  19.147  0.00  0.00    +0.000 A 
ATOM     27  H   UNL     1       1.482   4.330  22.290  0.00  0.00    +0.000 HD
ENDBRANCH  17  18
ENDBRANCH  16  17
ENDBRANCH   3  16
TORSDOF 6
ENDMDL
MODEL 3
REMARK VINA RESULT:      -7.6      5.570      8.896
REMARK  Name = 
REMARK  6 active torsions:
REMARK  status: ('A' for Active; 'I' for Inactive)
REMARK    1  A    between atoms: C_2  and  C_3
REMARK    2  A    between atoms: C_3  and  N_4
REMARK    3  A    between atoms: C_5  and  C_7
REMARK    4  A    between atoms: N_13  and  C_14
REMARK    5  A    between atoms: C_14  and  C_15
REMARK    6  A    between atoms: C_15  and  C_16
REMARK                            x       y       z     vdW  Elec       q    Type
REMARK                         _______ _______ _______ _____ _____    ______ ____
ROOT
ATOM      1  O   UNL     1       5.223   5.527  19.942  0.00  0.00    +0.000 OA
ATOM      2  C   UNL     1       5.517   5.411  18.759  0.00  0.00    +0.000 C 
ATOM      3  N   UNL     1       4.815   6.035  17.739  0.00  0.00    +0.000 N 
ATOM      4  H   UNL     1       5.041   5.773  16.784  0.00  0.00    +0.000 HD
ENDROOT
BRANCH   2   5
ATOM      5  C   UNL     1       6.683   4.522  18.296  0.00  0.00    +0.000 C 
BRANCH   5   6
ATOM      6  N   UNL     1       6.668   4.258  16.869  0.00  0.00    +0.000 N 
ATOM      7  C   UNL     1       7.126   5.187  15.971  0.00  0.00    +0.000 C 
ATOM      8  O   UNL     1       7.588   6.276  16.323  0.00  0.00    +0.000 OA
ATOM      9  H   UNL     1       6.376   3.344  16.526  0.00  0.00    +0.000 HD
BRANCH   7  10
ATOM     10  C   UNL     1       7.048   4.827  14.528  0.00  0.00    +0.000 A 
ATOM     11  C   UNL     1       6.175   3.834  14.103  0.00  0.00    +0.000 A 
ATOM     12  N   UNL     1       6.065   3.468  12.799  0.00  0.00    +0.000 NA
ATOM     13  C   UNL     1       6.865   4.144  11.941  0.00  0.00    +0.000 A 
ATOM     14  C   UNL     1       7.733   5.139  12.366  0.00  0.00    +0.000 A 
ATOM     15  N   UNL     1       7.852   5.514  13.665  0.00  0.00    +0.000 NA
ENDBRANCH   7  10
ENDBRANCH   5   6
ENDBRANCH   2   5
BRANCH   3  16
ATOM     16  C   UNL     1       3.644   6.867  17.995  0.00  0.00    +0.000 C 
BRANCH  16  17
ATOM     17  C   UNL     1       2.349   6.180  17.553  0.00  0.00    +0.000 C 
BRANCH  17  18
ATOM     18  C   UNL     1       2.326   4.721  17.895  0.00  0.00    +0.000 A 
ATOM     19  C   UNL     1       2.499   3.668  17.019  0.00  0.00    +0.000 A 
ATOM     20  N   UNL     1       2.424   2.499  17.729  0.00  0.00    +0.000 N 
ATOM     21  C   UNL     1       2.175   2.764  19.055  0.00  0.00    +0.000 A 
ATOM     22  C   UNL     1       2.004   1.889  20.135  0.00  0.00    +0.000 A 
ATOM     23  C   UNL     1       1.746   2.451  21.389  0.00  0.00    +0.000 A 
ATOM     24  C   UNL     1       1.678   3.831  21.557  0.00  0.00    +0.000 A 
ATOM     25  C   UNL     1       1.863   4.691  20.469  0.00  0.00    +0.000 A 
ATOM     26  C   UNL     1       2.111   4.152  19.191  0.00  0.00    +0.000 A 
ATOM     27  H   UNL     1       2.527   1.573  17.340  0.00  0.00    +0.000 HD
ENDBRANCH  17  18
ENDBRANCH  16  17
ENDBRANCH   3  16
TORSDOF 6
ENDMDL
MODEL 4
REMARK VINA RESULT:      -7.5      1.970      9.897
REMARK  Name = 
REMARK  6 active torsions:
REMARK  status: ('A' for Active; 'I' for Inactive)
REMARK    1  A    between atoms: C_2  and  C_3
REMARK    2  A    between atoms: C_3  and  N_4
REMARK    3  A    between atoms: C_5  and  C_7
REMARK    4  A    between atoms: N_13  and  C_14
REMARK    5  A    between atoms: C_14  and  C_15
REMARK    6  A    between atoms: C_15  and  C_16
REMARK                            x       y       z     vdW  Elec       q    Type
REMARK                         _______ _______ _______ _____ _____    ______ ____
ROOT
ATOM      1  O   UNL     1       8.064   6.678  18.553  0.00  0.00    +0.000 OA
ATOM      2  C   UNL     1       7.367   7.231  17.711  0.00  0.00    +0.000 C 
ATOM      3  N   UNL     1       6.485   6.548  16.888  0.00  0.00    +0.000 N 
ATOM      4  H   UNL     1       6.054   7.066  16.129  0.00  0.00    +0.000 HD
ENDROOT
BRANCH   2   5
ATOM      5  C   UNL     1       7.441   8.748  17.467  0.00  0.00    +0.000 C 
BRANCH   5   6
ATOM      6  N   UNL     1       8.576   9.376  18.116  0.00  0.00    +0.000 N 
ATOM      7  C   UNL     1       8.777  10.731  18.040  0.00  0.00    +0.000 C 
ATOM      8  O   UNL     1       8.004  11.482  17.438  0.00  0.00    +0.000 OA
ATOM      9  H   UNL     1       9.201   8.819  18.697  0.00  0.00    +0.000 HD
BRANCH   7  10
ATOM     10  C   UNL     1       9.983  11.274  18.723  0.00  0.00    +0.000 A 
ATOM     11  C   UNL     1       9.974  11.480  20.097  0.00  0.00    +0.000 A 
ATOM     12  N   UNL     1      11.047  11.974  20.768  0.00  0.00    +0.000 NA
ATOM     13  C   UNL     1      12.130  12.247  20.003  0.00  0.00    +0.000 A 
ATOM     14  C   UNL     1      12.140  12.037  18.632  0.00  0.00    +0.000 A 
ATOM     15  N   UNL     1      11.075  11.544  17.950  0.00  0.00    +0.000 NA
ENDBRANCH   7  10
ENDBRANCH   5   6
ENDBRANCH   2   5
BRANCH   3  16
ATOM     16  C   UNL     1       6.334   5.098  16.943  0.00  0.00    +0.000 C 
BRANCH  16  17
ATOM     17  C   UNL     1       4.869   4.672  16.810  0.00  0.00    +0.000 C 
BRANCH  17  18
ATOM     18  C   UNL     1       4.113   4.801  18.097  0.00  0.00    +0.000 A 
ATOM     19  C   UNL     1       4.416   5.645  19.147  0.00  0.00    +0.000 A 
ATOM     20  N   UNL     1       3.474   5.469  20.127  0.00  0.00    +0.000 N 
ATOM     21  C   UNL     1       2.572   4.502  19.751  0.00  0.00    +0.000 A 
ATOM     22  C   UNL     1       1.464   3.985  20.433  0.00  0.00    +0.000 A 
ATOM     23  C   UNL     1       0.724   2.981  19.801  0.00  0.00    +0.000 A 
ATOM     24  C   UNL     1       1.071   2.525  18.532  0.00  0.00    +0.000 A 
ATOM     25  C   UNL     1       2.175   3.061  17.860  0.00  0.00    +0.000 A 
ATOM     26  C   UNL     1       2.947   4.064  18.479  0.00  0.00    +0.000 A 
ATOM     27  H   UNL     1       3.445   5.969  21.003  0.00  0.00    +0.000 HD
ENDBRANCH  17  18
ENDBRANCH  16  17
ENDBRANCH   3  16
TORSDOF 6
ENDMDL
MODEL 5
REMARK VINA RESULT:      -7.4      1.389      1.538
REMARK  Name = 
REMARK  6 active torsions:
REMARK  status: ('A' for Active; 'I' for Inactive)
REMARK    1  A    between atoms: C_2  and  C_3
REMARK    2  A    between atoms: C_3  and  N_4
REMARK    3  A    between atoms: C_5  and  C_7
REMARK    4  A    between atoms: N_13  and  C_14
REMARK    5  A    between atoms: C_14  and  C_15
REMARK    6  A    between atoms: C_15  and  C_16
REMARK                            x       y       z     vdW  Elec       q    Type
REMARK                         _______ _______ _______ _____ _____    ______ ____
ROOT
ATOM      1  O   UNL     1       6.983   7.584  17.014  0.00  0.00    +0.000 OA
ATOM      2  C   UNL     1       7.643   7.209  17.974  0.00  0.00    +0.000 C 
ATOM      3  N   UNL     1       8.478   8.047  18.696  0.00  0.00    +0.000 N 
ATOM      4  H   UNL     1       9.090   7.623  19.386  0.00  0.00    +0.000 HD
ENDROOT
BRANCH   2   5
ATOM      5  C   UNL     1       7.629   5.744  18.445  0.00  0.00    +0.000 C 
BRANCH   5   6
ATOM      6  N   UNL     1       6.299   5.258  18.759  0.00  0.00    +0.000 N 
ATOM      7  C   UNL     1       5.588   4.504  17.861  0.00  0.00    +0.000 C 
ATOM      8  O   UNL     1       6.043   4.186  16.758  0.00  0.00    +0.000 OA
ATOM      9  H   UNL     1       5.906   5.419  19.685  0.00  0.00    +0.000 HD
BRANCH   7  10
ATOM     10  C   UNL     1       4.224   4.073  18.271  0.00  0.00    +0.000 A 
ATOM     11  C   UNL     1       4.059   3.211  19.348  0.00  0.00    +0.000 A 
ATOM     12  N   UNL     1       2.836   2.787  19.762  0.00  0.00    +0.000 NA
ATOM     13  C   UNL     1       1.788   3.268  19.053  0.00  0.00    +0.000 A 
ATOM     14  C   UNL     1       1.954   4.131  17.981  0.00  0.00    +0.000 A 
ATOM     15  N   UNL     1       3.169   4.563  17.557  0.00  0.00    +0.000 NA
ENDBRANCH   7  10
ENDBRANCH   5   6
ENDBRANCH   2   5
BRANCH   3  16
ATOM     16  C   UNL     1       8.658   9.454  18.349  0.00  0.00    +0.000 C 
BRANCH  16  17
ATOM     17  C   UNL     1       9.336  10.237  19.477  0.00  0.00    +0.000 C 
BRANCH  17  18
ATOM     18  C   UNL     1      10.070  11.444  18.978  0.00  0.00    +0.000 A 
ATOM     19  C   UNL     1      10.687  11.581  17.750  0.00  0.00    +0.000 A 
ATOM     20  N   UNL     1      11.229  12.838  17.678  0.00  0.00    +0.000 N 
ATOM     21  C   UNL     1      11.003  13.520  18.850  0.00  0.00    +0.000 A 
ATOM     22  C   UNL     1      11.384  14.812  19.231  0.00  0.00    +0.000 A 
ATOM     23  C   UNL     1      11.021  15.245  20.510  0.00  0.00    +0.000 A 
ATOM     24  C   UNL     1      10.293  14.422  21.366  0.00  0.00    +0.000 A 
ATOM     25  C   UNL     1       9.911  13.138  20.964  0.00  0.00    +0.000 A 
ATOM     26  C   UNL     1      10.275  12.671  19.685  0.00  0.00    +0.000 A 
ATOM     27  H   UNL     1      11.729  13.212  16.885  0.00  0.00    +0.000 HD
ENDBRANCH  17  18
ENDBRANCH  16  17
ENDBRANCH   3  16
TORSDOF 6
ENDMDL
MODEL 6
REMARK VINA RESULT:      -7.4      1.576      1.901
REMARK  Name = 
REMARK  6 active torsions:
REMARK  status: ('A' for Active; 'I' for Inactive)
REMARK    1  A    between atoms: C_2  and  C_3
REMARK    2  A    between atoms: C_3  and  N_4
REMARK    3  A    between atoms: C_5  and  C_7
REMARK    4  A    between atoms: N_13  and  C_14
REMARK    5  A    between atoms: C_14  and  C_15
REMARK    6  A    between atoms: C_15  and  C_16
REMARK                            x       y       z     vdW  Elec       q    Type
REMARK                         _______ _______ _______ _____ _____    ______ ____
ROOT
ATOM      1  O   UNL     1       7.782   6.340  18.769  0.00  0.00    +0.000 OA
ATOM      2  C   UNL     1       7.409   6.940  17.770  0.00  0.00    +0.000 C 
ATOM      3  N   UNL     1       7.738   8.262  17.511  0.00  0.00    +0.000 N 
ATOM      4  H   UNL     1       7.273   8.719  16.733  0.00  0.00    +0.000 HD
ENDROOT
BRANCH   2   5
ATOM      5  C   UNL     1       6.499   6.281  16.719  0.00  0.00    +0.000 C 
BRANCH   5   6
ATOM      6  N   UNL     1       5.660   5.232  17.268  0.00  0.00    +0.000 N 
ATOM      7  C   UNL     1       4.326   5.444  17.509  0.00  0.00    +0.000 C 
ATOM      8  O   UNL     1       3.771   6.517  17.258  0.00  0.00    +0.000 OA
ATOM      9  H   UNL     1       6.044   4.301  17.417  0.00  0.00    +0.000 HD
BRANCH   7  10
ATOM     10  C   UNL     1       3.558   4.311  18.094  0.00  0.00    +0.000 A 
ATOM     11  C   UNL     1       4.223   3.274  18.736  0.00  0.00    +0.000 A 
ATOM     12  N   UNL     1       3.569   2.217  19.285  0.00  0.00    +0.000 NA
ATOM     13  C   UNL     1       2.221   2.248  19.166  0.00  0.00    +0.000 A 
ATOM     14  C   UNL     1       1.557   3.286  18.528  0.00  0.00    +0.000 A 
ATOM     15  N   UNL     1       2.198   4.347  17.976  0.00  0.00    +0.000 NA
ENDBRANCH   7  10
ENDBRANCH   5   6
ENDBRANCH   2   5
BRANCH   3  16
ATOM     16  C   UNL     1       8.542   9.058  18.433  0.00  0.00    +0.000 C 
BRANCH  16  17
ATOM     17  C   UNL     1       8.669  10.512  17.969  0.00  0.00    +0.000 C 
BRANCH  17  18
ATOM     18  C   UNL     1       9.555  11.325  18.862  0.00  0.00    +0.000 A 
ATOM     19  C   UNL     1       9.654  11.223  20.236  0.00  0.00    +0.000 A 
ATOM     20  N   UNL     1      10.585  12.130  20.669  0.00  0.00    +0.000 N 
ATOM     21  C   UNL     1      11.080  12.848  19.607  0.00  0.00    +0.000 A 
ATOM     22  C   UNL     1      12.026  13.879  19.574  0.00  0.00    +0.000 A 
ATOM     23  C   UNL     1      12.331  14.442  18.331  0.00  0.00    +0.000 A 
ATOM     24  C   UNL     1      11.724  13.979  17.166  0.00  0.00    +0.000 A 
ATOM     25  C   UNL     1      10.790  12.939  17.215  0.00  0.00    +0.000 A 
ATOM     26  C   UNL     1      10.454  12.363  18.457  0.00  0.00    +0.000 A 
ATOM     27  H   UNL     1      10.866  12.263  21.630  0.00  0.00    +0.000 HD
ENDBRANCH  17  18
ENDBRANCH  16  17
ENDBRANCH   3  16
TORSDOF 6
ENDMDL
MODEL 7
REMARK VINA RESULT:      -7.4      5.969      9.762
REMARK  Name = 
REMARK  6 active torsions:
REMARK  status: ('A' for Active; 'I' for Inactive)
REMARK    1  A    between atoms: C_2  and  C_3
REMARK    2  A    between atoms: C_3  and  N_4
REMARK    3  A    between atoms: C_5  and  C_7
REMARK    4  A    between atoms: N_13  and  C_14
REMARK    5  A    between atoms: C_14  and  C_15
REMARK    6  A    between atoms: C_15  and  C_16
REMARK                            x       y       z     vdW  Elec       q    Type
REMARK                         _______ _______ _______ _____ _____    ______ ____
ROOT
ATOM      1  O   UNL     1       2.215   7.620  19.564  0.00  0.00    +0.000 OA
ATOM      2  C   UNL     1       2.235   8.188  18.479  0.00  0.00    +0.000 C 
ATOM      3  N   UNL     1       3.134   7.871  17.473  0.00  0.00    +0.000 N 
ATOM      4  H   UNL     1       3.170   8.484  16.664  0.00  0.00    +0.000 HD
ENDROOT
BRANCH   2   5
ATOM      5  C   UNL     1       1.274   9.343  18.151  0.00  0.00    +0.000 C 
BRANCH   5   6
ATOM      6  N   UNL     1       0.808  10.051  19.329  0.00  0.00    +0.000 N 
ATOM      7  C   UNL     1      -0.512  10.394  19.476  0.00  0.00    +0.000 C 
ATOM      8  O   UNL     1      -1.367  10.107  18.633  0.00  0.00    +0.000 OA
ATOM      9  H   UNL     1       1.453  10.239  20.095  0.00  0.00    +0.000 HD
BRANCH   7  10
ATOM     10  C   UNL     1      -0.883  11.137  20.711  0.00  0.00    +0.000 A 
ATOM     11  C   UNL     1      -0.357  10.756  21.939  0.00  0.00    +0.000 A 
ATOM     12  N   UNL     1      -0.664  11.400  23.095  0.00  0.00    +0.000 NA
ATOM     13  C   UNL     1      -1.517  12.443  22.966  0.00  0.00    +0.000 A 
ATOM     14  C   UNL     1      -2.039  12.824  21.739  0.00  0.00    +0.000 A 
ATOM     15  N   UNL     1      -1.740  12.191  20.577  0.00  0.00    +0.000 NA
ENDBRANCH   7  10
ENDBRANCH   5   6
ENDBRANCH   2   5
BRANCH   3  16
ATOM     16  C   UNL     1       4.156   6.842  17.637  0.00  0.00    +0.000 C 
BRANCH  16  17
ATOM     17  C   UNL     1       3.627   5.451  17.274  0.00  0.00    +0.000 C 
BRANCH  17  18
ATOM     18  C   UNL     1       3.891   4.438  18.345  0.00  0.00    +0.000 A 
ATOM     19  C   UNL     1       5.075   3.762  18.564  0.00  0.00    +0.000 A 
ATOM     20  N   UNL     1       4.909   2.939  19.647  0.00  0.00    +0.000 N 
ATOM     21  C   UNL     1       3.625   3.041  20.128  0.00  0.00    +0.000 A 
ATOM     22  C   UNL     1       3.005   2.383  21.197  0.00  0.00    +0.000 A 
ATOM     23  C   UNL     1       1.663   2.681  21.451  0.00  0.00    +0.000 A 
ATOM     24  C   UNL     1       0.975   3.611  20.676  0.00  0.00    +0.000 A 
ATOM     25  C   UNL     1       1.613   4.268  19.619  0.00  0.00    +0.000 A 
ATOM     26  C   UNL     1       2.962   3.977  19.332  0.00  0.00    +0.000 A 
ATOM     27  H   UNL     1       5.620   2.338  20.036  0.00  0.00    +0.000 HD
ENDBRANCH  17  18
ENDBRANCH  16  17
ENDBRANCH   3  16
TORSDOF 6
ENDMDL
MODEL 8
REMARK VINA RESULT:      -7.4      1.434      2.064
REMARK  Name = 
REMARK  6 active torsions:
REMARK  status: ('A' for Active; 'I' for Inactive)
REMARK    1  A    between atoms: C_2  and  C_3
REMARK    2  A    between atoms: C_3  and  N_4
REMARK    3  A    between atoms: C_5  and  C_7
REMARK    4  A    between atoms: N_13  and  C_14
REMARK    5  A    between atoms: C_14  and  C_15
REMARK    6  A    between atoms: C_15  and  C_16
REMARK                            x       y       z     vdW  Elec       q    Type
REMARK                         _______ _______ _______ _____ _____    ______ ____
ROOT
ATOM      1  O   UNL     1       6.622   7.487  16.928  0.00  0.00    +0.000 OA
ATOM      2  C   UNL     1       7.424   7.185  17.803  0.00  0.00    +0.000 C 
ATOM      3  N   UNL     1       8.288   8.097  18.389  0.00  0.00    +0.000 N 
ATOM      4  H   UNL     1       9.011   7.733  19.003  0.00  0.00    +0.000 HD
ENDROOT
BRANCH   2   5
ATOM      5  C   UNL     1       7.566   5.739  18.308  0.00  0.00    +0.000 C 
BRANCH   5   6
ATOM      6  N   UNL     1       6.291   5.088  18.543  0.00  0.00    +0.000 N 
ATOM      7  C   UNL     1       5.701   4.312  17.578  0.00  0.00    +0.000 C 
ATOM      8  O   UNL     1       6.225   4.112  16.478  0.00  0.00    +0.000 OA
ATOM      9  H   UNL     1       5.852   5.149  19.461  0.00  0.00    +0.000 HD
BRANCH   7  10
ATOM     10  C   UNL     1       4.383   3.706  17.911  0.00  0.00    +0.000 A 
ATOM     11  C   UNL     1       3.290   3.913  17.080  0.00  0.00    +0.000 A 
ATOM     12  N   UNL     1       2.066   3.384  17.339  0.00  0.00    +0.000 NA
ATOM     13  C   UNL     1       1.987   2.635  18.464  0.00  0.00    +0.000 A 
ATOM     14  C   UNL     1       3.080   2.426  19.291  0.00  0.00    +0.000 A 
ATOM     15  N   UNL     1       4.308   2.948  19.044  0.00  0.00    +0.000 NA
ENDBRANCH   7  10
ENDBRANCH   5   6
ENDBRANCH   2   5
BRANCH   3  16
ATOM     16  C   UNL     1       8.330   9.499  17.986  0.00  0.00    +0.000 C 
BRANCH  16  17
ATOM     17  C   UNL     1       9.105  10.357  18.990  0.00  0.00    +0.000 C 
BRANCH  17  18
ATOM     18  C   UNL     1       9.923  11.422  18.324  0.00  0.00    +0.000 A 
ATOM     19  C   UNL     1      11.075  11.232  17.586  0.00  0.00    +0.000 A 
ATOM     20  N   UNL     1      11.506  12.454  17.139  0.00  0.00    +0.000 N 
ATOM     21  C   UNL     1      10.673  13.448  17.595  0.00  0.00    +0.000 A 
ATOM     22  C   UNL     1      10.732  14.833  17.406  0.00  0.00    +0.000 A 
ATOM     23  C   UNL     1       9.740  15.613  18.009  0.00  0.00    +0.000 A 
ATOM     24  C   UNL     1       8.723  15.026  18.758  0.00  0.00    +0.000 A 
ATOM     25  C   UNL     1       8.673  13.639  18.927  0.00  0.00    +0.000 A 
ATOM     26  C   UNL     1       9.668  12.830  18.341  0.00  0.00    +0.000 A 
ATOM     27  H   UNL     1      12.321  12.609  16.564  0.00  0.00    +0.000 HD
ENDBRANCH  17  18
ENDBRANCH  16  17
ENDBRANCH   3  16
TORSDOF 6
ENDMDL
MODEL 9
REMARK VINA RESULT:      -7.3      1.601      1.977
REMARK  Name = 
REMARK  6 active torsions:
REMARK  status: ('A' for Active; 'I' for Inactive)
REMARK    1  A    between atoms: C_2  and  C_3
REMARK    2  A    between atoms: C_3  and  N_4
REMARK    3  A    between atoms: C_5  and  C_7
REMARK    4  A    between atoms: N_13  and  C_14
REMARK    5  A    between atoms: C_14  and  C_15
REMARK    6  A    between atoms: C_15  and  C_16
REMARK                            x       y       z     vdW  Elec       q    Type
REMARK                         _______ _______ _______ _____ _____    ______ ____
ROOT
ATOM      1  O   UNL     1       6.462   7.850  17.056  0.00  0.00    +0.000 OA
ATOM      2  C   UNL     1       7.390   7.304  17.639  0.00  0.00    +0.000 C 
ATOM      3  N   UNL     1       8.398   8.004  18.284  0.00  0.00    +0.000 N 
ATOM      4  H   UNL     1       9.198   7.476  18.619  0.00  0.00    +0.000 HD
ENDROOT
BRANCH   2   5
ATOM      5  C   UNL     1       7.538   5.773  17.673  0.00  0.00    +0.000 C 
BRANCH   5   6
ATOM      6  N   UNL     1       6.270   5.075  17.584  0.00  0.00    +0.000 N 
ATOM      7  C   UNL     1       5.617   4.641  18.709  0.00  0.00    +0.000 C 
ATOM      8  O   UNL     1       6.058   4.834  19.846  0.00  0.00    +0.000 OA
ATOM      9  H   UNL     1       5.817   4.961  16.678  0.00  0.00    +0.000 HD
BRANCH   7  10
ATOM     10  C   UNL     1       4.332   3.916  18.508  0.00  0.00    +0.000 A 
ATOM     11  C   UNL     1       3.667   4.000  17.292  0.00  0.00    +0.000 A 
ATOM     12  N   UNL     1       2.492   3.359  17.057  0.00  0.00    +0.000 NA
ATOM     13  C   UNL     1       2.017   2.628  18.092  0.00  0.00    +0.000 A 
ATOM     14  C   UNL     1       2.684   2.542  19.305  0.00  0.00    +0.000 A 
ATOM     15  N   UNL     1       3.858   3.176  19.552  0.00  0.00    +0.000 NA
ENDBRANCH   7  10
ENDBRANCH   5   6
ENDBRANCH   2   5
BRANCH   3  16
ATOM     16  C   UNL     1       8.447   9.462  18.298  0.00  0.00    +0.000 C 
BRANCH  16  17
ATOM     17  C   UNL     1       9.403   9.991  19.371  0.00  0.00    +0.000 C 
BRANCH  17  18
ATOM     18  C   UNL     1       9.452  11.487  19.411  0.00  0.00    +0.000 A 
ATOM     19  C   UNL     1       8.823  12.307  20.327  0.00  0.00    +0.000 A 
ATOM     20  N   UNL     1       9.131  13.607  20.026  0.00  0.00    +0.000 N 
ATOM     21  C   UNL     1       9.929  13.660  18.908  0.00  0.00    +0.000 A 
ATOM     22  C   UNL     1      10.469  14.761  18.233  0.00  0.00    +0.000 A 
ATOM     23  C   UNL     1      11.246  14.510  17.098  0.00  0.00    +0.000 A 
ATOM     24  C   UNL     1      11.486  13.207  16.667  0.00  0.00    +0.000 A 
ATOM     25  C   UNL     1      10.949  12.118  17.361  0.00  0.00    +0.000 A 
ATOM     26  C   UNL     1      10.150  12.343  18.500  0.00  0.00    +0.000 A 
ATOM     27  H   UNL     1       8.815  14.415  20.541  0.00  0.00    +0.000 HD
ENDBRANCH  17  18
ENDBRANCH  16  17
ENDBRANCH   3  16
TORSDOF 6
ENDMDL
