MODEL 1
REMARK VINA RESULT:      -6.8      0.000      0.000
REMARK  Name = 
REMARK  10 active torsions:
REMARK  status: ('A' for Active; 'I' for Inactive)
REMARK    1  A    between atoms: C_1  and  N_2
REMARK    2  A    between atoms: N_2  and  C_3
REMARK    3  A    between atoms: C_3  and  C_4
REMARK    4  A    between atoms: C_4  and  C_5
REMARK    5  A    between atoms: C_9  and  C_11
REMARK    6  A    between atoms: C_16  and  O_18
REMARK    7  A    between atoms: O_18  and  C_19
REMARK    8  A    between atoms: C_19  and  C_20
REMARK    9  A    between atoms: C_19  and  C_21
REMARK   10  A    between atoms: C_19  and  C_22
REMARK                            x       y       z     vdW  Elec       q    Type
REMARK                         _______ _______ _______ _____ _____    ______ ____
ROOT
ATOM      1  C   UNL     1       4.349   6.176  18.001  0.00  0.00    +0.000 C 
ATOM      2  C   UNL     1       3.711   7.378  17.288  0.00  0.00    +0.000 C 
ATOM      3  S   UNL     1       2.234   7.862  18.231  0.00  0.00    +0.000 S 
ATOM      4  C   UNL     1       2.616   6.779  19.615  0.00  0.00    +0.000 C 
ATOM      5  N   UNL     1       3.462   5.749  19.088  0.00  0.00    +0.000 N 
ATOM      6  C   UNL     1       3.753   4.594  19.775  0.00  0.00    +0.000 C 
ATOM      7  O   UNL     1       4.734   3.915  19.520  0.00  0.00    +0.000 OA
ENDROOT
BRANCH   1  10
ATOM      8  C   UNL     1       5.896   3.647  15.543  0.00  0.00    +0.000 C 
ATOM      9  N   UNL     1       5.797   4.867  16.341  0.00  0.00    +0.000 N 
ATOM     10  C   UNL     1       4.537   5.059  16.938  0.00  0.00    +0.000 C 
ATOM     11  O   UNL     1       3.572   4.354  16.616  0.00  0.00    +0.000 OA
BRANCH   9  12
ATOM     12  C   UNL     1       7.033   5.511  16.825  0.00  0.00    +0.000 C 
BRANCH  12  13
ATOM     13  C   UNL     1       7.777   4.783  17.945  0.00  0.00    +0.000 C 
BRANCH  13  14
ATOM     14  C   UNL     1       7.980   5.675  19.154  0.00  0.00    +0.000 C 
ATOM     15  F   UNL     1       6.860   5.824  19.888  0.00  0.00    +0.000 F 
ATOM     16  F   UNL     1       8.936   5.168  19.964  0.00  0.00    +0.000 F 
ATOM     17  F   UNL     1       8.386   6.906  18.774  0.00  0.00    +0.000 F 
ENDBRANCH  13  14
ENDBRANCH  12  13
ENDBRANCH   9  12
ENDBRANCH   1  10
BRANCH   6  18
ATOM     18  O   UNL     1       2.798   4.258  20.687  0.00  0.00    +0.000 OA
BRANCH  18  19
ATOM     19  C   UNL     1       1.913   3.151  20.364  0.00  0.00    +0.000 C 
ATOM     20  C   UNL     1       2.521   2.122  19.402  0.00  0.00    +0.000 C 
ATOM     21  C   UNL     1       1.620   2.427  21.690  0.00  0.00    +0.000 C 
ATOM     22  C   UNL     1       0.586   3.718  19.830  0.00  0.00    +0.000 C 
ENDBRANCH  18  19
ENDBRANCH   6  18
TORSDOF 6
ENDMDL
MODEL 2
REMARK VINA RESULT:      -6.6      0.104      1.196
REMARK  Name = 
REMARK  10 active torsions:
REMARK  status: ('A' for Active; 'I' for Inactive)
REMARK    1  A    between atoms: C_1  and  N_2
REMARK    2  A    between atoms: N_2  and  C_3
REMARK    3  A    between atoms: C_3  and  C_4
REMARK    4  A    between atoms: C_4  and  C_5
REMARK    5  A    between atoms: C_9  and  C_11
REMARK    6  A    between atoms: C_16  and  O_18
REMARK    7  A    between atoms: O_18  and  C_19
REMARK    8  A    between atoms: C_19  and  C_20
REMARK    9  A    between atoms: C_19  and  C_21
REMARK   10  A    between atoms: C_19  and  C_22
REMARK                            x       y       z     vdW  Elec       q    Type
REMARK                         _______ _______ _______ _____ _____    ______ ____
ROOT
ATOM      1  C   UNL     1       4.367   6.164  17.998  0.00  0.00    +0.000 C 
ATOM      2  C   UNL     1       3.730   7.369  17.290  0.00  0.00    +0.000 C 
ATOM      3  S   UNL     1       2.254   7.850  18.235  0.00  0.00    +0.000 S 
ATOM      4  C   UNL     1       2.636   6.762  19.615  0.00  0.00    +0.000 C 
ATOM      5  N   UNL     1       3.481   5.733  19.084  0.00  0.00    +0.000 N 
ATOM      6  C   UNL     1       3.771   4.576  19.767  0.00  0.00    +0.000 C 
ATOM      7  O   UNL     1       4.751   3.896  19.509  0.00  0.00    +0.000 OA
ENDROOT
BRANCH   1  10
ATOM      8  C   UNL     1       5.910   3.642  15.530  0.00  0.00    +0.000 C 
ATOM      9  N   UNL     1       5.813   4.859  16.333  0.00  0.00    +0.000 N 
ATOM     10  C   UNL     1       4.553   5.050  16.931  0.00  0.00    +0.000 C 
ATOM     11  O   UNL     1       3.587   4.348  16.607  0.00  0.00    +0.000 OA
BRANCH   9  12
ATOM     12  C   UNL     1       7.050   5.498  16.820  0.00  0.00    +0.000 C 
BRANCH  12  13
ATOM     13  C   UNL     1       7.787   4.770  17.943  0.00  0.00    +0.000 C 
BRANCH  13  14
ATOM     14  C   UNL     1       7.994   5.664  19.150  0.00  0.00    +0.000 C 
ATOM     15  F   UNL     1       8.928   5.189  19.998  0.00  0.00    +0.000 F 
ATOM     16  F   UNL     1       8.380   6.901  18.767  0.00  0.00    +0.000 F 
ATOM     17  F   UNL     1       6.843   5.797  19.845  0.00  0.00    +0.000 F 
ENDBRANCH  13  14
ENDBRANCH  12  13
ENDBRANCH   9  12
ENDBRANCH   1  10
BRANCH   6  18
ATOM     18  O   UNL     1       2.816   4.237  20.679  0.00  0.00    +0.000 OA
BRANCH  18  19
ATOM     19  C   UNL     1       1.921   3.140  20.346  0.00  0.00    +0.000 C 
ATOM     20  C   UNL     1       0.706   3.554  19.505  0.00  0.00    +0.000 C 
ATOM     21  C   UNL     1       2.746   2.146  19.508  0.00  0.00    +0.000 C 
ATOM     22  C   UNL     1       1.503   2.431  21.646  0.00  0.00    +0.000 C 
ENDBRANCH  18  19
ENDBRANCH   6  18
TORSDOF 6
ENDMDL
MODEL 3
REMARK VINA RESULT:      -6.0      0.988      1.554
REMARK  Name = 
REMARK  10 active torsions:
REMARK  status: ('A' for Active; 'I' for Inactive)
REMARK    1  A    between atoms: C_1  and  N_2
REMARK    2  A    between atoms: N_2  and  C_3
REMARK    3  A    between atoms: C_3  and  C_4
REMARK    4  A    between atoms: C_4  and  C_5
REMARK    5  A    between atoms: C_9  and  C_11
REMARK    6  A    between atoms: C_16  and  O_18
REMARK    7  A    between atoms: O_18  and  C_19
REMARK    8  A    between atoms: C_19  and  C_20
REMARK    9  A    between atoms: C_19  and  C_21
REMARK   10  A    between atoms: C_19  and  C_22
REMARK                            x       y       z     vdW  Elec       q    Type
REMARK                         _______ _______ _______ _____ _____    ______ ____
ROOT
ATOM      1  C   UNL     1       4.354   6.242  18.080  0.00  0.00    +0.000 C 
ATOM      2  C   UNL     1       3.687   7.415  17.346  0.00  0.00    +0.000 C 
ATOM      3  S   UNL     1       2.180   7.857  18.261  0.00  0.00    +0.000 S 
ATOM      4  C   UNL     1       2.577   6.801  19.662  0.00  0.00    +0.000 C 
ATOM      5  N   UNL     1       3.466   5.795  19.159  0.00  0.00    +0.000 N 
ATOM      6  C   UNL     1       3.785   4.658  19.862  0.00  0.00    +0.000 C 
ATOM      7  O   UNL     1       4.792   4.010  19.629  0.00  0.00    +0.000 OA
ENDROOT
BRANCH   1  10
ATOM      8  C   UNL     1       6.024   3.679  15.741  0.00  0.00    +0.000 C 
ATOM      9  N   UNL     1       5.893   4.900  16.532  0.00  0.00    +0.000 N 
ATOM     10  C   UNL     1       4.596   5.122  17.032  0.00  0.00    +0.000 C 
ATOM     11  O   UNL     1       3.642   4.440  16.636  0.00  0.00    +0.000 OA
BRANCH   9  12
ATOM     12  C   UNL     1       7.104   5.513  17.112  0.00  0.00    +0.000 C 
BRANCH  12  13
ATOM     13  C   UNL     1       7.492   6.885  16.563  0.00  0.00    +0.000 C 
BRANCH  13  14
ATOM     14  C   UNL     1       7.774   7.875  17.676  0.00  0.00    +0.000 C 
ATOM     15  F   UNL     1       8.722   8.776  17.347  0.00  0.00    +0.000 F 
ATOM     16  F   UNL     1       6.655   8.559  18.001  0.00  0.00    +0.000 F 
ATOM     17  F   UNL     1       8.192   7.233  18.789  0.00  0.00    +0.000 F 
ENDBRANCH  13  14
ENDBRANCH  12  13
ENDBRANCH   9  12
ENDBRANCH   1  10
BRANCH   6  18
ATOM     18  O   UNL     1       2.828   4.299  20.763  0.00  0.00    +0.000 OA
BRANCH  18  19
ATOM     19  C   UNL     1       1.947   3.196  20.411  0.00  0.00    +0.000 C 
ATOM     20  C   UNL     1       2.556   2.200  19.414  0.00  0.00    +0.000 C 
ATOM     21  C   UNL     1       1.668   2.430  21.717  0.00  0.00    +0.000 C 
ATOM     22  C   UNL     1       0.613   3.770  19.904  0.00  0.00    +0.000 C 
ENDBRANCH  18  19
ENDBRANCH   6  18
TORSDOF 6
ENDMDL
MODEL 4
REMARK VINA RESULT:      -5.8      0.987      1.708
REMARK  Name = 
REMARK  10 active torsions:
REMARK  status: ('A' for Active; 'I' for Inactive)
REMARK    1  A    between atoms: C_1  and  N_2
REMARK    2  A    between atoms: N_2  and  C_3
REMARK    3  A    between atoms: C_3  and  C_4
REMARK    4  A    between atoms: C_4  and  C_5
REMARK    5  A    between atoms: C_9  and  C_11
REMARK    6  A    between atoms: C_16  and  O_18
REMARK    7  A    between atoms: O_18  and  C_19
REMARK    8  A    between atoms: C_19  and  C_20
REMARK    9  A    between atoms: C_19  and  C_21
REMARK   10  A    between atoms: C_19  and  C_22
REMARK                            x       y       z     vdW  Elec       q    Type
REMARK                         _______ _______ _______ _____ _____    ______ ____
ROOT
ATOM      1  C   UNL     1       4.335   6.258  18.066  0.00  0.00    +0.000 C 
ATOM      2  C   UNL     1       3.676   7.417  17.303  0.00  0.00    +0.000 C 
ATOM      3  S   UNL     1       2.170   7.888  18.204  0.00  0.00    +0.000 S 
ATOM      4  C   UNL     1       2.559   6.863  19.630  0.00  0.00    +0.000 C 
ATOM      5  N   UNL     1       3.443   5.841  19.153  0.00  0.00    +0.000 N 
ATOM      6  C   UNL     1       3.755   4.719  19.883  0.00  0.00    +0.000 C 
ATOM      7  O   UNL     1       4.759   4.061  19.667  0.00  0.00    +0.000 OA
ENDROOT
BRANCH   1  10
ATOM      8  C   UNL     1       5.997   3.634  15.789  0.00  0.00    +0.000 C 
ATOM      9  N   UNL     1       5.871   4.874  16.551  0.00  0.00    +0.000 N 
ATOM     10  C   UNL     1       4.574   5.112  17.045  0.00  0.00    +0.000 C 
ATOM     11  O   UNL     1       3.617   4.425  16.664  0.00  0.00    +0.000 OA
BRANCH   9  12
ATOM     12  C   UNL     1       7.083   5.496  17.117  0.00  0.00    +0.000 C 
BRANCH  12  13
ATOM     13  C   UNL     1       7.452   6.873  16.566  0.00  0.00    +0.000 C 
BRANCH  13  14
ATOM     14  C   UNL     1       7.777   7.852  17.677  0.00  0.00    +0.000 C 
ATOM     15  F   UNL     1       8.235   7.245  18.791  0.00  0.00    +0.000 F 
ATOM     16  F   UNL     1       8.719   8.734  17.276  0.00  0.00    +0.000 F 
ATOM     17  F   UNL     1       6.680   8.562  18.021  0.00  0.00    +0.000 F 
ENDBRANCH  13  14
ENDBRANCH  12  13
ENDBRANCH   9  12
ENDBRANCH   1  10
BRANCH   6  18
ATOM     18  O   UNL     1       2.794   4.386  20.790  0.00  0.00    +0.000 OA
BRANCH  18  19
ATOM     19  C   UNL     1       1.980   3.213  20.514  0.00  0.00    +0.000 C 
ATOM     20  C   UNL     1       1.571   2.423  21.765  0.00  0.00    +0.000 C 
ATOM     21  C   UNL     1       0.690   3.727  19.850  0.00  0.00    +0.000 C 
ATOM     22  C   UNL     1       2.717   2.327  19.495  0.00  0.00    +0.000 C 
ENDBRANCH  18  19
ENDBRANCH   6  18
TORSDOF 6
ENDMDL
MODEL 5
REMARK VINA RESULT:      -5.8      0.992      1.568
REMARK  Name = 
REMARK  10 active torsions:
REMARK  status: ('A' for Active; 'I' for Inactive)
REMARK    1  A    between atoms: C_1  and  N_2
REMARK    2  A    between atoms: N_2  and  C_3
REMARK    3  A    between atoms: C_3  and  C_4
REMARK    4  A    between atoms: C_4  and  C_5
REMARK    5  A    between atoms: C_9  and  C_11
REMARK    6  A    between atoms: C_16  and  O_18
REMARK    7  A    between atoms: O_18  and  C_19
REMARK    8  A    between atoms: C_19  and  C_20
REMARK    9  A    between atoms: C_19  and  C_21
REMARK   10  A    between atoms: C_19  and  C_22
REMARK                            x       y       z     vdW  Elec       q    Type
REMARK                         _______ _______ _______ _____ _____    ______ ____
ROOT
ATOM      1  C   UNL     1       4.326   6.239  18.092  0.00  0.00    +0.000 C 
ATOM      2  C   UNL     1       3.657   7.406  17.351  0.00  0.00    +0.000 C 
ATOM      3  S   UNL     1       2.146   7.846  18.261  0.00  0.00    +0.000 S 
ATOM      4  C   UNL     1       2.543   6.797  19.666  0.00  0.00    +0.000 C 
ATOM      5  N   UNL     1       3.437   5.792  19.169  0.00  0.00    +0.000 N 
ATOM      6  C   UNL     1       3.758   4.659  19.877  0.00  0.00    +0.000 C 
ATOM      7  O   UNL     1       4.769   4.014  19.649  0.00  0.00    +0.000 OA
ENDROOT
BRANCH   1  10
ATOM      8  C   UNL     1       6.012   3.664  15.775  0.00  0.00    +0.000 C 
ATOM      9  N   UNL     1       5.877   4.888  16.563  0.00  0.00    +0.000 N 
ATOM     10  C   UNL     1       4.575   5.115  17.048  0.00  0.00    +0.000 C 
ATOM     11  O   UNL     1       3.623   4.437  16.643  0.00  0.00    +0.000 OA
BRANCH   9  12
ATOM     12  C   UNL     1       7.084   5.497  17.154  0.00  0.00    +0.000 C 
BRANCH  12  13
ATOM     13  C   UNL     1       7.507   6.848  16.579  0.00  0.00    +0.000 C 
BRANCH  13  14
ATOM     14  C   UNL     1       7.763   7.867  17.672  0.00  0.00    +0.000 C 
ATOM     15  F   UNL     1       6.655   8.556  18.014  0.00  0.00    +0.000 F 
ATOM     16  F   UNL     1       8.230   7.264  18.787  0.00  0.00    +0.000 F 
ATOM     17  F   UNL     1       8.694   8.764  17.277  0.00  0.00    +0.000 F 
ENDBRANCH  13  14
ENDBRANCH  12  13
ENDBRANCH   9  12
ENDBRANCH   1  10
BRANCH   6  18
ATOM     18  O   UNL     1       2.800   4.299  20.777  0.00  0.00    +0.000 OA
BRANCH  18  19
ATOM     19  C   UNL     1       1.924   3.194  20.426  0.00  0.00    +0.000 C 
ATOM     20  C   UNL     1       0.702   3.602  19.592  0.00  0.00    +0.000 C 
ATOM     21  C   UNL     1       2.764   2.227  19.573  0.00  0.00    +0.000 C 
ATOM     22  C   UNL     1       1.516   2.457  21.714  0.00  0.00    +0.000 C 
ENDBRANCH  18  19
ENDBRANCH   6  18
TORSDOF 6
ENDMDL
MODEL 6
REMARK VINA RESULT:      -5.8      3.280      4.772
REMARK  Name = 
REMARK  10 active torsions:
REMARK  status: ('A' for Active; 'I' for Inactive)
REMARK    1  A    between atoms: C_1  and  N_2
REMARK    2  A    between atoms: N_2  and  C_3
REMARK    3  A    between atoms: C_3  and  C_4
REMARK    4  A    between atoms: C_4  and  C_5
REMARK    5  A    between atoms: C_9  and  C_11
REMARK    6  A    between atoms: C_16  and  O_18
REMARK    7  A    between atoms: O_18  and  C_19
REMARK    8  A    between atoms: C_19  and  C_20
REMARK    9  A    between atoms: C_19  and  C_21
REMARK   10  A    between atoms: C_19  and  C_22
REMARK                            x       y       z     vdW  Elec       q    Type
REMARK                         _______ _______ _______ _____ _____    ______ ____
ROOT
ATOM      1  C   UNL     1       3.433   4.843  18.886  0.00  0.00    +0.000 C 
ATOM      2  C   UNL     1       3.254   3.666  19.856  0.00  0.00    +0.000 C 
ATOM      3  S   UNL     1       2.092   4.188  21.152  0.00  0.00    +0.000 S 
ATOM      4  C   UNL     1       1.639   5.706  20.302  0.00  0.00    +0.000 C 
ATOM      5  N   UNL     1       2.734   6.012  19.430  0.00  0.00    +0.000 N 
ATOM      6  C   UNL     1       2.879   7.229  18.807  0.00  0.00    +0.000 C 
ATOM      7  O   UNL     1       3.560   7.370  17.805  0.00  0.00    +0.000 OA
ENDROOT
BRANCH   1  10
ATOM      8  C   UNL     1       6.983   5.299  17.462  0.00  0.00    +0.000 C 
ATOM      9  N   UNL     1       5.612   4.799  17.537  0.00  0.00    +0.000 N 
ATOM     10  C   UNL     1       4.959   5.097  18.748  0.00  0.00    +0.000 C 
ATOM     11  O   UNL     1       5.593   5.548  19.712  0.00  0.00    +0.000 OA
BRANCH   9  12
ATOM     12  C   UNL     1       4.897   4.473  16.288  0.00  0.00    +0.000 C 
BRANCH  12  13
ATOM     13  C   UNL     1       5.363   5.210  15.033  0.00  0.00    +0.000 C 
BRANCH  13  14
ATOM     14  C   UNL     1       5.985   4.264  14.025  0.00  0.00    +0.000 C 
ATOM     15  F   UNL     1       7.052   4.796  13.398  0.00  0.00    +0.000 F 
ATOM     16  F   UNL     1       6.390   3.124  14.627  0.00  0.00    +0.000 F 
ATOM     17  F   UNL     1       5.084   3.920  13.077  0.00  0.00    +0.000 F 
ENDBRANCH  13  14
ENDBRANCH  12  13
ENDBRANCH   9  12
ENDBRANCH   1  10
BRANCH   6  18
ATOM     18  O   UNL     1       2.262   8.247  19.471  0.00  0.00    +0.000 OA
BRANCH  18  19
ATOM     19  C   UNL     1       1.425   9.150  18.697  0.00  0.00    +0.000 C 
ATOM     20  C   UNL     1       0.675   8.475  17.541  0.00  0.00    +0.000 C 
ATOM     21  C   UNL     1       0.370   9.705  19.671  0.00  0.00    +0.000 C 
ATOM     22  C   UNL     1       2.286  10.328  18.209  0.00  0.00    +0.000 C 
ENDBRANCH  18  19
ENDBRANCH   6  18
TORSDOF 6
ENDMDL
MODEL 7
REMARK VINA RESULT:      -5.7      3.130      4.656
REMARK  Name = 
REMARK  10 active torsions:
REMARK  status: ('A' for Active; 'I' for Inactive)
REMARK    1  A    between atoms: C_1  and  N_2
REMARK    2  A    between atoms: N_2  and  C_3
REMARK    3  A    between atoms: C_3  and  C_4
REMARK    4  A    between atoms: C_4  and  C_5
REMARK    5  A    between atoms: C_9  and  C_11
REMARK    6  A    between atoms: C_16  and  O_18
REMARK    7  A    between atoms: O_18  and  C_19
REMARK    8  A    between atoms: C_19  and  C_20
REMARK    9  A    between atoms: C_19  and  C_21
REMARK   10  A    between atoms: C_19  and  C_22
REMARK                            x       y       z     vdW  Elec       q    Type
REMARK                         _______ _______ _______ _____ _____    ______ ____
ROOT
ATOM      1  C   UNL     1       3.503   4.543  19.024  0.00  0.00    +0.000 C 
ATOM      2  C   UNL     1       3.309   3.378  20.006  0.00  0.00    +0.000 C 
ATOM      3  S   UNL     1       2.124   3.914  21.276  0.00  0.00    +0.000 S 
ATOM      4  C   UNL     1       1.684   5.421  20.399  0.00  0.00    +0.000 C 
ATOM      5  N   UNL     1       2.793   5.718  19.542  0.00  0.00    +0.000 N 
ATOM      6  C   UNL     1       2.947   6.927  18.906  0.00  0.00    +0.000 C 
ATOM      7  O   UNL     1       3.645   7.056  17.914  0.00  0.00    +0.000 OA
ENDROOT
BRANCH   1  10
ATOM      8  C   UNL     1       7.094   4.883  17.674  0.00  0.00    +0.000 C 
ATOM      9  N   UNL     1       5.725   4.379  17.758  0.00  0.00    +0.000 N 
ATOM     10  C   UNL     1       5.031   4.797  18.909  0.00  0.00    +0.000 C 
ATOM     11  O   UNL     1       5.628   5.355  19.839  0.00  0.00    +0.000 OA
BRANCH   9  12
ATOM     12  C   UNL     1       5.054   3.915  16.528  0.00  0.00    +0.000 C 
BRANCH  12  13
ATOM     13  C   UNL     1       5.968   3.559  15.356  0.00  0.00    +0.000 C 
BRANCH  13  14
ATOM     14  C   UNL     1       5.823   4.544  14.213  0.00  0.00    +0.000 C 
ATOM     15  F   UNL     1       5.306   5.726  14.604  0.00  0.00    +0.000 F 
ATOM     16  F   UNL     1       7.022   4.791  13.641  0.00  0.00    +0.000 F 
ATOM     17  F   UNL     1       5.014   4.043  13.254  0.00  0.00    +0.000 F 
ENDBRANCH  13  14
ENDBRANCH  12  13
ENDBRANCH   9  12
ENDBRANCH   1  10
BRANCH   6  18
ATOM     18  O   UNL     1       2.318   7.953  19.546  0.00  0.00    +0.000 OA
BRANCH  18  19
ATOM     19  C   UNL     1       1.581   8.907  18.733  0.00  0.00    +0.000 C 
ATOM     20  C   UNL     1       2.467   9.932  18.011  0.00  0.00    +0.000 C 
ATOM     21  C   UNL     1       0.850   8.087  17.655  0.00  0.00    +0.000 C 
ATOM     22  C   UNL     1       0.518   9.589  19.612  0.00  0.00    +0.000 C 
ENDBRANCH  18  19
ENDBRANCH   6  18
TORSDOF 6
ENDMDL
MODEL 8
REMARK VINA RESULT:      -5.7      3.045      5.902
REMARK  Name = 
REMARK  10 active torsions:
REMARK  status: ('A' for Active; 'I' for Inactive)
REMARK    1  A    between atoms: C_1  and  N_2
REMARK    2  A    between atoms: N_2  and  C_3
REMARK    3  A    between atoms: C_3  and  C_4
REMARK    4  A    between atoms: C_4  and  C_5
REMARK    5  A    between atoms: C_9  and  C_11
REMARK    6  A    between atoms: C_16  and  O_18
REMARK    7  A    between atoms: O_18  and  C_19
REMARK    8  A    between atoms: C_19  and  C_20
REMARK    9  A    between atoms: C_19  and  C_21
REMARK   10  A    between atoms: C_19  and  C_22
REMARK                            x       y       z     vdW  Elec       q    Type
REMARK                         _______ _______ _______ _____ _____    ______ ____
ROOT
ATOM      1  C   UNL     1       5.233   4.882  18.447  0.00  0.00    +0.000 C 
ATOM      2  C   UNL     1       6.132   5.425  19.568  0.00  0.00    +0.000 C 
ATOM      3  S   UNL     1       7.800   5.649  18.880  0.00  0.00    +0.000 S 
ATOM      4  C   UNL     1       7.270   5.360  17.186  0.00  0.00    +0.000 C 
ATOM      5  N   UNL     1       6.065   4.590  17.275  0.00  0.00    +0.000 N 
ATOM      6  C   UNL     1       5.501   3.953  16.195  0.00  0.00    +0.000 C 
ATOM      7  O   UNL     1       4.324   3.631  16.171  0.00  0.00    +0.000 OA
ENDROOT
BRANCH   1  10
ATOM      8  C   UNL     1       2.603   2.234  19.398  0.00  0.00    +0.000 C 
ATOM      9  N   UNL     1       3.135   3.560  19.096  0.00  0.00    +0.000 N 
ATOM     10  C   UNL     1       4.538   3.604  18.994  0.00  0.00    +0.000 C 
ATOM     11  O   UNL     1       5.228   2.639  19.348  0.00  0.00    +0.000 OA
BRANCH   9  12
ATOM     12  C   UNL     1       2.244   4.571  18.495  0.00  0.00    +0.000 C 
BRANCH  12  13
ATOM     13  C   UNL     1       2.125   5.896  19.247  0.00  0.00    +0.000 C 
BRANCH  13  14
ATOM     14  C   UNL     1       1.542   5.704  20.632  0.00  0.00    +0.000 C 
ATOM     15  F   UNL     1       0.482   4.871  20.642  0.00  0.00    +0.000 F 
ATOM     16  F   UNL     1       2.469   5.198  21.474  0.00  0.00    +0.000 F 
ATOM     17  F   UNL     1       1.135   6.887  21.145  0.00  0.00    +0.000 F 
ENDBRANCH  13  14
ENDBRANCH  12  13
ENDBRANCH   9  12
ENDBRANCH   1  10
BRANCH   6  18
ATOM     18  O   UNL     1       6.404   3.650  15.220  0.00  0.00    +0.000 OA
BRANCH  18  19
ATOM     19  C   UNL     1       6.269   4.326  13.940  0.00  0.00    +0.000 C 
ATOM     20  C   UNL     1       5.586   3.484  12.854  0.00  0.00    +0.000 C 
ATOM     21  C   UNL     1       5.384   5.561  14.192  0.00  0.00    +0.000 C 
ATOM     22  C   UNL     1       7.655   4.820  13.492  0.00  0.00    +0.000 C 
ENDBRANCH  18  19
ENDBRANCH   6  18
TORSDOF 6
ENDMDL
MODEL 9
REMARK VINA RESULT:      -5.7      3.079      4.432
REMARK  Name = 
REMARK  10 active torsions:
REMARK  status: ('A' for Active; 'I' for Inactive)
REMARK    1  A    between atoms: C_1  and  N_2
REMARK    2  A    between atoms: N_2  and  C_3
REMARK    3  A    between atoms: C_3  and  C_4
REMARK    4  A    between atoms: C_4  and  C_5
REMARK    5  A    between atoms: C_9  and  C_11
REMARK    6  A    between atoms: C_16  and  O_18
REMARK    7  A    between atoms: O_18  and  C_19
REMARK    8  A    between atoms: C_19  and  C_20
REMARK    9  A    between atoms: C_19  and  C_21
REMARK   10  A    between atoms: C_19  and  C_22
REMARK                            x       y       z     vdW  Elec       q    Type
REMARK                         _______ _______ _______ _____ _____    ______ ____
ROOT
ATOM      1  C   UNL     1       3.196   4.821  18.610  0.00  0.00    +0.000 C 
ATOM      2  C   UNL     1       3.203   3.287  18.670  0.00  0.00    +0.000 C 
ATOM      3  S   UNL     1       1.952   2.774  19.884  0.00  0.00    +0.000 S 
ATOM      4  C   UNL     1       1.263   4.427  20.050  0.00  0.00    +0.000 C 
ATOM      5  N   UNL     1       2.303   5.330  19.657  0.00  0.00    +0.000 N 
ATOM      6  C   UNL     1       2.250   6.683  19.894  0.00  0.00    +0.000 C 
ATOM      7  O   UNL     1       2.913   7.482  19.252  0.00  0.00    +0.000 OA
ENDROOT
BRANCH   1  10
ATOM      8  C   UNL     1       6.635   6.491  18.143  0.00  0.00    +0.000 C 
ATOM      9  N   UNL     1       5.366   5.882  17.753  0.00  0.00    +0.000 N 
ATOM     10  C   UNL     1       4.660   5.296  18.821  0.00  0.00    +0.000 C 
ATOM     11  O   UNL     1       5.198   5.144  19.925  0.00  0.00    +0.000 OA
BRANCH   9  12
ATOM     12  C   UNL     1       4.730   6.296  16.487  0.00  0.00    +0.000 C 
BRANCH  12  13
ATOM     13  C   UNL     1       5.437   5.861  15.204  0.00  0.00    +0.000 C 
BRANCH  13  14
ATOM     14  C   UNL     1       5.526   4.351  15.097  0.00  0.00    +0.000 C 
ATOM     15  F   UNL     1       6.624   3.849  15.698  0.00  0.00    +0.000 F 
ATOM     16  F   UNL     1       4.447   3.768  15.664  0.00  0.00    +0.000 F 
ATOM     17  F   UNL     1       5.558   3.967  13.802  0.00  0.00    +0.000 F 
ENDBRANCH  13  14
ENDBRANCH  12  13
ENDBRANCH   9  12
ENDBRANCH   1  10
BRANCH   6  18
ATOM     18  O   UNL     1       1.463   7.011  20.956  0.00  0.00    +0.000 OA
BRANCH  18  19
ATOM     19  C   UNL     1       0.981   8.380  21.044  0.00  0.00    +0.000 C 
ATOM     20  C   UNL     1       1.033   9.150  19.718  0.00  0.00    +0.000 C 
ATOM     21  C   UNL     1      -0.496   8.293  21.471  0.00  0.00    +0.000 C 
ATOM     22  C   UNL     1       1.754   9.106  22.158  0.00  0.00    +0.000 C 
ENDBRANCH  18  19
ENDBRANCH   6  18
TORSDOF 6
ENDMDL
