MODEL 1
REMARK VINA RESULT:      -7.5      0.000      0.000
REMARK  Name = 
REMARK  9 active torsions:
REMARK  status: ('A' for Active; 'I' for Inactive)
REMARK    1  A    between atoms: C_1  and  O_2
REMARK    2  A    between atoms: O_2  and  C_3
REMARK    3  A    between atoms: C_6  and  O_7
REMARK    4  A    between atoms: O_7  and  C_8
REMARK    5  A    between atoms: C_8  and  C_9
REMARK    6  A    between atoms: C_9  and  N_10
REMARK    7  A    between atoms: C_13  and  C_15
REMARK    8  A    between atoms: C_18  and  O_19
REMARK    9  A    between atoms: O_19  and  C_20
REMARK                            x       y       z     vdW  Elec       q    Type
REMARK                         _______ _______ _______ _____ _____    ______ ____
ROOT
ATOM      1  N   UNL     1       6.547   5.425  18.591  0.00  0.00    +0.000 N 
ATOM      2  C   UNL     1       5.311   5.072  19.090  0.00  0.00    +0.000 A 
ATOM      3  N   UNL     1       4.478   6.124  19.433  0.00  0.00    +0.000 N 
ATOM      4  C   UNL     1       3.116   5.984  19.497  0.00  0.00    +0.000 C 
ATOM      5  O   UNL     1       2.464   4.981  19.736  0.00  0.00    +0.000 OA
ATOM      6  N   UNL     1       5.019   3.906  18.549  0.00  0.00    +0.000 NA
ATOM      7  C   UNL     1       5.488   4.091  17.271  0.00  0.00    +0.000 A 
ATOM      8  C   UNL     1       5.105   3.441  16.088  0.00  0.00    +0.000 A 
ATOM      9  C   UNL     1       5.168   4.184  14.907  0.00  0.00    +0.000 A 
ATOM     10  C   UNL     1       5.700   5.479  14.908  0.00  0.00    +0.000 A 
ATOM     11  C   UNL     1       6.348   6.022  16.046  0.00  0.00    +0.000 A 
ATOM     12  C   UNL     1       6.261   5.268  17.228  0.00  0.00    +0.000 A 
ATOM     13  H   UNL     1       4.835   7.045  19.203  0.00  0.00    +0.000 HD
ENDROOT
BRANCH   4  14
ATOM     14  C   UNL     1       2.416   7.283  19.365  0.00  0.00    +0.000 A 
ATOM     15  C   UNL     1       1.701   7.853  20.431  0.00  0.00    +0.000 A 
ATOM     16  C   UNL     1       0.971   9.028  20.204  0.00  0.00    +0.000 A 
ATOM     17  C   UNL     1       0.963   9.629  18.938  0.00  0.00    +0.000 A 
ATOM     18  C   UNL     1       1.687   9.047  17.895  0.00  0.00    +0.000 A 
ATOM     19  C   UNL     1       2.419   7.878  18.108  0.00  0.00    +0.000 A 
BRANCH  17  20
ATOM     20  O   UNL     1       0.182  10.747  18.824  0.00  0.00    +0.000 OA
ATOM     21  C   UNL     1      -0.552  11.112  19.989  0.00  0.00    +0.000 C 
ENDBRANCH  17  20
ENDBRANCH   4  14
BRANCH   1  22
ATOM     22  C   UNL     1       7.516   6.183  19.336  0.00  0.00    +0.000 C 
BRANCH  22  23
ATOM     23  C   UNL     1       8.388   7.262  18.552  0.00  0.00    +0.000 C 
BRANCH  23  24
ATOM     24  O   UNL     1       7.683   8.433  18.083  0.00  0.00    +0.000 OA
BRANCH  24  28
ATOM     25  C   UNL     1       9.791  12.071  18.749  0.00  0.00    +0.000 A 
ATOM     26  C   UNL     1      10.013  10.917  19.503  0.00  0.00    +0.000 A 
ATOM     27  C   UNL     1       9.292   9.727  19.254  0.00  0.00    +0.000 A 
ATOM     28  C   UNL     1       8.300   9.664  18.267  0.00  0.00    +0.000 A 
ATOM     29  C   UNL     1       8.083  10.824  17.512  0.00  0.00    +0.000 A 
ATOM     30  C   UNL     1       8.824  12.018  17.749  0.00  0.00    +0.000 A 
BRANCH  25  32
ATOM     31  C   UNL     1      11.739  12.941  19.850  0.00  0.00    +0.000 C 
ATOM     32  O   UNL     1      10.538  13.158  19.115  0.00  0.00    +0.000 OA
ENDBRANCH  25  32
ENDBRANCH  24  28
ENDBRANCH  23  24
ENDBRANCH  22  23
ENDBRANCH   1  22
TORSDOF 7
ENDMDL
MODEL 2
REMARK VINA RESULT:      -7.5      0.807      1.426
REMARK  Name = 
REMARK  9 active torsions:
REMARK  status: ('A' for Active; 'I' for Inactive)
REMARK    1  A    between atoms: C_1  and  O_2
REMARK    2  A    between atoms: O_2  and  C_3
REMARK    3  A    between atoms: C_6  and  O_7
REMARK    4  A    between atoms: O_7  and  C_8
REMARK    5  A    between atoms: C_8  and  C_9
REMARK    6  A    between atoms: C_9  and  N_10
REMARK    7  A    between atoms: C_13  and  C_15
REMARK    8  A    between atoms: C_18  and  O_19
REMARK    9  A    between atoms: O_19  and  C_20
REMARK                            x       y       z     vdW  Elec       q    Type
REMARK                         _______ _______ _______ _____ _____    ______ ____
ROOT
ATOM      1  N   UNL     1       6.974   5.793  18.227  0.00  0.00    +0.000 N 
ATOM      2  C   UNL     1       5.855   5.311  18.871  0.00  0.00    +0.000 A 
ATOM      3  N   UNL     1       4.894   6.254  19.196  0.00  0.00    +0.000 N 
ATOM      4  C   UNL     1       3.582   5.917  19.403  0.00  0.00    +0.000 C 
ATOM      5  O   UNL     1       3.121   4.858  19.791  0.00  0.00    +0.000 OA
ATOM      6  N   UNL     1       5.710   4.065  18.466  0.00  0.00    +0.000 NA
ATOM      7  C   UNL     1       6.040   4.186  17.138  0.00  0.00    +0.000 A 
ATOM      8  C   UNL     1       5.672   3.367  16.060  0.00  0.00    +0.000 A 
ATOM      9  C   UNL     1       5.520   3.985  14.817  0.00  0.00    +0.000 A 
ATOM     10  C   UNL     1       5.836   5.339  14.652  0.00  0.00    +0.000 A 
ATOM     11  C   UNL     1       6.478   6.088  15.670  0.00  0.00    +0.000 A 
ATOM     12  C   UNL     1       6.608   5.456  16.917  0.00  0.00    +0.000 A 
ATOM     13  H   UNL     1       5.080   7.191  18.853  0.00  0.00    +0.000 HD
ENDROOT
BRANCH   4  14
ATOM     14  C   UNL     1       2.675   7.074  19.223  0.00  0.00    +0.000 A 
ATOM     15  C   UNL     1       2.584   7.763  18.002  0.00  0.00    +0.000 A 
ATOM     16  C   UNL     1       1.789   8.917  17.934  0.00  0.00    +0.000 A 
ATOM     17  C   UNL     1       1.091   9.369  19.062  0.00  0.00    +0.000 A 
ATOM     18  C   UNL     1       1.193   8.664  20.262  0.00  0.00    +0.000 A 
ATOM     19  C   UNL     1       1.979   7.513  20.344  0.00  0.00    +0.000 A 
BRANCH  17  20
ATOM     20  O   UNL     1       0.383  10.527  18.888  0.00  0.00    +0.000 OA
ATOM     21  C   UNL     1      -0.900  10.568  19.507  0.00  0.00    +0.000 C 
ENDBRANCH  17  20
ENDBRANCH   4  14
BRANCH   1  22
ATOM     22  C   UNL     1       7.867   6.762  18.805  0.00  0.00    +0.000 C 
BRANCH  22  23
ATOM     23  C   UNL     1       8.297   8.011  17.914  0.00  0.00    +0.000 C 
BRANCH  23  24
ATOM     24  O   UNL     1       7.939   9.314  18.425  0.00  0.00    +0.000 OA
BRANCH  24  28
ATOM     25  C   UNL     1      11.079  12.071  19.238  0.00  0.00    +0.000 A 
ATOM     26  C   UNL     1      10.698  11.715  17.942  0.00  0.00    +0.000 A 
ATOM     27  C   UNL     1       9.652  10.793  17.711  0.00  0.00    +0.000 A 
ATOM     28  C   UNL     1       8.976  10.172  18.768  0.00  0.00    +0.000 A 
ATOM     29  C   UNL     1       9.360  10.534  20.066  0.00  0.00    +0.000 A 
ATOM     30  C   UNL     1      10.401  11.478  20.300  0.00  0.00    +0.000 A 
BRANCH  25  32
ATOM     31  C   UNL     1      11.872  14.264  19.807  0.00  0.00    +0.000 C 
ATOM     32  O   UNL     1      12.125  12.951  19.316  0.00  0.00    +0.000 OA
ENDBRANCH  25  32
ENDBRANCH  24  28
ENDBRANCH  23  24
ENDBRANCH  22  23
ENDBRANCH   1  22
TORSDOF 7
ENDMDL
MODEL 3
REMARK VINA RESULT:      -7.4      5.657      9.446
REMARK  Name = 
REMARK  9 active torsions:
REMARK  status: ('A' for Active; 'I' for Inactive)
REMARK    1  A    between atoms: C_1  and  O_2
REMARK    2  A    between atoms: O_2  and  C_3
REMARK    3  A    between atoms: C_6  and  O_7
REMARK    4  A    between atoms: O_7  and  C_8
REMARK    5  A    between atoms: C_8  and  C_9
REMARK    6  A    between atoms: C_9  and  N_10
REMARK    7  A    between atoms: C_13  and  C_15
REMARK    8  A    between atoms: C_18  and  O_19
REMARK    9  A    between atoms: O_19  and  C_20
REMARK                            x       y       z     vdW  Elec       q    Type
REMARK                         _______ _______ _______ _____ _____    ______ ____
ROOT
ATOM      1  N   UNL     1      -0.317  10.913  22.614  0.00  0.00    +0.000 N 
ATOM      2  C   UNL     1       0.064  11.601  21.482  0.00  0.00    +0.000 A 
ATOM      3  N   UNL     1      -0.429  11.109  20.285  0.00  0.00    +0.000 N 
ATOM      4  C   UNL     1      -0.539  11.892  19.165  0.00  0.00    +0.000 C 
ATOM      5  O   UNL     1       0.120  12.868  18.851  0.00  0.00    +0.000 OA
ATOM      6  N   UNL     1       0.266  12.846  21.863  0.00  0.00    +0.000 NA
ATOM      7  C   UNL     1      -0.769  13.015  22.750  0.00  0.00    +0.000 A 
ATOM      8  C   UNL     1      -1.393  14.203  23.162  0.00  0.00    +0.000 A 
ATOM      9  C   UNL     1      -2.750  14.129  23.481  0.00  0.00    +0.000 A 
ATOM     10  C   UNL     1      -3.413  12.895  23.492  0.00  0.00    +0.000 A 
ATOM     11  C   UNL     1      -2.715  11.669  23.357  0.00  0.00    +0.000 A 
ATOM     12  C   UNL     1      -1.354  11.763  23.021  0.00  0.00    +0.000 A 
ATOM     13  H   UNL     1      -1.086  10.341  20.375  0.00  0.00    +0.000 HD
ENDROOT
BRANCH   4  14
ATOM     14  C   UNL     1      -1.529  11.352  18.204  0.00  0.00    +0.000 A 
ATOM     15  C   UNL     1      -1.200  10.338  17.290  0.00  0.00    +0.000 A 
ATOM     16  C   UNL     1      -2.151   9.952  16.335  0.00  0.00    +0.000 A 
ATOM     17  C   UNL     1      -3.413  10.561  16.300  0.00  0.00    +0.000 A 
ATOM     18  C   UNL     1      -3.719  11.563  17.223  0.00  0.00    +0.000 A 
ATOM     19  C   UNL     1      -2.782  11.956  18.180  0.00  0.00    +0.000 A 
BRANCH  17  20
ATOM     20  O   UNL     1      -4.243  10.135  15.300  0.00  0.00    +0.000 OA
ATOM     21  C   UNL     1      -3.622   9.893  14.040  0.00  0.00    +0.000 C 
ENDBRANCH  17  20
ENDBRANCH   4  14
BRANCH   1  22
ATOM     22  C   UNL     1       0.001   9.529  22.847  0.00  0.00    +0.000 C 
BRANCH  22  23
ATOM     23  C   UNL     1       1.302   8.930  22.150  0.00  0.00    +0.000 C 
BRANCH  23  24
ATOM     24  O   UNL     1       1.283   8.870  20.707  0.00  0.00    +0.000 OA
BRANCH  24  28
ATOM     25  C   UNL     1       2.774   5.403  18.737  0.00  0.00    +0.000 A 
ATOM     26  C   UNL     1       2.798   6.674  18.158  0.00  0.00    +0.000 A 
ATOM     27  C   UNL     1       2.291   7.802  18.842  0.00  0.00    +0.000 A 
ATOM     28  C   UNL     1       1.712   7.690  20.112  0.00  0.00    +0.000 A 
ATOM     29  C   UNL     1       1.692   6.414  20.690  0.00  0.00    +0.000 A 
ATOM     30  C   UNL     1       2.222   5.279  20.009  0.00  0.00    +0.000 A 
BRANCH  25  32
ATOM     31  C   UNL     1       2.461   3.247  17.729  0.00  0.00    +0.000 C 
ATOM     32  O   UNL     1       3.271   4.397  17.953  0.00  0.00    +0.000 OA
ENDBRANCH  25  32
ENDBRANCH  24  28
ENDBRANCH  23  24
ENDBRANCH  22  23
ENDBRANCH   1  22
TORSDOF 7
ENDMDL
MODEL 4
REMARK VINA RESULT:      -7.4      4.723      8.946
REMARK  Name = 
REMARK  9 active torsions:
REMARK  status: ('A' for Active; 'I' for Inactive)
REMARK    1  A    between atoms: C_1  and  O_2
REMARK    2  A    between atoms: O_2  and  C_3
REMARK    3  A    between atoms: C_6  and  O_7
REMARK    4  A    between atoms: O_7  and  C_8
REMARK    5  A    between atoms: C_8  and  C_9
REMARK    6  A    between atoms: C_9  and  N_10
REMARK    7  A    between atoms: C_13  and  C_15
REMARK    8  A    between atoms: C_18  and  O_19
REMARK    9  A    between atoms: O_19  and  C_20
REMARK                            x       y       z     vdW  Elec       q    Type
REMARK                         _______ _______ _______ _____ _____    ______ ____
ROOT
ATOM      1  N   UNL     1       0.160  10.678  19.702  0.00  0.00    +0.000 N 
ATOM      2  C   UNL     1       1.184  11.422  20.249  0.00  0.00    +0.000 A 
ATOM      3  N   UNL     1       1.577  12.532  19.519  0.00  0.00    +0.000 N 
ATOM      4  C   UNL     1       2.218  13.595  20.099  0.00  0.00    +0.000 C 
ATOM      5  O   UNL     1       2.928  13.608  21.090  0.00  0.00    +0.000 OA
ATOM      6  N   UNL     1       1.098  11.257  21.554  0.00  0.00    +0.000 NA
ATOM      7  C   UNL     1      -0.265  11.282  21.727  0.00  0.00    +0.000 A 
ATOM      8  C   UNL     1      -1.003  11.605  22.876  0.00  0.00    +0.000 A 
ATOM      9  C   UNL     1      -2.246  12.210  22.682  0.00  0.00    +0.000 A 
ATOM     10  C   UNL     1      -2.765  12.375  21.392  0.00  0.00    +0.000 A 
ATOM     11  C   UNL     1      -2.149  11.790  20.257  0.00  0.00    +0.000 A 
ATOM     12  C   UNL     1      -0.892  11.199  20.468  0.00  0.00    +0.000 A 
ATOM     13  H   UNL     1       1.013  12.726  18.699  0.00  0.00    +0.000 HD
ENDROOT
BRANCH   4  14
ATOM     14  C   UNL     1       2.080  14.833  19.297  0.00  0.00    +0.000 A 
ATOM     15  C   UNL     1       3.017  15.189  18.314  0.00  0.00    +0.000 A 
ATOM     16  C   UNL     1       2.885  16.428  17.670  0.00  0.00    +0.000 A 
ATOM     17  C   UNL     1       1.829  17.291  17.995  0.00  0.00    +0.000 A 
ATOM     18  C   UNL     1       0.906  16.912  18.971  0.00  0.00    +0.000 A 
ATOM     19  C   UNL     1       1.025  15.681  19.619  0.00  0.00    +0.000 A 
BRANCH  17  20
ATOM     20  O   UNL     1       1.826  18.489  17.334  0.00  0.00    +0.000 OA
ATOM     21  C   UNL     1       0.942  18.579  16.220  0.00  0.00    +0.000 C 
ENDBRANCH  17  20
ENDBRANCH   4  14
BRANCH   1  22
ATOM     22  C   UNL     1       0.247  10.026  18.423  0.00  0.00    +0.000 C 
BRANCH  22  23
ATOM     23  C   UNL     1       1.603   9.276  18.053  0.00  0.00    +0.000 C 
BRANCH  23  24
ATOM     24  O   UNL     1       1.960   8.154  18.889  0.00  0.00    +0.000 OA
BRANCH  24  28
ATOM     25  C   UNL     1       4.197   5.037  17.045  0.00  0.00    +0.000 A 
ATOM     26  C   UNL     1       4.565   6.382  16.969  0.00  0.00    +0.000 A 
ATOM     27  C   UNL     1       3.795   7.390  17.592  0.00  0.00    +0.000 A 
ATOM     28  C   UNL     1       2.614   7.089  18.282  0.00  0.00    +0.000 A 
ATOM     29  C   UNL     1       2.251   5.738  18.358  0.00  0.00    +0.000 A 
ATOM     30  C   UNL     1       3.038   4.719  17.747  0.00  0.00    +0.000 A 
BRANCH  25  32
ATOM     31  C   UNL     1       5.612   4.607  15.154  0.00  0.00    +0.000 C 
ATOM     32  O   UNL     1       5.017   4.170  16.372  0.00  0.00    +0.000 OA
ENDBRANCH  25  32
ENDBRANCH  24  28
ENDBRANCH  23  24
ENDBRANCH  22  23
ENDBRANCH   1  22
TORSDOF 7
ENDMDL
MODEL 5
REMARK VINA RESULT:      -7.4      4.939     10.089
REMARK  Name = 
REMARK  9 active torsions:
REMARK  status: ('A' for Active; 'I' for Inactive)
REMARK    1  A    between atoms: C_1  and  O_2
REMARK    2  A    between atoms: O_2  and  C_3
REMARK    3  A    between atoms: C_6  and  O_7
REMARK    4  A    between atoms: O_7  and  C_8
REMARK    5  A    between atoms: C_8  and  C_9
REMARK    6  A    between atoms: C_9  and  N_10
REMARK    7  A    between atoms: C_13  and  C_15
REMARK    8  A    between atoms: C_18  and  O_19
REMARK    9  A    between atoms: O_19  and  C_20
REMARK                            x       y       z     vdW  Elec       q    Type
REMARK                         _______ _______ _______ _____ _____    ______ ____
ROOT
ATOM      1  N   UNL     1      -0.606  12.894  19.894  0.00  0.00    +0.000 N 
ATOM      2  C   UNL     1      -0.194  11.986  20.846  0.00  0.00    +0.000 A 
ATOM      3  N   UNL     1       0.046  10.701  20.386  0.00  0.00    +0.000 N 
ATOM      4  C   UNL     1       0.868   9.830  21.053  0.00  0.00    +0.000 C 
ATOM      5  O   UNL     1       1.126   9.787  22.244  0.00  0.00    +0.000 OA
ATOM      6  N   UNL     1       0.440  12.684  21.766  0.00  0.00    +0.000 NA
ATOM      7  C   UNL     1       1.121  13.585  20.982  0.00  0.00    +0.000 A 
ATOM      8  C   UNL     1       2.293  14.298  21.274  0.00  0.00    +0.000 A 
ATOM      9  C   UNL     1       3.143  14.587  20.204  0.00  0.00    +0.000 A 
ATOM     10  C   UNL     1       2.769  14.269  18.893  0.00  0.00    +0.000 A 
ATOM     11  C   UNL     1       1.465  13.812  18.575  0.00  0.00    +0.000 A 
ATOM     12  C   UNL     1       0.630  13.513  19.664  0.00  0.00    +0.000 A 
ATOM     13  H   UNL     1      -0.029  10.584  19.382  0.00  0.00    +0.000 HD
ENDROOT
BRANCH   4  14
ATOM     14  C   UNL     1       1.381   8.760  20.167  0.00  0.00    +0.000 A 
ATOM     15  C   UNL     1       1.750   7.499  20.662  0.00  0.00    +0.000 A 
ATOM     16  C   UNL     1       2.333   6.572  19.786  0.00  0.00    +0.000 A 
ATOM     17  C   UNL     1       2.533   6.895  18.437  0.00  0.00    +0.000 A 
ATOM     18  C   UNL     1       2.152   8.153  17.966  0.00  0.00    +0.000 A 
ATOM     19  C   UNL     1       1.570   9.085  18.827  0.00  0.00    +0.000 A 
BRANCH  17  20
ATOM     20  O   UNL     1       3.147   5.929  17.687  0.00  0.00    +0.000 OA
ATOM     21  C   UNL     1       4.552   6.081  17.511  0.00  0.00    +0.000 C 
ENDBRANCH  17  20
ENDBRANCH   4  14
BRANCH   1  22
ATOM     22  C   UNL     1      -1.817  12.750  19.132  0.00  0.00    +0.000 C 
BRANCH  22  23
ATOM     23  C   UNL     1      -3.130  12.265  19.893  0.00  0.00    +0.000 C 
BRANCH  23  24
ATOM     24  O   UNL     1      -4.130  11.605  19.085  0.00  0.00    +0.000 OA
BRANCH  24  28
ATOM     25  C   UNL     1      -2.943  10.232  15.234  0.00  0.00    +0.000 A 
ATOM     26  C   UNL     1      -3.934  11.197  15.423  0.00  0.00    +0.000 A 
ATOM     27  C   UNL     1      -4.304  11.627  16.718  0.00  0.00    +0.000 A 
ATOM     28  C   UNL     1      -3.719  11.079  17.866  0.00  0.00    +0.000 A 
ATOM     29  C   UNL     1      -2.723  10.113  17.671  0.00  0.00    +0.000 A 
ATOM     30  C   UNL     1      -2.335   9.695  16.366  0.00  0.00    +0.000 A 
BRANCH  25  32
ATOM     31  C   UNL     1      -3.814   9.797  13.040  0.00  0.00    +0.000 C 
ATOM     32  O   UNL     1      -2.706   9.889  13.930  0.00  0.00    +0.000 OA
ENDBRANCH  25  32
ENDBRANCH  24  28
ENDBRANCH  23  24
ENDBRANCH  22  23
ENDBRANCH   1  22
TORSDOF 7
ENDMDL
MODEL 6
REMARK VINA RESULT:      -7.3      5.385      8.888
REMARK  Name = 
REMARK  9 active torsions:
REMARK  status: ('A' for Active; 'I' for Inactive)
REMARK    1  A    between atoms: C_1  and  O_2
REMARK    2  A    between atoms: O_2  and  C_3
REMARK    3  A    between atoms: C_6  and  O_7
REMARK    4  A    between atoms: O_7  and  C_8
REMARK    5  A    between atoms: C_8  and  C_9
REMARK    6  A    between atoms: C_9  and  N_10
REMARK    7  A    between atoms: C_13  and  C_15
REMARK    8  A    between atoms: C_18  and  O_19
REMARK    9  A    between atoms: O_19  and  C_20
REMARK                            x       y       z     vdW  Elec       q    Type
REMARK                         _______ _______ _______ _____ _____    ______ ____
ROOT
ATOM      1  N   UNL     1       0.506  10.267  20.172  0.00  0.00    +0.000 N 
ATOM      2  C   UNL     1      -0.114  10.234  18.941  0.00  0.00    +0.000 A 
ATOM      3  N   UNL     1      -1.490  10.392  18.956  0.00  0.00    +0.000 N 
ATOM      4  C   UNL     1      -2.185  10.835  17.861  0.00  0.00    +0.000 C 
ATOM      5  O   UNL     1      -1.898  10.722  16.681  0.00  0.00    +0.000 OA
ATOM      6  N   UNL     1       0.776  10.671  18.073  0.00  0.00    +0.000 NA
ATOM      7  C   UNL     1       1.361  11.685  18.793  0.00  0.00    +0.000 A 
ATOM      8  C   UNL     1       2.046  12.817  18.326  0.00  0.00    +0.000 A 
ATOM      9  C   UNL     1       1.952  13.978  19.096  0.00  0.00    +0.000 A 
ATOM     10  C   UNL     1       1.295  13.960  20.333  0.00  0.00    +0.000 A 
ATOM     11  C   UNL     1       0.857  12.752  20.931  0.00  0.00    +0.000 A 
ATOM     12  C   UNL     1       0.944  11.598  20.136  0.00  0.00    +0.000 A 
ATOM     13  H   UNL     1      -1.888  10.598  19.867  0.00  0.00    +0.000 HD
ENDROOT
BRANCH   4  14
ATOM     14  C   UNL     1      -3.498  11.411  18.230  0.00  0.00    +0.000 A 
ATOM     15  C   UNL     1      -3.672  12.178  19.394  0.00  0.00    +0.000 A 
ATOM     16  C   UNL     1      -4.964  12.598  19.741  0.00  0.00    +0.000 A 
ATOM     17  C   UNL     1      -6.062  12.268  18.934  0.00  0.00    +0.000 A 
ATOM     18  C   UNL     1      -5.863  11.510  17.779  0.00  0.00    +0.000 A 
ATOM     19  C   UNL     1      -4.582  11.086  17.421  0.00  0.00    +0.000 A 
BRANCH  17  20
ATOM     20  O   UNL     1      -7.277  12.695  19.394  0.00  0.00    +0.000 OA
ATOM     21  C   UNL     1      -7.549  12.431  20.767  0.00  0.00    +0.000 C 
ENDBRANCH  17  20
ENDBRANCH   4  14
BRANCH   1  22
ATOM     22  C   UNL     1       0.231   9.327  21.225  0.00  0.00    +0.000 C 
BRANCH  22  23
ATOM     23  C   UNL     1       1.118   8.005  21.301  0.00  0.00    +0.000 C 
BRANCH  23  24
ATOM     24  O   UNL     1       2.000   7.763  20.183  0.00  0.00    +0.000 OA
BRANCH  24  28
ATOM     25  C   UNL     1       2.421   3.642  19.198  0.00  0.00    +0.000 A 
ATOM     26  C   UNL     1       1.874   4.082  20.406  0.00  0.00    +0.000 A 
ATOM     27  C   UNL     1       1.752   5.459  20.699  0.00  0.00    +0.000 A 
ATOM     28  C   UNL     1       2.207   6.441  19.809  0.00  0.00    +0.000 A 
ATOM     29  C   UNL     1       2.753   5.995  18.598  0.00  0.00    +0.000 A 
ATOM     30  C   UNL     1       2.857   4.607  18.293  0.00  0.00    +0.000 A 
BRANCH  25  32
ATOM     31  C   UNL     1       3.355   1.756  18.044  0.00  0.00    +0.000 C 
ATOM     32  O   UNL     1       2.505   2.283  19.058  0.00  0.00    +0.000 OA
ENDBRANCH  25  32
ENDBRANCH  24  28
ENDBRANCH  23  24
ENDBRANCH  22  23
ENDBRANCH   1  22
TORSDOF 7
ENDMDL
MODEL 7
REMARK VINA RESULT:      -7.2      4.713      9.106
REMARK  Name = 
REMARK  9 active torsions:
REMARK  status: ('A' for Active; 'I' for Inactive)
REMARK    1  A    between atoms: C_1  and  O_2
REMARK    2  A    between atoms: O_2  and  C_3
REMARK    3  A    between atoms: C_6  and  O_7
REMARK    4  A    between atoms: O_7  and  C_8
REMARK    5  A    between atoms: C_8  and  C_9
REMARK    6  A    between atoms: C_9  and  N_10
REMARK    7  A    between atoms: C_13  and  C_15
REMARK    8  A    between atoms: C_18  and  O_19
REMARK    9  A    between atoms: O_19  and  C_20
REMARK                            x       y       z     vdW  Elec       q    Type
REMARK                         _______ _______ _______ _____ _____    ______ ____
ROOT
ATOM      1  N   UNL     1      -1.348  10.529  19.858  0.00  0.00    +0.000 N 
ATOM      2  C   UNL     1      -1.406  11.895  20.038  0.00  0.00    +0.000 A 
ATOM      3  N   UNL     1      -0.215  12.577  19.849  0.00  0.00    +0.000 N 
ATOM      4  C   UNL     1      -0.181  13.912  19.538  0.00  0.00    +0.000 C 
ATOM      5  O   UNL     1      -0.995  14.777  19.811  0.00  0.00    +0.000 OA
ATOM      6  N   UNL     1      -2.639  12.251  19.737  0.00  0.00    +0.000 NA
ATOM      7  C   UNL     1      -2.882  11.444  18.652  0.00  0.00    +0.000 A 
ATOM      8  C   UNL     1      -3.799  11.626  17.605  0.00  0.00    +0.000 A 
ATOM      9  C   UNL     1      -3.439  11.126  16.352  0.00  0.00    +0.000 A 
ATOM     10  C   UNL     1      -2.264  10.381  16.194  0.00  0.00    +0.000 A 
ATOM     11  C   UNL     1      -1.491   9.956  17.303  0.00  0.00    +0.000 A 
ATOM     12  C   UNL     1      -1.858  10.481  18.553  0.00  0.00    +0.000 A 
ATOM     13  H   UNL     1       0.557  12.008  19.517  0.00  0.00    +0.000 HD
ENDROOT
BRANCH   4  14
ATOM     14  C   UNL     1       1.093  14.300  18.890  0.00  0.00    +0.000 A 
ATOM     15  C   UNL     1       2.087  13.357  18.582  0.00  0.00    +0.000 A 
ATOM     16  C   UNL     1       3.313  13.807  18.071  0.00  0.00    +0.000 A 
ATOM     17  C   UNL     1       3.538  15.175  17.862  0.00  0.00    +0.000 A 
ATOM     18  C   UNL     1       2.532  16.093  18.170  0.00  0.00    +0.000 A 
ATOM     19  C   UNL     1       1.307  15.658  18.678  0.00  0.00    +0.000 A 
BRANCH  17  20
ATOM     20  O   UNL     1       4.784  15.500  17.401  0.00  0.00    +0.000 OA
ATOM     21  C   UNL     1       5.848  14.665  17.848  0.00  0.00    +0.000 C 
ENDBRANCH  17  20
ENDBRANCH   4  14
BRANCH   1  22
ATOM     22  C   UNL     1      -0.518   9.659  20.647  0.00  0.00    +0.000 C 
BRANCH  22  23
ATOM     23  C   UNL     1       0.889   9.214  20.045  0.00  0.00    +0.000 C 
BRANCH  23  24
ATOM     24  O   UNL     1       1.618   8.219  20.795  0.00  0.00    +0.000 OA
BRANCH  24  28
ATOM     25  C   UNL     1       2.872   4.786  18.611  0.00  0.00    +0.000 A 
ATOM     26  C   UNL     1       2.931   6.081  18.090  0.00  0.00    +0.000 A 
ATOM     27  C   UNL     1       2.503   7.197  18.844  0.00  0.00    +0.000 A 
ATOM     28  C   UNL     1       1.969   7.050  20.131  0.00  0.00    +0.000 A 
ATOM     29  C   UNL     1       1.914   5.750  20.650  0.00  0.00    +0.000 A 
ATOM     30  C   UNL     1       2.365   4.627  19.898  0.00  0.00    +0.000 A 
BRANCH  25  32
ATOM     31  C   UNL     1       2.419   2.700  17.515  0.00  0.00    +0.000 C 
ATOM     32  O   UNL     1       3.292   3.797  17.762  0.00  0.00    +0.000 OA
ENDBRANCH  25  32
ENDBRANCH  24  28
ENDBRANCH  23  24
ENDBRANCH  22  23
ENDBRANCH   1  22
TORSDOF 7
ENDMDL
MODEL 8
REMARK VINA RESULT:      -7.2      5.392      8.882
REMARK  Name = 
REMARK  9 active torsions:
REMARK  status: ('A' for Active; 'I' for Inactive)
REMARK    1  A    between atoms: C_1  and  O_2
REMARK    2  A    between atoms: O_2  and  C_3
REMARK    3  A    between atoms: C_6  and  O_7
REMARK    4  A    between atoms: O_7  and  C_8
REMARK    5  A    between atoms: C_8  and  C_9
REMARK    6  A    between atoms: C_9  and  N_10
REMARK    7  A    between atoms: C_13  and  C_15
REMARK    8  A    between atoms: C_18  and  O_19
REMARK    9  A    between atoms: O_19  and  C_20
REMARK                            x       y       z     vdW  Elec       q    Type
REMARK                         _______ _______ _______ _____ _____    ______ ____
ROOT
ATOM      1  N   UNL     1       0.294  10.361  20.304  0.00  0.00    +0.000 N 
ATOM      2  C   UNL     1      -0.268  10.267  19.049  0.00  0.00    +0.000 A 
ATOM      3  N   UNL     1      -1.636  10.472  18.985  0.00  0.00    +0.000 N 
ATOM      4  C   UNL     1      -2.262  10.864  17.830  0.00  0.00    +0.000 C 
ATOM      5  O   UNL     1      -1.924  10.663  16.676  0.00  0.00    +0.000 OA
ATOM      6  N   UNL     1       0.678  10.616  18.200  0.00  0.00    +0.000 NA
ATOM      7  C   UNL     1       1.265  11.654  18.881  0.00  0.00    +0.000 A 
ATOM      8  C   UNL     1       2.012  12.729  18.376  0.00  0.00    +0.000 A 
ATOM      9  C   UNL     1       1.925  13.941  19.064  0.00  0.00    +0.000 A 
ATOM     10  C   UNL     1       1.209  14.028  20.265  0.00  0.00    +0.000 A 
ATOM     11  C   UNL     1       0.699  12.878  20.917  0.00  0.00    +0.000 A 
ATOM     12  C   UNL     1       0.782  11.671  20.204  0.00  0.00    +0.000 A 
ATOM     13  H   UNL     1      -2.069  10.751  19.859  0.00  0.00    +0.000 HD
ENDROOT
BRANCH   4  14
ATOM     14  C   UNL     1      -3.569  11.507  18.096  0.00  0.00    +0.000 A 
ATOM     15  C   UNL     1      -3.854  12.131  19.321  0.00  0.00    +0.000 A 
ATOM     16  C   UNL     1      -5.149  12.621  19.546  0.00  0.00    +0.000 A 
ATOM     17  C   UNL     1      -6.138  12.500  18.560  0.00  0.00    +0.000 A 
ATOM     18  C   UNL     1      -5.828  11.881  17.347  0.00  0.00    +0.000 A 
ATOM     19  C   UNL     1      -4.543  11.390  17.110  0.00  0.00    +0.000 A 
BRANCH  17  20
ATOM     20  O   UNL     1      -7.373  12.976  18.906  0.00  0.00    +0.000 OA
ATOM     21  C   UNL     1      -7.526  13.369  20.267  0.00  0.00    +0.000 C 
ENDBRANCH  17  20
ENDBRANCH   4  14
BRANCH   1  22
ATOM     22  C   UNL     1      -0.065   9.502  21.401  0.00  0.00    +0.000 C 
BRANCH  22  23
ATOM     23  C   UNL     1       0.566   8.040  21.446  0.00  0.00    +0.000 C 
BRANCH  23  24
ATOM     24  O   UNL     1       1.855   7.880  20.815  0.00  0.00    +0.000 OA
BRANCH  24  28
ATOM     25  C   UNL     1       2.702   4.445  18.447  0.00  0.00    +0.000 A 
ATOM     26  C   UNL     1       2.863   5.750  17.976  0.00  0.00    +0.000 A 
ATOM     27  C   UNL     1       2.568   6.867  18.791  0.00  0.00    +0.000 A 
ATOM     28  C   UNL     1       2.071   6.714  20.091  0.00  0.00    +0.000 A 
ATOM     29  C   UNL     1       1.914   5.404  20.560  0.00  0.00    +0.000 A 
ATOM     30  C   UNL     1       2.230   4.278  19.746  0.00  0.00    +0.000 A 
BRANCH  25  32
ATOM     31  C   UNL     1       2.568   2.131  17.824  0.00  0.00    +0.000 C 
ATOM     32  O   UNL     1       2.996   3.460  17.544  0.00  0.00    +0.000 OA
ENDBRANCH  25  32
ENDBRANCH  24  28
ENDBRANCH  23  24
ENDBRANCH  22  23
ENDBRANCH   1  22
TORSDOF 7
ENDMDL
MODEL 9
REMARK VINA RESULT:      -7.2      3.963      5.837
REMARK  Name = 
REMARK  9 active torsions:
REMARK  status: ('A' for Active; 'I' for Inactive)
REMARK    1  A    between atoms: C_1  and  O_2
REMARK    2  A    between atoms: O_2  and  C_3
REMARK    3  A    between atoms: C_6  and  O_7
REMARK    4  A    between atoms: O_7  and  C_8
REMARK    5  A    between atoms: C_8  and  C_9
REMARK    6  A    between atoms: C_9  and  N_10
REMARK    7  A    between atoms: C_13  and  C_15
REMARK    8  A    between atoms: C_18  and  O_19
REMARK    9  A    between atoms: O_19  and  C_20
REMARK                            x       y       z     vdW  Elec       q    Type
REMARK                         _______ _______ _______ _____ _____    ______ ____
ROOT
ATOM      1  N   UNL     1       3.681   5.490  19.334  0.00  0.00    +0.000 N 
ATOM      2  C   UNL     1       3.014   6.141  20.348  0.00  0.00    +0.000 A 
ATOM      3  N   UNL     1       2.454   7.363  20.012  0.00  0.00    +0.000 N 
ATOM      4  C   UNL     1       1.410   7.905  20.716  0.00  0.00    +0.000 C 
ATOM      5  O   UNL     1       1.115   7.740  21.888  0.00  0.00    +0.000 OA
ATOM      6  N   UNL     1       2.562   5.199  21.152  0.00  0.00    +0.000 NA
ATOM      7  C   UNL     1       2.170   4.250  20.240  0.00  0.00    +0.000 A 
ATOM      8  C   UNL     1       1.222   3.225  20.385  0.00  0.00    +0.000 A 
ATOM      9  C   UNL     1       0.512   2.851  19.243  0.00  0.00    +0.000 A 
ATOM     10  C   UNL     1       0.826   3.406  17.996  0.00  0.00    +0.000 A 
ATOM     11  C   UNL     1       1.970   4.221  17.806  0.00  0.00    +0.000 A 
ATOM     12  C   UNL     1       2.662   4.600  18.967  0.00  0.00    +0.000 A 
ATOM     13  H   UNL     1       2.525   7.612  19.031  0.00  0.00    +0.000 HD
ENDROOT
BRANCH   4  14
ATOM     14  C   UNL     1       0.657   8.899  19.918  0.00  0.00    +0.000 A 
ATOM     15  C   UNL     1       0.941   9.132  18.562  0.00  0.00    +0.000 A 
ATOM     16  C   UNL     1       0.265  10.164  17.896  0.00  0.00    +0.000 A 
ATOM     17  C   UNL     1      -0.687  10.943  18.569  0.00  0.00    +0.000 A 
ATOM     18  C   UNL     1      -0.957  10.688  19.915  0.00  0.00    +0.000 A 
ATOM     19  C   UNL     1      -0.292   9.662  20.590  0.00  0.00    +0.000 A 
BRANCH  17  20
ATOM     20  O   UNL     1      -1.251  11.947  17.831  0.00  0.00    +0.000 OA
ATOM     21  C   UNL     1      -2.414  11.592  17.089  0.00  0.00    +0.000 C 
ENDBRANCH  17  20
ENDBRANCH   4  14
BRANCH   1  22
ATOM     22  C   UNL     1       4.832   6.033  18.663  0.00  0.00    +0.000 C 
BRANCH  22  23
ATOM     23  C   UNL     1       6.273   5.527  19.118  0.00  0.00    +0.000 C 
BRANCH  23  24
ATOM     24  O   UNL     1       6.795   4.374  18.421  0.00  0.00    +0.000 OA
BRANCH  24  28
ATOM     25  C   UNL     1       5.918   4.164  14.260  0.00  0.00    +0.000 A 
ATOM     26  C   UNL     1       5.134   3.540  15.233  0.00  0.00    +0.000 A 
ATOM     27  C   UNL     1       5.458   3.630  16.606  0.00  0.00    +0.000 A 
ATOM     28  C   UNL     1       6.596   4.317  17.047  0.00  0.00    +0.000 A 
ATOM     29  C   UNL     1       7.378   4.943  16.067  0.00  0.00    +0.000 A 
ATOM     30  C   UNL     1       7.041   4.870  14.685  0.00  0.00    +0.000 A 
BRANCH  25  32
ATOM     31  C   UNL     1       6.335   3.210  12.097  0.00  0.00    +0.000 C 
ATOM     32  O   UNL     1       5.505   3.971  12.969  0.00  0.00    +0.000 OA
ENDBRANCH  25  32
ENDBRANCH  24  28
ENDBRANCH  23  24
ENDBRANCH  22  23
ENDBRANCH   1  22
TORSDOF 7
ENDMDL
