MODEL 1
REMARK VINA RESULT:      -4.6      0.000      0.000
REMARK  Name = 
REMARK  4 active torsions:
REMARK  status: ('A' for Active; 'I' for Inactive)
REMARK    1  A    between atoms: C_2  and  S_3
REMARK    2  A    between atoms: C_2  and  N_4
REMARK    3  A    between atoms: N_7  and  C_8
REMARK    4  A    between atoms: C_8  and  S_10
REMARK                            x       y       z     vdW  Elec       q    Type
REMARK                         _______ _______ _______ _____ _____    ______ ____
ROOT
ATOM      1  N   UNL     1       3.038   4.212  18.960  0.00  0.00    +0.000 N 
ATOM      2  C   UNL     1       4.049   5.136  19.521  0.00  0.00    +0.000 C 
ATOM      3  C   UNL     1       5.468   4.713  19.089  0.00  0.00    +0.000 C 
ATOM      4  N   UNL     1       5.570   4.597  17.616  0.00  0.00    +0.000 N 
ATOM      5  C   UNL     1       4.560   3.670  17.066  0.00  0.00    +0.000 C 
ATOM      6  C   UNL     1       3.142   4.086  17.494  0.00  0.00    +0.000 C 
ENDROOT
BRANCH   1   8
ATOM      7  S   UNL     1       2.064   3.416  21.395  0.00  0.00    +0.000 S 
ATOM      8  C   UNL     1       2.129   3.473  19.717  0.00  0.00    +0.000 C 
BRANCH   8   9
ATOM      9  S   UNL     1       0.976   2.490  18.822  0.00  0.00    +0.000 S 
ATOM     10  H   UNL     1       1.037   1.441  19.654  0.00  0.00    +0.000 HD
ENDBRANCH   8   9
ENDBRANCH   1   8
BRANCH   4  11
ATOM     11  C   UNL     1       6.469   5.368  16.867  0.00  0.00    +0.000 C 
ATOM     12  S   UNL     1       7.203   6.794  17.377  0.00  0.00    +0.000 S 
BRANCH  11  13
ATOM     13  S   UNL     1       6.856   4.803  15.243  0.00  0.00    +0.000 S 
ATOM     14  H   UNL     1       6.230   5.778  14.576  0.00  0.00    +0.000 HD
ENDBRANCH  11  13
ENDBRANCH   4  11
TORSDOF 4
ENDMDL
MODEL 2
REMARK VINA RESULT:      -4.6      0.064      5.006
REMARK  Name = 
REMARK  4 active torsions:
REMARK  status: ('A' for Active; 'I' for Inactive)
REMARK    1  A    between atoms: C_2  and  S_3
REMARK    2  A    between atoms: C_2  and  N_4
REMARK    3  A    between atoms: N_7  and  C_8
REMARK    4  A    between atoms: C_8  and  S_10
REMARK                            x       y       z     vdW  Elec       q    Type
REMARK                         _______ _______ _______ _____ _____    ______ ____
ROOT
ATOM      1  N   UNL     1       5.599   4.632  17.682  0.00  0.00    +0.000 N 
ATOM      2  C   UNL     1       5.447   4.756  19.150  0.00  0.00    +0.000 C 
ATOM      3  C   UNL     1       4.002   5.157  19.512  0.00  0.00    +0.000 C 
ATOM      4  N   UNL     1       3.019   4.218  18.924  0.00  0.00    +0.000 N 
ATOM      5  C   UNL     1       3.176   4.105  17.459  0.00  0.00    +0.000 C 
ATOM      6  C   UNL     1       4.615   3.706  17.090  0.00  0.00    +0.000 C 
ENDROOT
BRANCH   1   8
ATOM      7  S   UNL     1       7.273   6.779  17.376  0.00  0.00    +0.000 S 
ATOM      8  C   UNL     1       6.509   5.357  16.914  0.00  0.00    +0.000 C 
BRANCH   8   9
ATOM      9  S   UNL     1       6.851   4.731  15.304  0.00  0.00    +0.000 S 
ATOM     10  H   UNL     1       7.737   5.686  14.987  0.00  0.00    +0.000 HD
ENDBRANCH   8   9
ENDBRANCH   1   8
BRANCH   4  11
ATOM     11  C   UNL     1       2.130   3.477  19.713  0.00  0.00    +0.000 C 
ATOM     12  S   UNL     1       2.086   3.463  21.395  0.00  0.00    +0.000 S 
BRANCH  11  13
ATOM     13  S   UNL     1       0.963   2.458  18.872  0.00  0.00    +0.000 S 
ATOM     14  H   UNL     1       1.827   1.522  18.463  0.00  0.00    +0.000 HD
ENDBRANCH  11  13
ENDBRANCH   4  11
TORSDOF 4
ENDMDL
MODEL 3
REMARK VINA RESULT:      -4.5      0.106      1.202
REMARK  Name = 
REMARK  4 active torsions:
REMARK  status: ('A' for Active; 'I' for Inactive)
REMARK    1  A    between atoms: C_2  and  S_3
REMARK    2  A    between atoms: C_2  and  N_4
REMARK    3  A    between atoms: N_7  and  C_8
REMARK    4  A    between atoms: C_8  and  S_10
REMARK                            x       y       z     vdW  Elec       q    Type
REMARK                         _______ _______ _______ _____ _____    ______ ____
ROOT
ATOM      1  N   UNL     1       3.027   4.244  18.931  0.00  0.00    +0.000 N 
ATOM      2  C   UNL     1       4.050   5.186  19.437  0.00  0.00    +0.000 C 
ATOM      3  C   UNL     1       5.462   4.727  19.020  0.00  0.00    +0.000 C 
ATOM      4  N   UNL     1       5.554   4.535  17.553  0.00  0.00    +0.000 N 
ATOM      5  C   UNL     1       4.531   3.590  17.058  0.00  0.00    +0.000 C 
ATOM      6  C   UNL     1       3.120   4.041  17.473  0.00  0.00    +0.000 C 
ENDROOT
BRANCH   1   8
ATOM      7  S   UNL     1       2.069   3.575  21.410  0.00  0.00    +0.000 S 
ATOM      8  C   UNL     1       2.116   3.554  19.731  0.00  0.00    +0.000 C 
BRANCH   8   9
ATOM      9  S   UNL     1       0.940   2.546  18.893  0.00  0.00    +0.000 S 
ATOM     10  H   UNL     1       0.598   1.831  19.975  0.00  0.00    +0.000 HD
ENDBRANCH   8   9
ENDBRANCH   1   8
BRANCH   4  11
ATOM     11  C   UNL     1       6.455   5.257  16.760  0.00  0.00    +0.000 C 
ATOM     12  S   UNL     1       6.894   4.878  15.180  0.00  0.00    +0.000 S 
BRANCH  11  13
ATOM     13  S   UNL     1       7.205   6.679  17.482  0.00  0.00    +0.000 S 
ATOM     14  H   UNL     1       6.348   6.818  18.500  0.00  0.00    +0.000 HD
ENDBRANCH  11  13
ENDBRANCH   4  11
TORSDOF 4
ENDMDL
MODEL 4
REMARK VINA RESULT:      -4.5      0.725      1.936
REMARK  Name = 
REMARK  4 active torsions:
REMARK  status: ('A' for Active; 'I' for Inactive)
REMARK    1  A    between atoms: C_2  and  S_3
REMARK    2  A    between atoms: C_2  and  N_4
REMARK    3  A    between atoms: N_7  and  C_8
REMARK    4  A    between atoms: C_8  and  S_10
REMARK                            x       y       z     vdW  Elec       q    Type
REMARK                         _______ _______ _______ _____ _____    ______ ____
ROOT
ATOM      1  N   UNL     1       3.330   3.371  18.900  0.00  0.00    +0.000 N 
ATOM      2  C   UNL     1       3.264   3.788  17.481  0.00  0.00    +0.000 C 
ATOM      3  C   UNL     1       3.884   5.189  17.299  0.00  0.00    +0.000 C 
ATOM      4  N   UNL     1       5.264   5.240  17.834  0.00  0.00    +0.000 N 
ATOM      5  C   UNL     1       5.320   4.826  19.252  0.00  0.00    +0.000 C 
ATOM      6  C   UNL     1       4.701   3.430  19.440  0.00  0.00    +0.000 C 
ENDROOT
BRANCH   1   8
ATOM      7  S   UNL     1       2.141   3.124  21.356  0.00  0.00    +0.000 S 
ATOM      8  C   UNL     1       2.226   3.030  19.681  0.00  0.00    +0.000 C 
BRANCH   8   9
ATOM      9  S   UNL     1       0.817   2.413  18.824  0.00  0.00    +0.000 S 
ATOM     10  H   UNL     1       0.597   1.394  19.667  0.00  0.00    +0.000 HD
ENDBRANCH   8   9
ENDBRANCH   1   8
BRANCH   4  11
ATOM     11  C   UNL     1       6.366   5.556  17.030  0.00  0.00    +0.000 C 
ATOM     12  S   UNL     1       6.848   4.720  15.651  0.00  0.00    +0.000 S 
BRANCH  11  13
ATOM     13  S   UNL     1       7.343   6.943  17.508  0.00  0.00    +0.000 S 
ATOM     14  H   UNL     1       7.116   7.687  16.420  0.00  0.00    +0.000 HD
ENDBRANCH  11  13
ENDBRANCH   4  11
TORSDOF 4
ENDMDL
MODEL 5
REMARK VINA RESULT:      -4.5      0.130      5.134
REMARK  Name = 
REMARK  4 active torsions:
REMARK  status: ('A' for Active; 'I' for Inactive)
REMARK    1  A    between atoms: C_2  and  S_3
REMARK    2  A    between atoms: C_2  and  N_4
REMARK    3  A    between atoms: N_7  and  C_8
REMARK    4  A    between atoms: C_8  and  S_10
REMARK                            x       y       z     vdW  Elec       q    Type
REMARK                         _______ _______ _______ _____ _____    ______ ____
ROOT
ATOM      1  N   UNL     1       5.590   4.637  17.670  0.00  0.00    +0.000 N 
ATOM      2  C   UNL     1       5.407   4.713  19.137  0.00  0.00    +0.000 C 
ATOM      3  C   UNL     1       3.960   5.122  19.482  0.00  0.00    +0.000 C 
ATOM      4  N   UNL     1       2.978   4.216  18.840  0.00  0.00    +0.000 N 
ATOM      5  C   UNL     1       3.166   4.150  17.376  0.00  0.00    +0.000 C 
ATOM      6  C   UNL     1       4.608   3.745  17.026  0.00  0.00    +0.000 C 
ENDROOT
BRANCH   1   8
ATOM      7  S   UNL     1       7.299   6.770  17.474  0.00  0.00    +0.000 S 
ATOM      8  C   UNL     1       6.526   5.375  16.947  0.00  0.00    +0.000 C 
BRANCH   8   9
ATOM      9  S   UNL     1       6.895   4.801  15.324  0.00  0.00    +0.000 S 
ATOM     10  H   UNL     1       7.224   3.558  15.705  0.00  0.00    +0.000 HD
ENDBRANCH   8   9
ENDBRANCH   1   8
BRANCH   4  11
ATOM     11  C   UNL     1       2.062   3.461  19.584  0.00  0.00    +0.000 C 
ATOM     12  S   UNL     1       0.908   2.413  18.948  0.00  0.00    +0.000 S 
BRANCH  11  13
ATOM     13  S   UNL     1       2.112   3.630  21.337  0.00  0.00    +0.000 S 
ATOM     14  H   UNL     1       2.766   4.796  21.371  0.00  0.00    +0.000 HD
ENDBRANCH  11  13
ENDBRANCH   4  11
TORSDOF 4
ENDMDL
MODEL 6
REMARK VINA RESULT:      -4.5      0.775      1.532
REMARK  Name = 
REMARK  4 active torsions:
REMARK  status: ('A' for Active; 'I' for Inactive)
REMARK    1  A    between atoms: C_2  and  S_3
REMARK    2  A    between atoms: C_2  and  N_4
REMARK    3  A    between atoms: N_7  and  C_8
REMARK    4  A    between atoms: C_8  and  S_10
REMARK                            x       y       z     vdW  Elec       q    Type
REMARK                         _______ _______ _______ _____ _____    ______ ____
ROOT
ATOM      1  N   UNL     1       3.377   3.477  18.907  0.00  0.00    +0.000 N 
ATOM      2  C   UNL     1       3.292   4.002  17.525  0.00  0.00    +0.000 C 
ATOM      3  C   UNL     1       3.908   5.413  17.443  0.00  0.00    +0.000 C 
ATOM      4  N   UNL     1       5.295   5.427  17.964  0.00  0.00    +0.000 N 
ATOM      5  C   UNL     1       5.368   4.905  19.345  0.00  0.00    +0.000 C 
ATOM      6  C   UNL     1       4.754   3.498  19.434  0.00  0.00    +0.000 C 
ENDROOT
BRANCH   1   8
ATOM      7  S   UNL     1       2.189   3.115  21.349  0.00  0.00    +0.000 S 
ATOM      8  C   UNL     1       2.283   3.076  19.673  0.00  0.00    +0.000 C 
BRANCH   8   9
ATOM      9  S   UNL     1       0.897   2.439  18.792  0.00  0.00    +0.000 S 
ATOM     10  H   UNL     1       0.515   3.623  18.292  0.00  0.00    +0.000 HD
ENDBRANCH   8   9
ENDBRANCH   1   8
BRANCH   4  11
ATOM     11  C   UNL     1       6.387   5.806  17.173  0.00  0.00    +0.000 C 
ATOM     12  S   UNL     1       7.347   7.168  17.411  0.00  0.00    +0.000 S 
BRANCH  11  13
ATOM     13  S   UNL     1       6.784   4.776  15.799  0.00  0.00    +0.000 S 
ATOM     14  H   UNL     1       6.015   3.737  16.145  0.00  0.00    +0.000 HD
ENDBRANCH  11  13
ENDBRANCH   4  11
TORSDOF 4
ENDMDL
MODEL 7
REMARK VINA RESULT:      -4.5      0.848      5.131
REMARK  Name = 
REMARK  4 active torsions:
REMARK  status: ('A' for Active; 'I' for Inactive)
REMARK    1  A    between atoms: C_2  and  S_3
REMARK    2  A    between atoms: C_2  and  N_4
REMARK    3  A    between atoms: N_7  and  C_8
REMARK    4  A    between atoms: C_8  and  S_10
REMARK                            x       y       z     vdW  Elec       q    Type
REMARK                         _______ _______ _______ _____ _____    ______ ____
ROOT
ATOM      1  N   UNL     1       5.373   5.637  17.973  0.00  0.00    +0.000 N 
ATOM      2  C   UNL     1       3.955   5.812  17.584  0.00  0.00    +0.000 C 
ATOM      3  C   UNL     1       3.228   4.451  17.564  0.00  0.00    +0.000 C 
ATOM      4  N   UNL     1       3.371   3.745  18.858  0.00  0.00    +0.000 N 
ATOM      5  C   UNL     1       4.789   3.572  19.236  0.00  0.00    +0.000 C 
ATOM      6  C   UNL     1       5.521   4.925  19.257  0.00  0.00    +0.000 C 
ENDROOT
BRANCH   1   8
ATOM      7  S   UNL     1       7.448   7.356  17.476  0.00  0.00    +0.000 S 
ATOM      8  C   UNL     1       6.464   6.023  17.196  0.00  0.00    +0.000 C 
BRANCH   8   9
ATOM      9  S   UNL     1       6.808   5.038  15.778  0.00  0.00    +0.000 S 
ATOM     10  H   UNL     1       6.023   4.016  16.146  0.00  0.00    +0.000 HD
ENDBRANCH   8   9
ENDBRANCH   1   8
BRANCH   4  11
ATOM     11  C   UNL     1       2.265   3.389  19.641  0.00  0.00    +0.000 C 
ATOM     12  S   UNL     1       2.081   3.708  21.283  0.00  0.00    +0.000 S 
BRANCH  11  13
ATOM     13  S   UNL     1       0.957   2.520  18.841  0.00  0.00    +0.000 S 
ATOM     14  H   UNL     1       1.093   3.089  17.639  0.00  0.00    +0.000 HD
ENDBRANCH  11  13
ENDBRANCH   4  11
TORSDOF 4
ENDMDL
MODEL 8
REMARK VINA RESULT:      -4.5      0.165      1.208
REMARK  Name = 
REMARK  4 active torsions:
REMARK  status: ('A' for Active; 'I' for Inactive)
REMARK    1  A    between atoms: C_2  and  S_3
REMARK    2  A    between atoms: C_2  and  N_4
REMARK    3  A    between atoms: N_7  and  C_8
REMARK    4  A    between atoms: C_8  and  S_10
REMARK                            x       y       z     vdW  Elec       q    Type
REMARK                         _______ _______ _______ _____ _____    ______ ____
ROOT
ATOM      1  N   UNL     1       3.004   4.279  18.836  0.00  0.00    +0.000 N 
ATOM      2  C   UNL     1       3.956   5.252  19.418  0.00  0.00    +0.000 C 
ATOM      3  C   UNL     1       5.409   4.849  19.092  0.00  0.00    +0.000 C 
ATOM      4  N   UNL     1       5.606   4.677  17.634  0.00  0.00    +0.000 N 
ATOM      5  C   UNL     1       4.654   3.701  17.063  0.00  0.00    +0.000 C 
ATOM      6  C   UNL     1       3.203   4.096  17.386  0.00  0.00    +0.000 C 
ENDROOT
BRANCH   1   8
ATOM      7  S   UNL     1       0.901   2.525  18.923  0.00  0.00    +0.000 S 
ATOM      8  C   UNL     1       2.068   3.547  19.566  0.00  0.00    +0.000 C 
BRANCH   8   9
ATOM      9  S   UNL     1       2.102   3.752  21.314  0.00  0.00    +0.000 S 
ATOM     10  H   UNL     1       3.423   3.563  21.435  0.00  0.00    +0.000 HD
ENDBRANCH   8   9
ENDBRANCH   1   8
BRANCH   4  11
ATOM     11  C   UNL     1       6.531   5.439  16.910  0.00  0.00    +0.000 C 
ATOM     12  S   UNL     1       7.312   6.823  17.465  0.00  0.00    +0.000 S 
BRANCH  11  13
ATOM     13  S   UNL     1       6.900   4.914  15.268  0.00  0.00    +0.000 S 
ATOM     14  H   UNL     1       5.847   5.485  14.673  0.00  0.00    +0.000 HD
ENDBRANCH  11  13
ENDBRANCH   4  11
TORSDOF 4
ENDMDL
MODEL 9
REMARK VINA RESULT:      -4.5      0.808      1.938
REMARK  Name = 
REMARK  4 active torsions:
REMARK  status: ('A' for Active; 'I' for Inactive)
REMARK    1  A    between atoms: C_2  and  S_3
REMARK    2  A    between atoms: C_2  and  N_4
REMARK    3  A    between atoms: N_7  and  C_8
REMARK    4  A    between atoms: C_8  and  S_10
REMARK                            x       y       z     vdW  Elec       q    Type
REMARK                         _______ _______ _______ _____ _____    ______ ____
ROOT
ATOM      1  N   UNL     1       3.345   3.607  18.776  0.00  0.00    +0.000 N 
ATOM      2  C   UNL     1       3.317   4.183  17.413  0.00  0.00    +0.000 C 
ATOM      3  C   UNL     1       3.985   5.574  17.399  0.00  0.00    +0.000 C 
ATOM      4  N   UNL     1       5.357   5.517  17.956  0.00  0.00    +0.000 N 
ATOM      5  C   UNL     1       5.374   4.944  19.318  0.00  0.00    +0.000 C 
ATOM      6  C   UNL     1       4.708   3.558  19.339  0.00  0.00    +0.000 C 
ENDROOT
BRANCH   1   8
ATOM      7  S   UNL     1       0.881   2.413  18.877  0.00  0.00    +0.000 S 
ATOM      8  C   UNL     1       2.217   3.219  19.498  0.00  0.00    +0.000 C 
BRANCH   8   9
ATOM      9  S   UNL     1       2.190   3.649  21.205  0.00  0.00    +0.000 S 
ATOM     10  H   UNL     1       2.055   2.391  21.647  0.00  0.00    +0.000 HD
ENDBRANCH   8   9
ENDBRANCH   1   8
BRANCH   4  11
ATOM     11  C   UNL     1       6.483   5.884  17.207  0.00  0.00    +0.000 C 
ATOM     12  S   UNL     1       7.449   7.235  17.483  0.00  0.00    +0.000 S 
BRANCH  11  13
ATOM     13  S   UNL     1       6.920   4.850  15.848  0.00  0.00    +0.000 S 
ATOM     14  H   UNL     1       5.940   5.237  15.025  0.00  0.00    +0.000 HD
ENDBRANCH  11  13
ENDBRANCH   4  11
TORSDOF 4
ENDMDL
