MODEL 1
REMARK VINA RESULT:      -7.9      0.000      0.000
REMARK  Name = 
REMARK  2 active torsions:
REMARK  status: ('A' for Active; 'I' for Inactive)
REMARK    1  A    between atoms: N_7  and  C_8
REMARK    2  A    between atoms: C_15  and  C_16
REMARK                            x       y       z     vdW  Elec       q    Type
REMARK                         _______ _______ _______ _____ _____    ______ ____
ROOT
ATOM      1  O   UNL     1      -0.199  13.759  17.879  0.00  0.00    +0.000 OA
ATOM      2  C   UNL     1       0.183  13.575  19.028  0.00  0.00    +0.000 C 
ATOM      3  C   UNL     1       0.529  12.205  19.513  0.00  0.00    +0.000 C 
ATOM      4  C   UNL     1       0.984  12.408  20.945  0.00  0.00    +0.000 C 
ATOM      5  C   UNL     1       1.102  13.902  21.068  0.00  0.00    +0.000 C 
ATOM      6  O   UNL     1       1.728  14.439  21.972  0.00  0.00    +0.000 OA
ATOM      7  N   UNL     1       0.429  14.482  20.022  0.00  0.00    +0.000 N 
ATOM      8  C   UNL     1      -0.046  11.673  21.808  0.00  0.00    +0.000 C 
ATOM      9  O   UNL     1      -0.711  10.761  20.892  0.00  0.00    +0.000 OA
ATOM     10  C   UNL     1      -0.686  11.302  19.574  0.00  0.00    +0.000 C 
ATOM     11  C   UNL     1      -2.020  11.992  19.233  0.00  0.00    +0.000 C 
ATOM     12  O   UNL     1      -2.520  12.965  19.770  0.00  0.00    +0.000 OA
ATOM     13  C   UNL     1      -2.616  11.347  18.074  0.00  0.00    +0.000 A 
ATOM     14  C   UNL     1      -3.809  11.681  17.457  0.00  0.00    +0.000 A 
ATOM     15  C   UNL     1      -4.148  10.979  16.302  0.00  0.00    +0.000 A 
ATOM     16  C   UNL     1      -3.296   9.980  15.798  0.00  0.00    +0.000 A 
ATOM     17  C   UNL     1      -2.098   9.651  16.451  0.00  0.00    +0.000 A 
ATOM     18  C   UNL     1      -1.781  10.348  17.602  0.00  0.00    +0.000 A 
ATOM     19  C   UNL     1      -0.603  10.226  18.472  0.00  0.00    +0.000 C 
ATOM     20  O   UNL     1       0.282   9.409  18.304  0.00  0.00    +0.000 OA
ENDROOT
BRANCH   7  21
ATOM     21  C   UNL     1       0.095  15.856  19.918  0.00  0.00    +0.000 A 
ATOM     22  C   UNL     1       0.998  16.739  19.296  0.00  0.00    +0.000 A 
ATOM     23  C   UNL     1       0.684  18.086  19.113  0.00  0.00    +0.000 A 
ATOM     24  C   UNL     1      -0.530  18.579  19.576  0.00  0.00    +0.000 A 
ATOM     25  C   UNL     1      -1.420  17.715  20.203  0.00  0.00    +0.000 A 
ATOM     26  F   UNL     1      -2.582  18.196  20.668  0.00  0.00    +0.000 F 
ATOM     27  C   UNL     1      -1.129  16.362  20.362  0.00  0.00    +0.000 A 
ENDBRANCH   7  21
BRANCH   8  28
ATOM     28  C   UNL     1      -1.080  12.444  22.626  0.00  0.00    +0.000 A 
ATOM     29  C   UNL     1      -2.307  11.859  22.986  0.00  0.00    +0.000 A 
ATOM     30  C   UNL     1      -3.296  12.574  23.670  0.00  0.00    +0.000 A 
ATOM     31  C   UNL     1      -3.042  13.876  24.076  0.00  0.00    +0.000 A 
ATOM     32 CL   UNL     1      -4.257  14.762  24.911  0.00  0.00    +0.000 Cl
ATOM     33  C   UNL     1      -1.802  14.451  23.823  0.00  0.00    +0.000 A 
ATOM     34  C   UNL     1      -0.824  13.734  23.117  0.00  0.00    +0.000 A 
ENDBRANCH   8  28
TORSDOF 2
ENDMDL
MODEL 2
REMARK VINA RESULT:      -7.7      0.847      1.160
REMARK  Name = 
REMARK  2 active torsions:
REMARK  status: ('A' for Active; 'I' for Inactive)
REMARK    1  A    between atoms: N_7  and  C_8
REMARK    2  A    between atoms: C_15  and  C_16
REMARK                            x       y       z     vdW  Elec       q    Type
REMARK                         _______ _______ _______ _____ _____    ______ ____
ROOT
ATOM      1  O   UNL     1      -0.049  13.585  17.870  0.00  0.00    +0.000 OA
ATOM      2  C   UNL     1       0.304  13.412  19.029  0.00  0.00    +0.000 C 
ATOM      3  C   UNL     1       0.587  12.041  19.551  0.00  0.00    +0.000 C 
ATOM      4  C   UNL     1       1.025  12.259  20.987  0.00  0.00    +0.000 C 
ATOM      5  C   UNL     1       1.198  13.749  21.079  0.00  0.00    +0.000 C 
ATOM      6  O   UNL     1       1.829  14.282  21.982  0.00  0.00    +0.000 OA
ATOM      7  N   UNL     1       0.567  14.332  20.008  0.00  0.00    +0.000 N 
ATOM      8  C   UNL     1      -0.049  11.583  21.846  0.00  0.00    +0.000 C 
ATOM      9  O   UNL     1      -0.733  10.677  20.937  0.00  0.00    +0.000 OA
ATOM     10  C   UNL     1      -0.662  11.187  19.609  0.00  0.00    +0.000 C 
ATOM     11  C   UNL     1      -1.963  11.920  19.228  0.00  0.00    +0.000 C 
ATOM     12  O   UNL     1      -2.434  12.923  19.734  0.00  0.00    +0.000 OA
ATOM     13  C   UNL     1      -2.563  11.273  18.072  0.00  0.00    +0.000 A 
ATOM     14  C   UNL     1      -3.730  11.638  17.426  0.00  0.00    +0.000 A 
ATOM     15  C   UNL     1      -4.076  10.924  16.280  0.00  0.00    +0.000 A 
ATOM     16  C   UNL     1      -3.254   9.882  15.814  0.00  0.00    +0.000 A 
ATOM     17  C   UNL     1      -2.082   9.522  16.497  0.00  0.00    +0.000 A 
ATOM     18  C   UNL     1      -1.759  10.232  17.638  0.00  0.00    +0.000 A 
ATOM     19  C   UNL     1      -0.601  10.085  18.532  0.00  0.00    +0.000 C 
ATOM     20  O   UNL     1       0.253   9.230  18.400  0.00  0.00    +0.000 OA
ENDROOT
BRANCH   7  21
ATOM     21  C   UNL     1       0.289  15.714  19.868  0.00  0.00    +0.000 A 
ATOM     22  C   UNL     1      -0.639  16.321  20.735  0.00  0.00    +0.000 A 
ATOM     23  C   UNL     1      -0.896  17.692  20.677  0.00  0.00    +0.000 A 
ATOM     24  C   UNL     1      -0.249  18.473  19.729  0.00  0.00    +0.000 A 
ATOM     25  C   UNL     1       0.658  17.877  18.860  0.00  0.00    +0.000 A 
ATOM     26  F   UNL     1       1.266  18.630  17.932  0.00  0.00    +0.000 F 
ATOM     27  C   UNL     1       0.945  16.517  18.932  0.00  0.00    +0.000 A 
ENDBRANCH   7  21
BRANCH   8  28
ATOM     28  C   UNL     1      -1.066  12.413  22.627  0.00  0.00    +0.000 A 
ATOM     29  C   UNL     1      -2.348  11.910  22.914  0.00  0.00    +0.000 A 
ATOM     30  C   UNL     1      -3.317  12.682  23.563  0.00  0.00    +0.000 A 
ATOM     31  C   UNL     1      -2.995  13.956  24.006  0.00  0.00    +0.000 A 
ATOM     32 CL   UNL     1      -4.186  14.911  24.799  0.00  0.00    +0.000 Cl
ATOM     33  C   UNL     1      -1.706  14.446  23.827  0.00  0.00    +0.000 A 
ATOM     34  C   UNL     1      -0.746  13.673  23.156  0.00  0.00    +0.000 A 
ENDBRANCH   8  28
TORSDOF 2
ENDMDL
MODEL 3
REMARK VINA RESULT:      -7.4      7.480     10.006
REMARK  Name = 
REMARK  2 active torsions:
REMARK  status: ('A' for Active; 'I' for Inactive)
REMARK    1  A    between atoms: N_7  and  C_8
REMARK    2  A    between atoms: C_15  and  C_16
REMARK                            x       y       z     vdW  Elec       q    Type
REMARK                         _______ _______ _______ _____ _____    ______ ____
ROOT
ATOM      1  O   UNL     1       6.884  13.951  17.679  0.00  0.00    +0.000 OA
ATOM      2  C   UNL     1       6.775  15.069  18.167  0.00  0.00    +0.000 C 
ATOM      3  C   UNL     1       7.869  16.078  18.030  0.00  0.00    +0.000 C 
ATOM      4  C   UNL     1       7.337  17.317  18.724  0.00  0.00    +0.000 C 
ATOM      5  C   UNL     1       5.891  16.989  18.970  0.00  0.00    +0.000 C 
ATOM      6  O   UNL     1       5.059  17.847  19.235  0.00  0.00    +0.000 OA
ATOM      7  N   UNL     1       5.717  15.635  18.824  0.00  0.00    +0.000 N 
ATOM      8  C   UNL     1       8.262  17.539  19.925  0.00  0.00    +0.000 C 
ATOM      9  O   UNL     1       9.457  16.771  19.617  0.00  0.00    +0.000 OA
ATOM     10  C   UNL     1       9.117  15.667  18.783  0.00  0.00    +0.000 C 
ATOM     11  C   UNL     1       8.975  14.373  19.609  0.00  0.00    +0.000 C 
ATOM     12  O   UNL     1       8.171  14.131  20.491  0.00  0.00    +0.000 OA
ATOM     13  C   UNL     1       9.930  13.387  19.129  0.00  0.00    +0.000 A 
ATOM     14  C   UNL     1      10.108  12.101  19.605  0.00  0.00    +0.000 A 
ATOM     15  C   UNL     1      11.028  11.294  18.937  0.00  0.00    +0.000 A 
ATOM     16  C   UNL     1      11.731  11.786  17.823  0.00  0.00    +0.000 A 
ATOM     17  C   UNL     1      11.542  13.101  17.369  0.00  0.00    +0.000 A 
ATOM     18  C   UNL     1      10.635  13.892  18.049  0.00  0.00    +0.000 A 
ATOM     19  C   UNL     1      10.232  15.282  17.791  0.00  0.00    +0.000 C 
ATOM     20  O   UNL     1      10.713  15.976  16.916  0.00  0.00    +0.000 OA
ENDROOT
BRANCH   7  21
ATOM     21  C   UNL     1       4.567  14.906  19.215  0.00  0.00    +0.000 A 
ATOM     22  C   UNL     1       4.336  14.666  20.584  0.00  0.00    +0.000 A 
ATOM     23  C   UNL     1       3.184  14.009  21.019  0.00  0.00    +0.000 A 
ATOM     24  C   UNL     1       2.257  13.555  20.089  0.00  0.00    +0.000 A 
ATOM     25  C   UNL     1       2.487  13.777  18.736  0.00  0.00    +0.000 A 
ATOM     26  F   UNL     1       1.601  13.319  17.839  0.00  0.00    +0.000 F 
ATOM     27  C   UNL     1       3.617  14.459  18.294  0.00  0.00    +0.000 A 
ENDBRANCH   7  21
BRANCH   8  28
ATOM     28  C   UNL     1       7.790  17.233  21.346  0.00  0.00    +0.000 A 
ATOM     29  C   UNL     1       8.669  16.695  22.304  0.00  0.00    +0.000 A 
ATOM     30  C   UNL     1       8.238  16.340  23.586  0.00  0.00    +0.000 A 
ATOM     31  C   UNL     1       6.926  16.588  23.961  0.00  0.00    +0.000 A 
ATOM     32 CL   UNL     1       6.389  16.146  25.534  0.00  0.00    +0.000 Cl
ATOM     33  C   UNL     1       6.057  17.209  23.071  0.00  0.00    +0.000 A 
ATOM     34  C   UNL     1       6.491  17.543  21.779  0.00  0.00    +0.000 A 
ENDBRANCH   8  28
TORSDOF 2
ENDMDL
MODEL 4
REMARK VINA RESULT:      -7.2      2.492      3.775
REMARK  Name = 
REMARK  2 active torsions:
REMARK  status: ('A' for Active; 'I' for Inactive)
REMARK    1  A    between atoms: N_7  and  C_8
REMARK    2  A    between atoms: C_15  and  C_16
REMARK                            x       y       z     vdW  Elec       q    Type
REMARK                         _______ _______ _______ _____ _____    ______ ____
ROOT
ATOM      1  O   UNL     1       0.844  13.903  21.318  0.00  0.00    +0.000 OA
ATOM      2  C   UNL     1      -0.166  14.162  21.962  0.00  0.00    +0.000 C 
ATOM      3  C   UNL     1      -0.756  13.161  22.903  0.00  0.00    +0.000 C 
ATOM      4  C   UNL     1      -1.948  13.869  23.518  0.00  0.00    +0.000 C 
ATOM      5  C   UNL     1      -1.782  15.294  23.066  0.00  0.00    +0.000 C 
ATOM      6  O   UNL     1      -2.370  16.224  23.600  0.00  0.00    +0.000 OA
ATOM      7  N   UNL     1      -0.885  15.323  22.027  0.00  0.00    +0.000 N 
ATOM      8  C   UNL     1      -3.175  13.081  23.049  0.00  0.00    +0.000 C 
ATOM      9  O   UNL     1      -2.647  11.795  22.623  0.00  0.00    +0.000 OA
ATOM     10  C   UNL     1      -1.304  11.952  22.174  0.00  0.00    +0.000 C 
ATOM     11  C   UNL     1      -1.242  12.043  20.637  0.00  0.00    +0.000 C 
ATOM     12  O   UNL     1      -1.728  12.895  19.915  0.00  0.00    +0.000 OA
ATOM     13  C   UNL     1      -0.421  10.958  20.122  0.00  0.00    +0.000 A 
ATOM     14  C   UNL     1      -0.118  10.702  18.797  0.00  0.00    +0.000 A 
ATOM     15  C   UNL     1       0.762   9.653  18.535  0.00  0.00    +0.000 A 
ATOM     16  C   UNL     1       1.312   8.903  19.590  0.00  0.00    +0.000 A 
ATOM     17  C   UNL     1       0.976   9.175  20.926  0.00  0.00    +0.000 A 
ATOM     18  C   UNL     1       0.093  10.211  21.168  0.00  0.00    +0.000 A 
ATOM     19  C   UNL     1      -0.418  10.721  22.448  0.00  0.00    +0.000 C 
ATOM     20  O   UNL     1      -0.148  10.233  23.529  0.00  0.00    +0.000 OA
ENDROOT
BRANCH   7  21
ATOM     21  C   UNL     1      -0.652  16.429  21.171  0.00  0.00    +0.000 A 
ATOM     22  C   UNL     1       0.186  17.472  21.607  0.00  0.00    +0.000 A 
ATOM     23  C   UNL     1       0.496  18.548  20.775  0.00  0.00    +0.000 A 
ATOM     24  C   UNL     1      -0.052  18.612  19.499  0.00  0.00    +0.000 A 
ATOM     25  C   UNL     1      -0.891  17.591  19.068  0.00  0.00    +0.000 A 
ATOM     26  F   UNL     1      -1.436  17.665  17.845  0.00  0.00    +0.000 F 
ATOM     27  C   UNL     1      -1.181  16.498  19.880  0.00  0.00    +0.000 A 
ENDBRANCH   7  21
BRANCH   8  28
ATOM     28  C   UNL     1      -4.109  13.646  21.981  0.00  0.00    +0.000 A 
ATOM     29  C   UNL     1      -4.765  12.801  21.067  0.00  0.00    +0.000 A 
ATOM     30  C   UNL     1      -5.565  13.305  20.037  0.00  0.00    +0.000 A 
ATOM     31  C   UNL     1      -5.787  14.671  19.947  0.00  0.00    +0.000 A 
ATOM     32 CL   UNL     1      -6.765  15.296  18.677  0.00  0.00    +0.000 Cl
ATOM     33  C   UNL     1      -5.235  15.526  20.894  0.00  0.00    +0.000 A 
ATOM     34  C   UNL     1      -4.415  15.015  21.911  0.00  0.00    +0.000 A 
ENDBRANCH   8  28
TORSDOF 2
ENDMDL
MODEL 5
REMARK VINA RESULT:      -7.1      7.526      9.944
REMARK  Name = 
REMARK  2 active torsions:
REMARK  status: ('A' for Active; 'I' for Inactive)
REMARK    1  A    between atoms: N_7  and  C_8
REMARK    2  A    between atoms: C_15  and  C_16
REMARK                            x       y       z     vdW  Elec       q    Type
REMARK                         _______ _______ _______ _____ _____    ______ ____
ROOT
ATOM      1  O   UNL     1       7.076  14.611  17.450  0.00  0.00    +0.000 OA
ATOM      2  C   UNL     1       7.051  15.584  18.193  0.00  0.00    +0.000 C 
ATOM      3  C   UNL     1       8.273  16.418  18.409  0.00  0.00    +0.000 C 
ATOM      4  C   UNL     1       7.823  17.522  19.346  0.00  0.00    +0.000 C 
ATOM      5  C   UNL     1       6.328  17.369  19.377  0.00  0.00    +0.000 C 
ATOM      6  O   UNL     1       5.585  18.255  19.778  0.00  0.00    +0.000 OA
ATOM      7  N   UNL     1       6.002  16.131  18.880  0.00  0.00    +0.000 N 
ATOM      8  C   UNL     1       8.617  17.308  20.639  0.00  0.00    +0.000 C 
ATOM      9  O   UNL     1       9.734  16.462  20.249  0.00  0.00    +0.000 OA
ATOM     10  C   UNL     1       9.359  15.654  19.138  0.00  0.00    +0.000 C 
ATOM     11  C   UNL     1       8.957  14.238  19.594  0.00  0.00    +0.000 C 
ATOM     12  O   UNL     1       8.028  13.918  20.315  0.00  0.00    +0.000 OA
ATOM     13  C   UNL     1       9.830  13.261  18.964  0.00  0.00    +0.000 A 
ATOM     14  C   UNL     1       9.785  11.886  19.113  0.00  0.00    +0.000 A 
ATOM     15  C   UNL     1      10.669  11.131  18.344  0.00  0.00    +0.000 A 
ATOM     16  C   UNL     1      11.558  11.761  17.455  0.00  0.00    +0.000 A 
ATOM     17  C   UNL     1      11.593  13.159  17.333  0.00  0.00    +0.000 A 
ATOM     18  C   UNL     1      10.718  13.894  18.111  0.00  0.00    +0.000 A 
ATOM     19  C   UNL     1      10.528  15.350  18.180  0.00  0.00    +0.000 C 
ATOM     20  O   UNL     1      11.194  16.151  17.552  0.00  0.00    +0.000 OA
ENDROOT
BRANCH   7  21
ATOM     21  C   UNL     1       4.731  15.513  18.974  0.00  0.00    +0.000 A 
ATOM     22  C   UNL     1       3.836  15.610  17.891  0.00  0.00    +0.000 A 
ATOM     23  C   UNL     1       2.599  14.963  17.913  0.00  0.00    +0.000 A 
ATOM     24  C   UNL     1       2.226  14.232  19.034  0.00  0.00    +0.000 A 
ATOM     25  C   UNL     1       3.099  14.144  20.111  0.00  0.00    +0.000 A 
ATOM     26  F   UNL     1       2.727  13.454  21.200  0.00  0.00    +0.000 F 
ATOM     27  C   UNL     1       4.347  14.759  20.086  0.00  0.00    +0.000 A 
ENDBRANCH   7  21
BRANCH   8  28
ATOM     28  C   UNL     1       7.943  16.749  21.890  0.00  0.00    +0.000 A 
ATOM     29  C   UNL     1       8.634  15.892  22.766  0.00  0.00    +0.000 A 
ATOM     30  C   UNL     1       8.011  15.311  23.876  0.00  0.00    +0.000 A 
ATOM     31  C   UNL     1       6.698  15.639  24.175  0.00  0.00    +0.000 A 
ATOM     32 CL   UNL     1       5.926  14.922  25.535  0.00  0.00    +0.000 Cl
ATOM     33  C   UNL     1       6.017  16.559  23.386  0.00  0.00    +0.000 A 
ATOM     34  C   UNL     1       6.641  17.121  22.261  0.00  0.00    +0.000 A 
ENDBRANCH   8  28
TORSDOF 2
ENDMDL
MODEL 6
REMARK VINA RESULT:      -7.1      0.599      1.019
REMARK  Name = 
REMARK  2 active torsions:
REMARK  status: ('A' for Active; 'I' for Inactive)
REMARK    1  A    between atoms: N_7  and  C_8
REMARK    2  A    between atoms: C_15  and  C_16
REMARK                            x       y       z     vdW  Elec       q    Type
REMARK                         _______ _______ _______ _____ _____    ______ ____
ROOT
ATOM      1  O   UNL     1       0.054  13.622  18.207  0.00  0.00    +0.000 OA
ATOM      2  C   UNL     1       0.257  13.544  19.412  0.00  0.00    +0.000 C 
ATOM      3  C   UNL     1       0.426  12.218  20.079  0.00  0.00    +0.000 C 
ATOM      4  C   UNL     1       0.693  12.551  21.534  0.00  0.00    +0.000 C 
ATOM      5  C   UNL     1       0.907  14.039  21.520  0.00  0.00    +0.000 C 
ATOM      6  O   UNL     1       1.442  14.635  22.446  0.00  0.00    +0.000 OA
ATOM      7  N   UNL     1       0.432  14.540  20.334  0.00  0.00    +0.000 N 
ATOM      8  C   UNL     1      -0.501  11.982  22.308  0.00  0.00    +0.000 C 
ATOM      9  O   UNL     1      -1.101  11.016  21.401  0.00  0.00    +0.000 OA
ATOM     10  C   UNL     1      -0.851  11.404  20.053  0.00  0.00    +0.000 C 
ATOM     11  C   UNL     1      -2.069  12.133  19.453  0.00  0.00    +0.000 C 
ATOM     12  O   UNL     1      -2.562  13.188  19.810  0.00  0.00    +0.000 OA
ATOM     13  C   UNL     1      -2.546  11.401  18.291  0.00  0.00    +0.000 A 
ATOM     14  C   UNL     1      -3.612  11.737  17.476  0.00  0.00    +0.000 A 
ATOM     15  C   UNL     1      -3.842  10.932  16.361  0.00  0.00    +0.000 A 
ATOM     16  C   UNL     1      -3.008   9.833  16.091  0.00  0.00    +0.000 A 
ATOM     17  C   UNL     1      -1.940   9.506  16.942  0.00  0.00    +0.000 A 
ATOM     18  C   UNL     1      -1.733  10.306  18.050  0.00  0.00    +0.000 A 
ATOM     19  C   UNL     1      -0.699  10.209  19.091  0.00  0.00    +0.000 C 
ATOM     20  O   UNL     1       0.134   9.325  19.138  0.00  0.00    +0.000 OA
ENDROOT
BRANCH   7  21
ATOM     21  C   UNL     1       0.222  15.911  20.043  0.00  0.00    +0.000 A 
ATOM     22  C   UNL     1       1.323  16.717  19.694  0.00  0.00    +0.000 A 
ATOM     23  C   UNL     1       1.156  18.056  19.337  0.00  0.00    +0.000 A 
ATOM     24  C   UNL     1      -0.115  18.618  19.350  0.00  0.00    +0.000 A 
ATOM     25  C   UNL     1      -1.203  17.831  19.707  0.00  0.00    +0.000 A 
ATOM     26  F   UNL     1      -2.425  18.381  19.740  0.00  0.00    +0.000 F 
ATOM     27  C   UNL     1      -1.051  16.487  20.034  0.00  0.00    +0.000 A 
ENDBRANCH   7  21
BRANCH   8  28
ATOM     28  C   UNL     1      -1.575  12.903  22.883  0.00  0.00    +0.000 A 
ATOM     29  C   UNL     1      -1.282  14.234  23.232  0.00  0.00    +0.000 A 
ATOM     30  C   UNL     1      -2.232  15.068  23.828  0.00  0.00    +0.000 A 
ATOM     31  C   UNL     1      -3.526  14.607  24.020  0.00  0.00    +0.000 A 
ATOM     32 CL   UNL     1      -4.696  15.628  24.759  0.00  0.00    +0.000 Cl
ATOM     33  C   UNL     1      -3.876  13.330  23.595  0.00  0.00    +0.000 A 
ATOM     34  C   UNL     1      -2.910  12.491  23.018  0.00  0.00    +0.000 A 
ENDBRANCH   8  28
TORSDOF 2
ENDMDL
MODEL 7
REMARK VINA RESULT:      -7.0      2.106      3.149
REMARK  Name = 
REMARK  2 active torsions:
REMARK  status: ('A' for Active; 'I' for Inactive)
REMARK    1  A    between atoms: N_7  and  C_8
REMARK    2  A    between atoms: C_15  and  C_16
REMARK                            x       y       z     vdW  Elec       q    Type
REMARK                         _______ _______ _______ _____ _____    ______ ____
ROOT
ATOM      1  O   UNL     1      -0.827  14.803  19.261  0.00  0.00    +0.000 OA
ATOM      2  C   UNL     1      -0.994  15.031  20.453  0.00  0.00    +0.000 C 
ATOM      3  C   UNL     1      -0.258  14.253  21.496  0.00  0.00    +0.000 C 
ATOM      4  C   UNL     1      -0.707  14.856  22.813  0.00  0.00    +0.000 C 
ATOM      5  C   UNL     1      -1.459  16.090  22.396  0.00  0.00    +0.000 C 
ATOM      6  O   UNL     1      -1.713  16.998  23.176  0.00  0.00    +0.000 OA
ATOM      7  N   UNL     1      -1.755  15.993  21.059  0.00  0.00    +0.000 N 
ATOM      8  C   UNL     1      -1.462  13.737  23.537  0.00  0.00    +0.000 C 
ATOM      9  O   UNL     1      -1.034  12.515  22.875  0.00  0.00    +0.000 OA
ATOM     10  C   UNL     1      -0.683  12.800  21.523  0.00  0.00    +0.000 C 
ATOM     11  C   UNL     1      -1.838  12.447  20.566  0.00  0.00    +0.000 C 
ATOM     12  O   UNL     1      -2.953  12.936  20.524  0.00  0.00    +0.000 OA
ATOM     13  C   UNL     1      -1.387  11.446  19.612  0.00  0.00    +0.000 A 
ATOM     14  C   UNL     1      -2.126  10.880  18.589  0.00  0.00    +0.000 A 
ATOM     15  C   UNL     1      -1.463   9.998  17.736  0.00  0.00    +0.000 A 
ATOM     16  C   UNL     1      -0.098   9.715  17.923  0.00  0.00    +0.000 A 
ATOM     17  C   UNL     1       0.625  10.293  18.978  0.00  0.00    +0.000 A 
ATOM     18  C   UNL     1      -0.049  11.156  19.822  0.00  0.00    +0.000 A 
ATOM     19  C   UNL     1       0.451  11.905  20.984  0.00  0.00    +0.000 C 
ATOM     20  O   UNL     1       1.587  11.819  21.408  0.00  0.00    +0.000 OA
ENDROOT
BRANCH   7  21
ATOM     21  C   UNL     1      -2.662  16.822  20.354  0.00  0.00    +0.000 A 
ATOM     22  C   UNL     1      -2.158  17.832  19.511  0.00  0.00    +0.000 A 
ATOM     23  C   UNL     1      -3.011  18.630  18.747  0.00  0.00    +0.000 A 
ATOM     24  C   UNL     1      -4.386  18.449  18.836  0.00  0.00    +0.000 A 
ATOM     25  C   UNL     1      -4.889  17.464  19.676  0.00  0.00    +0.000 A 
ATOM     26  F   UNL     1      -6.217  17.305  19.776  0.00  0.00    +0.000 F 
ATOM     27  C   UNL     1      -4.045  16.641  20.418  0.00  0.00    +0.000 A 
ENDBRANCH   7  21
BRANCH   8  28
ATOM     28  C   UNL     1      -2.984  13.767  23.656  0.00  0.00    +0.000 A 
ATOM     29  C   UNL     1      -3.695  14.979  23.594  0.00  0.00    +0.000 A 
ATOM     30  C   UNL     1      -5.082  15.033  23.775  0.00  0.00    +0.000 A 
ATOM     31  C   UNL     1      -5.797  13.858  23.948  0.00  0.00    +0.000 A 
ATOM     32 CL   UNL     1      -7.500  13.921  24.177  0.00  0.00    +0.000 Cl
ATOM     33  C   UNL     1      -5.137  12.635  23.915  0.00  0.00    +0.000 A 
ATOM     34  C   UNL     1      -3.743  12.590  23.755  0.00  0.00    +0.000 A 
ENDBRANCH   8  28
TORSDOF 2
ENDMDL
MODEL 8
REMARK VINA RESULT:      -7.0      3.220      6.619
REMARK  Name = 
REMARK  2 active torsions:
REMARK  status: ('A' for Active; 'I' for Inactive)
REMARK    1  A    between atoms: N_7  and  C_8
REMARK    2  A    between atoms: C_15  and  C_16
REMARK                            x       y       z     vdW  Elec       q    Type
REMARK                         _______ _______ _______ _____ _____    ______ ____
ROOT
ATOM      1  O   UNL     1       2.246  12.323  19.681  0.00  0.00    +0.000 OA
ATOM      2  C   UNL     1       1.177  12.916  19.749  0.00  0.00    +0.000 C 
ATOM      3  C   UNL     1       0.989  14.243  19.087  0.00  0.00    +0.000 C 
ATOM      4  C   UNL     1      -0.455  14.612  19.370  0.00  0.00    +0.000 C 
ATOM      5  C   UNL     1      -1.034  13.351  19.947  0.00  0.00    +0.000 C 
ATOM      6  O   UNL     1      -2.239  13.155  20.020  0.00  0.00    +0.000 OA
ATOM      7  N   UNL     1      -0.002  12.526  20.324  0.00  0.00    +0.000 N 
ATOM      8  C   UNL     1      -0.389  15.866  20.248  0.00  0.00    +0.000 C 
ATOM      9  O   UNL     1       0.953  16.389  20.044  0.00  0.00    +0.000 OA
ATOM     10  C   UNL     1       1.840  15.320  19.725  0.00  0.00    +0.000 C 
ATOM     11  C   UNL     1       2.630  14.867  20.968  0.00  0.00    +0.000 C 
ATOM     12  O   UNL     1       2.195  14.380  21.997  0.00  0.00    +0.000 OA
ATOM     13  C   UNL     1       4.053  15.034  20.724  0.00  0.00    +0.000 A 
ATOM     14  C   UNL     1       5.088  14.732  21.592  0.00  0.00    +0.000 A 
ATOM     15  C   UNL     1       6.388  14.893  21.116  0.00  0.00    +0.000 A 
ATOM     16  C   UNL     1       6.617  15.339  19.802  0.00  0.00    +0.000 A 
ATOM     17  C   UNL     1       5.549  15.651  18.946  0.00  0.00    +0.000 A 
ATOM     18  C   UNL     1       4.265  15.498  19.436  0.00  0.00    +0.000 A 
ATOM     19  C   UNL     1       2.977  15.734  18.769  0.00  0.00    +0.000 C 
ATOM     20  O   UNL     1       2.868  16.168  17.638  0.00  0.00    +0.000 OA
ENDROOT
BRANCH   7  21
ATOM     21  C   UNL     1      -0.126  11.367  21.129  0.00  0.00    +0.000 A 
ATOM     22  C   UNL     1      -0.688  11.479  22.415  0.00  0.00    +0.000 A 
ATOM     23  C   UNL     1      -0.890  10.355  23.218  0.00  0.00    +0.000 A 
ATOM     24  C   UNL     1      -0.504   9.103  22.757  0.00  0.00    +0.000 A 
ATOM     25  C   UNL     1       0.064   8.987  21.494  0.00  0.00    +0.000 A 
ATOM     26  F   UNL     1       0.454   7.780  21.060  0.00  0.00    +0.000 F 
ATOM     27  C   UNL     1       0.239  10.098  20.673  0.00  0.00    +0.000 A 
ENDBRANCH   7  21
BRANCH   8  28
ATOM     28  C   UNL     1      -0.708  15.798  21.740  0.00  0.00    +0.000 A 
ATOM     29  C   UNL     1      -0.002  16.582  22.671  0.00  0.00    +0.000 A 
ATOM     30  C   UNL     1      -0.229  16.478  24.047  0.00  0.00    +0.000 A 
ATOM     31  C   UNL     1      -1.226  15.637  24.516  0.00  0.00    +0.000 A 
ATOM     32 CL   UNL     1      -1.504  15.502  26.208  0.00  0.00    +0.000 Cl
ATOM     33  C   UNL     1      -2.009  14.923  23.616  0.00  0.00    +0.000 A 
ATOM     34  C   UNL     1      -1.761  15.015  22.238  0.00  0.00    +0.000 A 
ENDBRANCH   8  28
TORSDOF 2
ENDMDL
MODEL 9
REMARK VINA RESULT:      -6.9      3.203      6.889
REMARK  Name = 
REMARK  2 active torsions:
REMARK  status: ('A' for Active; 'I' for Inactive)
REMARK    1  A    between atoms: N_7  and  C_8
REMARK    2  A    between atoms: C_15  and  C_16
REMARK                            x       y       z     vdW  Elec       q    Type
REMARK                         _______ _______ _______ _____ _____    ______ ____
ROOT
ATOM      1  O   UNL     1       3.113  13.467  19.450  0.00  0.00    +0.000 OA
ATOM      2  C   UNL     1       1.929  13.629  19.184  0.00  0.00    +0.000 C 
ATOM      3  C   UNL     1       1.381  14.993  18.912  0.00  0.00    +0.000 C 
ATOM      4  C   UNL     1      -0.083  14.762  18.593  0.00  0.00    +0.000 C 
ATOM      5  C   UNL     1      -0.182  13.267  18.459  0.00  0.00    +0.000 C 
ATOM      6  O   UNL     1      -1.129  12.718  17.912  0.00  0.00    +0.000 OA
ATOM      7  N   UNL     1       0.937  12.702  19.018  0.00  0.00    +0.000 N 
ATOM      8  C   UNL     1      -0.860  15.458  19.715  0.00  0.00    +0.000 C 
ATOM      9  O   UNL     1       0.096  16.381  20.306  0.00  0.00    +0.000 OA
ATOM     10  C   UNL     1       1.417  15.873  20.144  0.00  0.00    +0.000 C 
ATOM     11  C   UNL     1       1.900  15.170  21.427  0.00  0.00    +0.000 C 
ATOM     12  O   UNL     1       1.436  14.176  21.957  0.00  0.00    +0.000 OA
ATOM     13  C   UNL     1       3.096  15.833  21.921  0.00  0.00    +0.000 A 
ATOM     14  C   UNL     1       3.832  15.495  23.042  0.00  0.00    +0.000 A 
ATOM     15  C   UNL     1       4.999  16.220  23.283  0.00  0.00    +0.000 A 
ATOM     16  C   UNL     1       5.395  17.245  22.405  0.00  0.00    +0.000 A 
ATOM     17  C   UNL     1       4.622  17.577  21.282  0.00  0.00    +0.000 A 
ATOM     18  C   UNL     1       3.462  16.857  21.063  0.00  0.00    +0.000 A 
ATOM     19  C   UNL     1       2.480  16.977  19.976  0.00  0.00    +0.000 C 
ATOM     20  O   UNL     1       2.543  17.813  19.095  0.00  0.00    +0.000 OA
ENDROOT
BRANCH   7  21
ATOM     21  C   UNL     1       1.104  11.326  19.314  0.00  0.00    +0.000 A 
ATOM     22  C   UNL     1       0.793  10.857  20.605  0.00  0.00    +0.000 A 
ATOM     23  C   UNL     1       0.880   9.501  20.923  0.00  0.00    +0.000 A 
ATOM     24  C   UNL     1       1.308   8.594  19.961  0.00  0.00    +0.000 A 
ATOM     25  C   UNL     1       1.630   9.053  18.690  0.00  0.00    +0.000 A 
ATOM     26  F   UNL     1       2.063   8.180  17.769  0.00  0.00    +0.000 F 
ATOM     27  C   UNL     1       1.516  10.399  18.353  0.00  0.00    +0.000 A 
ENDBRANCH   7  21
BRANCH   8  28
ATOM     28  C   UNL     1      -1.556  14.649  20.807  0.00  0.00    +0.000 A 
ATOM     29  C   UNL     1      -1.646  15.133  22.125  0.00  0.00    +0.000 A 
ATOM     30  C   UNL     1      -2.214  14.374  23.154  0.00  0.00    +0.000 A 
ATOM     31  C   UNL     1      -2.774  13.139  22.866  0.00  0.00    +0.000 A 
ATOM     32 CL   UNL     1      -3.467  12.200  24.129  0.00  0.00    +0.000 Cl
ATOM     33  C   UNL     1      -2.791  12.675  21.556  0.00  0.00    +0.000 A 
ATOM     34  C   UNL     1      -2.199  13.432  20.532  0.00  0.00    +0.000 A 
ENDBRANCH   8  28
TORSDOF 2
ENDMDL
