MODEL 1
REMARK VINA RESULT:      -8.1      0.000      0.000
REMARK  Name = 
REMARK  8 active torsions:
REMARK  status: ('A' for Active; 'I' for Inactive)
REMARK    1  A    between atoms: C_1  and  C_2
REMARK    2  A    between atoms: C_9  and  C_10
REMARK    3  A    between atoms: C_11  and  C_12
REMARK    4  A    between atoms: C_12  and  C_13
REMARK    5  A    between atoms: C_13  and  C_14
REMARK    6  A    between atoms: C_20  and  C_21
REMARK    7  A    between atoms: C_21  and  C_22
REMARK    8  A    between atoms: C_21  and  C_23
REMARK                            x       y       z     vdW  Elec       q    Type
REMARK                         _______ _______ _______ _____ _____    ______ ____
ROOT
ATOM      1  C   UNL     1       3.357   5.092  19.603  0.00  0.00    +0.000 C 
ENDROOT
BRANCH   1   2
ATOM      2  C   UNL     1       2.864   6.517  19.363  0.00  0.00    +0.000 C 
ATOM      3  O   UNL     1       3.055   7.071  18.282  0.00  0.00    +0.000 OA
ATOM      4  N   UNL     1       2.203   7.059  20.444  0.00  0.00    +0.000 N 
ATOM      5  C   UNL     1       1.590   8.288  20.377  0.00  0.00    +0.000 A 
ATOM      6  N   UNL     1       1.326   9.057  19.352  0.00  0.00    +0.000 NA
ATOM      7  N   UNL     1       0.627  10.195  19.726  0.00  0.00    +0.000 NA
ATOM      8  C   UNL     1       0.419  10.251  21.026  0.00  0.00    +0.000 A 
ATOM      9  S   UNL     1       1.060   8.898  21.885  0.00  0.00    +0.000 S 
ATOM     10  H   UNL     1       2.210   6.608  21.344  0.00  0.00    +0.000 HD
BRANCH   8  11
ATOM     11  C   UNL     1      -0.345  11.337  21.741  0.00  0.00    +0.000 C 
ATOM     12  C   UNL     1      -1.465  11.907  20.871  0.00  0.00    +0.000 C 
ATOM     13  C   UNL     1      -0.915  10.808  23.057  0.00  0.00    +0.000 C 
ENDBRANCH   8  11
ENDBRANCH   1   2
BRANCH   1  14
ATOM     14  C   UNL     1       4.883   5.018  19.442  0.00  0.00    +0.000 C 
BRANCH  14  25
ATOM     15  C   UNL     1       3.432   3.005  17.706  0.00  0.00    +0.000 C 
ATOM     16  C   UNL     1       4.610   3.769  17.140  0.00  0.00    +0.000 A 
ATOM     17  N   UNL     1       4.886   3.514  15.895  0.00  0.00    +0.000 NA
ATOM     18  N   UNL     1       5.932   4.221  15.417  0.00  0.00    +0.000 N 
ATOM     19  C   UNL     1       6.447   4.172  14.154  0.00  0.00    +0.000 A 
ATOM     20  N   UNL     1       7.466   4.995  14.050  0.00  0.00    +0.000 NA
ATOM     21  N   UNL     1       7.628   5.607  15.274  0.00  0.00    +0.000 NA
ATOM     22  C   UNL     1       6.702   5.138  16.089  0.00  0.00    +0.000 A 
ATOM     23  C   UNL     1       6.396   5.426  17.450  0.00  0.00    +0.000 A 
ATOM     24  C   UNL     1       7.191   6.466  18.208  0.00  0.00    +0.000 C 
ATOM     25  C   UNL     1       5.366   4.749  18.026  0.00  0.00    +0.000 A 
ENDBRANCH  14  25
ENDBRANCH   1  14
TORSDOF 4
ENDMDL
MODEL 2
REMARK VINA RESULT:      -8.0      1.829      2.460
REMARK  Name = 
REMARK  8 active torsions:
REMARK  status: ('A' for Active; 'I' for Inactive)
REMARK    1  A    between atoms: C_1  and  C_2
REMARK    2  A    between atoms: C_9  and  C_10
REMARK    3  A    between atoms: C_11  and  C_12
REMARK    4  A    between atoms: C_12  and  C_13
REMARK    5  A    between atoms: C_13  and  C_14
REMARK    6  A    between atoms: C_20  and  C_21
REMARK    7  A    between atoms: C_21  and  C_22
REMARK    8  A    between atoms: C_21  and  C_23
REMARK                            x       y       z     vdW  Elec       q    Type
REMARK                         _______ _______ _______ _____ _____    ______ ____
ROOT
ATOM      1  C   UNL     1       2.129   6.472  20.507  0.00  0.00    +0.000 C 
ENDROOT
BRANCH   1   2
ATOM      2  C   UNL     1       1.547   7.879  20.383  0.00  0.00    +0.000 C 
ATOM      3  O   UNL     1       1.706   8.533  19.355  0.00  0.00    +0.000 OA
ATOM      4  N   UNL     1       0.850   8.285  21.501  0.00  0.00    +0.000 N 
ATOM      5  C   UNL     1       0.160   9.475  21.532  0.00  0.00    +0.000 A 
ATOM      6  N   UNL     1      -0.148  10.309  20.574  0.00  0.00    +0.000 NA
ATOM      7  N   UNL     1      -0.919  11.366  21.036  0.00  0.00    +0.000 NA
ATOM      8  C   UNL     1      -1.135  11.298  22.334  0.00  0.00    +0.000 A 
ATOM      9  S   UNL     1      -0.413   9.920  23.081  0.00  0.00    +0.000 S 
ATOM     10  H   UNL     1       0.883   7.761  22.359  0.00  0.00    +0.000 HD
BRANCH   8  11
ATOM     11  C   UNL     1      -1.969  12.269  23.131  0.00  0.00    +0.000 C 
ATOM     12  C   UNL     1      -1.243  13.598  23.342  0.00  0.00    +0.000 C 
ATOM     13  C   UNL     1      -3.314  12.504  22.444  0.00  0.00    +0.000 C 
ENDBRANCH   8  11
ENDBRANCH   1   2
BRANCH   1  14
ATOM     14  C   UNL     1       2.216   5.805  19.126  0.00  0.00    +0.000 C 
BRANCH  14  25
ATOM     15  C   UNL     1       3.694   3.302  19.975  0.00  0.00    +0.000 C 
ATOM     16  C   UNL     1       4.354   4.271  19.017  0.00  0.00    +0.000 A 
ATOM     17  N   UNL     1       5.530   3.914  18.594  0.00  0.00    +0.000 NA
ATOM     18  N   UNL     1       6.085   4.793  17.732  0.00  0.00    +0.000 N 
ATOM     19  C   UNL     1       7.300   4.687  17.120  0.00  0.00    +0.000 A 
ATOM     20  N   UNL     1       7.511   5.731  16.351  0.00  0.00    +0.000 NA
ATOM     21  N   UNL     1       6.406   6.548  16.454  0.00  0.00    +0.000 NA
ATOM     22  C   UNL     1       5.554   5.977  17.284  0.00  0.00    +0.000 A 
ATOM     23  C   UNL     1       4.261   6.366  17.739  0.00  0.00    +0.000 A 
ATOM     24  C   UNL     1       3.623   7.639  17.229  0.00  0.00    +0.000 C 
ATOM     25  C   UNL     1       3.629   5.551  18.625  0.00  0.00    +0.000 A 
ENDBRANCH  14  25
ENDBRANCH   1  14
TORSDOF 4
ENDMDL
MODEL 3
REMARK VINA RESULT:      -7.9      0.752      2.005
REMARK  Name = 
REMARK  8 active torsions:
REMARK  status: ('A' for Active; 'I' for Inactive)
REMARK    1  A    between atoms: C_1  and  C_2
REMARK    2  A    between atoms: C_9  and  C_10
REMARK    3  A    between atoms: C_11  and  C_12
REMARK    4  A    between atoms: C_12  and  C_13
REMARK    5  A    between atoms: C_13  and  C_14
REMARK    6  A    between atoms: C_20  and  C_21
REMARK    7  A    between atoms: C_21  and  C_22
REMARK    8  A    between atoms: C_21  and  C_23
REMARK                            x       y       z     vdW  Elec       q    Type
REMARK                         _______ _______ _______ _____ _____    ______ ____
ROOT
ATOM      1  C   UNL     1       3.476   5.319  19.240  0.00  0.00    +0.000 C 
ENDROOT
BRANCH   1   2
ATOM      2  C   UNL     1       2.974   6.756  19.129  0.00  0.00    +0.000 C 
ATOM      3  O   UNL     1       3.196   7.421  18.119  0.00  0.00    +0.000 OA
ATOM      4  N   UNL     1       2.267   7.178  20.234  0.00  0.00    +0.000 N 
ATOM      5  C   UNL     1       1.640   8.402  20.271  0.00  0.00    +0.000 A 
ATOM      6  N   UNL     1       1.404   9.269  19.321  0.00  0.00    +0.000 NA
ATOM      7  N   UNL     1       0.676  10.356  19.783  0.00  0.00    +0.000 NA
ATOM      8  C   UNL     1       0.420  10.276  21.073  0.00  0.00    +0.000 A 
ATOM      9  S   UNL     1       1.047   8.848  21.812  0.00  0.00    +0.000 S 
ATOM     10  H   UNL     1       2.247   6.637  21.083  0.00  0.00    +0.000 HD
BRANCH   8  11
ATOM     11  C   UNL     1      -0.384  11.275  21.866  0.00  0.00    +0.000 C 
ATOM     12  C   UNL     1      -1.459  11.944  21.010  0.00  0.00    +0.000 C 
ATOM     13  C   UNL     1      -1.021  10.600  23.082  0.00  0.00    +0.000 C 
ENDBRANCH   8  11
ENDBRANCH   1   2
BRANCH   1  14
ATOM     14  C   UNL     1       5.008   5.277  19.130  0.00  0.00    +0.000 C 
BRANCH  14  25
ATOM     15  C   UNL     1       7.394   6.956  18.317  0.00  0.00    +0.000 C 
ATOM     16  C   UNL     1       6.773   6.006  17.315  0.00  0.00    +0.000 A 
ATOM     17  N   UNL     1       7.362   5.962  16.158  0.00  0.00    +0.000 NA
ATOM     18  N   UNL     1       6.792   5.095  15.293  0.00  0.00    +0.000 N 
ATOM     19  C   UNL     1       7.191   4.829  14.015  0.00  0.00    +0.000 A 
ATOM     20  N   UNL     1       6.398   3.934  13.472  0.00  0.00    +0.000 NA
ATOM     21  N   UNL     1       5.451   3.596  14.415  0.00  0.00    +0.000 NA
ATOM     22  C   UNL     1       5.696   4.296  15.506  0.00  0.00    +0.000 A 
ATOM     23  C   UNL     1       5.053   4.337  16.777  0.00  0.00    +0.000 A 
ATOM     24  C   UNL     1       3.874   3.436  17.064  0.00  0.00    +0.000 C 
ATOM     25  C   UNL     1       5.547   5.194  17.710  0.00  0.00    +0.000 A 
ENDBRANCH  14  25
ENDBRANCH   1  14
TORSDOF 4
ENDMDL
MODEL 4
REMARK VINA RESULT:      -7.8      2.622      8.653
REMARK  Name = 
REMARK  8 active torsions:
REMARK  status: ('A' for Active; 'I' for Inactive)
REMARK    1  A    between atoms: C_1  and  C_2
REMARK    2  A    between atoms: C_9  and  C_10
REMARK    3  A    between atoms: C_11  and  C_12
REMARK    4  A    between atoms: C_12  and  C_13
REMARK    5  A    between atoms: C_13  and  C_14
REMARK    6  A    between atoms: C_20  and  C_21
REMARK    7  A    between atoms: C_21  and  C_22
REMARK    8  A    between atoms: C_21  and  C_23
REMARK                            x       y       z     vdW  Elec       q    Type
REMARK                         _______ _______ _______ _____ _____    ______ ____
ROOT
ATOM      1  C   UNL     1       0.942   6.777  21.022  0.00  0.00    +0.000 C 
ENDROOT
BRANCH   1   2
ATOM      2  C   UNL     1       1.872   5.679  20.509  0.00  0.00    +0.000 C 
ATOM      3  O   UNL     1       1.915   4.584  21.066  0.00  0.00    +0.000 OA
ATOM      4  N   UNL     1       2.599   6.051  19.399  0.00  0.00    +0.000 N 
ATOM      5  C   UNL     1       3.404   5.160  18.728  0.00  0.00    +0.000 A 
ATOM      6  N   UNL     1       3.508   3.860  18.827  0.00  0.00    +0.000 NA
ATOM      7  N   UNL     1       4.406   3.342  17.906  0.00  0.00    +0.000 NA
ATOM      8  C   UNL     1       4.967   4.280  17.170  0.00  0.00    +0.000 A 
ATOM      9  S   UNL     1       4.419   5.872  17.550  0.00  0.00    +0.000 S 
ATOM     10  H   UNL     1       2.625   7.006  19.084  0.00  0.00    +0.000 HD
BRANCH   8  11
ATOM     11  C   UNL     1       5.953   4.041  16.054  0.00  0.00    +0.000 C 
ATOM     12  C   UNL     1       5.408   4.512  14.706  0.00  0.00    +0.000 C 
ATOM     13  C   UNL     1       7.281   4.734  16.360  0.00  0.00    +0.000 C 
ENDBRANCH   8  11
ENDBRANCH   1   2
BRANCH   1  14
ATOM     14  C   UNL     1       1.627   8.149  20.924  0.00  0.00    +0.000 C 
BRANCH  14  25
ATOM     15  C   UNL     1       0.113   9.438  23.209  0.00  0.00    +0.000 C 
ATOM     16  C   UNL     1      -0.037   9.990  21.807  0.00  0.00    +0.000 A 
ATOM     17  N   UNL     1      -0.803  11.035  21.704  0.00  0.00    +0.000 NA
ATOM     18  N   UNL     1      -0.904  11.510  20.444  0.00  0.00    +0.000 N 
ATOM     19  C   UNL     1      -1.626  12.592  20.031  0.00  0.00    +0.000 A 
ATOM     20  N   UNL     1      -1.493  12.754  18.734  0.00  0.00    +0.000 NA
ATOM     21  N   UNL     1      -0.658  11.757  18.277  0.00  0.00    +0.000 NA
ATOM     22  C   UNL     1      -0.308  11.015  19.311  0.00  0.00    +0.000 A 
ATOM     23  C   UNL     1       0.539   9.875  19.422  0.00  0.00    +0.000 A 
ATOM     24  C   UNL     1       1.251   9.332  18.204  0.00  0.00    +0.000 C 
ATOM     25  C   UNL     1       0.690   9.315  20.652  0.00  0.00    +0.000 A 
ENDBRANCH  14  25
ENDBRANCH   1  14
TORSDOF 4
ENDMDL
MODEL 5
REMARK VINA RESULT:      -7.8      2.549      8.903
REMARK  Name = 
REMARK  8 active torsions:
REMARK  status: ('A' for Active; 'I' for Inactive)
REMARK    1  A    between atoms: C_1  and  C_2
REMARK    2  A    between atoms: C_9  and  C_10
REMARK    3  A    between atoms: C_11  and  C_12
REMARK    4  A    between atoms: C_12  and  C_13
REMARK    5  A    between atoms: C_13  and  C_14
REMARK    6  A    between atoms: C_20  and  C_21
REMARK    7  A    between atoms: C_21  and  C_22
REMARK    8  A    between atoms: C_21  and  C_23
REMARK                            x       y       z     vdW  Elec       q    Type
REMARK                         _______ _______ _______ _____ _____    ______ ____
ROOT
ATOM      1  C   UNL     1       0.853   6.956  20.888  0.00  0.00    +0.000 C 
ENDROOT
BRANCH   1   2
ATOM      2  C   UNL     1       1.845   5.877  20.460  0.00  0.00    +0.000 C 
ATOM      3  O   UNL     1       1.975   4.849  21.121  0.00  0.00    +0.000 OA
ATOM      4  N   UNL     1       2.520   6.182  19.298  0.00  0.00    +0.000 N 
ATOM      5  C   UNL     1       3.370   5.284  18.696  0.00  0.00    +0.000 A 
ATOM      6  N   UNL     1       3.565   4.010  18.920  0.00  0.00    +0.000 NA
ATOM      7  N   UNL     1       4.477   3.462  18.030  0.00  0.00    +0.000 NA
ATOM      8  C   UNL     1       4.956   4.357  17.188  0.00  0.00    +0.000 A 
ATOM      9  S   UNL     1       4.308   5.939  17.424  0.00  0.00    +0.000 S 
ATOM     10  H   UNL     1       2.473   7.100  18.888  0.00  0.00    +0.000 HD
BRANCH   8  11
ATOM     11  C   UNL     1       5.931   4.072  16.075  0.00  0.00    +0.000 C 
ATOM     12  C   UNL     1       5.499   4.727  14.762  0.00  0.00    +0.000 C 
ATOM     13  C   UNL     1       7.334   4.541  16.463  0.00  0.00    +0.000 C 
ENDBRANCH   8  11
ENDBRANCH   1   2
BRANCH   1  14
ATOM     14  C   UNL     1       1.562   8.312  21.024  0.00  0.00    +0.000 C 
BRANCH  14  25
ATOM     15  C   UNL     1       1.382   9.441  18.220  0.00  0.00    +0.000 C 
ATOM     16  C   UNL     1       0.563  10.064  19.330  0.00  0.00    +0.000 A 
ATOM     17  N   UNL     1      -0.207  11.045  18.964  0.00  0.00    +0.000 NA
ATOM     18  N   UNL     1      -0.934  11.569  19.975  0.00  0.00    +0.000 N 
ATOM     19  C   UNL     1      -1.829  12.596  19.895  0.00  0.00    +0.000 A 
ATOM     20  N   UNL     1      -2.343  12.839  21.079  0.00  0.00    +0.000 NA
ATOM     21  N   UNL     1      -1.777  11.947  21.965  0.00  0.00    +0.000 NA
ATOM     22  C   UNL     1      -0.934  11.188  21.293  0.00  0.00    +0.000 A 
ATOM     23  C   UNL     1      -0.097  10.107  21.696  0.00  0.00    +0.000 A 
ATOM     24  C   UNL     1      -0.107   9.627  23.130  0.00  0.00    +0.000 C 
ATOM     25  C   UNL     1       0.686   9.524  20.749  0.00  0.00    +0.000 A 
ENDBRANCH  14  25
ENDBRANCH   1  14
TORSDOF 4
ENDMDL
MODEL 6
REMARK VINA RESULT:      -7.7      2.308      3.930
REMARK  Name = 
REMARK  8 active torsions:
REMARK  status: ('A' for Active; 'I' for Inactive)
REMARK    1  A    between atoms: C_1  and  C_2
REMARK    2  A    between atoms: C_9  and  C_10
REMARK    3  A    between atoms: C_11  and  C_12
REMARK    4  A    between atoms: C_12  and  C_13
REMARK    5  A    between atoms: C_13  and  C_14
REMARK    6  A    between atoms: C_20  and  C_21
REMARK    7  A    between atoms: C_21  and  C_22
REMARK    8  A    between atoms: C_21  and  C_23
REMARK                            x       y       z     vdW  Elec       q    Type
REMARK                         _______ _______ _______ _____ _____    ______ ____
ROOT
ATOM      1  C   UNL     1       2.091   8.432  17.523  0.00  0.00    +0.000 C 
ENDROOT
BRANCH   1   2
ATOM      2  C   UNL     1       1.780   9.741  18.244  0.00  0.00    +0.000 C 
ATOM      3  O   UNL     1       2.168  10.815  17.787  0.00  0.00    +0.000 OA
ATOM      4  N   UNL     1       1.039   9.572  19.393  0.00  0.00    +0.000 N 
ATOM      5  C   UNL     1       0.566  10.644  20.115  0.00  0.00    +0.000 A 
ATOM      6  N   UNL     1       0.521  11.918  19.823  0.00  0.00    +0.000 NA
ATOM      7  N   UNL     1      -0.105  12.655  20.818  0.00  0.00    +0.000 NA
ATOM      8  C   UNL     1      -0.478  11.906  21.837  0.00  0.00    +0.000 A 
ATOM      9  S   UNL     1      -0.097  10.234  21.638  0.00  0.00    +0.000 S 
ATOM     10  H   UNL     1       0.880   8.660  19.787  0.00  0.00    +0.000 HD
BRANCH   8  11
ATOM     11  C   UNL     1      -1.218  12.397  23.055  0.00  0.00    +0.000 C 
ATOM     12  C   UNL     1      -1.069  13.908  23.237  0.00  0.00    +0.000 C 
ATOM     13  C   UNL     1      -2.696  12.018  22.968  0.00  0.00    +0.000 C 
ENDBRANCH   8  11
ENDBRANCH   1   2
BRANCH   1  14
ATOM     14  C   UNL     1       3.299   7.737  18.171  0.00  0.00    +0.000 C 
BRANCH  14  25
ATOM     15  C   UNL     1       4.884   6.267  16.050  0.00  0.00    +0.000 C 
ATOM     16  C   UNL     1       4.101   5.479  17.078  0.00  0.00    +0.000 A 
ATOM     17  N   UNL     1       4.210   4.187  16.983  0.00  0.00    +0.000 NA
ATOM     18  N   UNL     1       3.511   3.515  17.923  0.00  0.00    +0.000 N 
ATOM     19  C   UNL     1       3.439   2.161  18.079  0.00  0.00    +0.000 A 
ATOM     20  N   UNL     1       2.662   1.865  19.096  0.00  0.00    +0.000 NA
ATOM     21  N   UNL     1       2.211   3.053  19.630  0.00  0.00    +0.000 NA
ATOM     22  C   UNL     1       2.727   4.039  18.920  0.00  0.00    +0.000 A 
ATOM     23  C   UNL     1       2.612   5.454  19.031  0.00  0.00    +0.000 A 
ATOM     24  C   UNL     1       1.797   6.069  20.147  0.00  0.00    +0.000 C 
ATOM     25  C   UNL     1       3.269   6.218  18.118  0.00  0.00    +0.000 A 
ENDBRANCH  14  25
ENDBRANCH   1  14
TORSDOF 4
ENDMDL
MODEL 7
REMARK VINA RESULT:      -7.7      4.362      6.896
REMARK  Name = 
REMARK  8 active torsions:
REMARK  status: ('A' for Active; 'I' for Inactive)
REMARK    1  A    between atoms: C_1  and  C_2
REMARK    2  A    between atoms: C_9  and  C_10
REMARK    3  A    between atoms: C_11  and  C_12
REMARK    4  A    between atoms: C_12  and  C_13
REMARK    5  A    between atoms: C_13  and  C_14
REMARK    6  A    between atoms: C_20  and  C_21
REMARK    7  A    between atoms: C_21  and  C_22
REMARK    8  A    between atoms: C_21  and  C_23
REMARK                            x       y       z     vdW  Elec       q    Type
REMARK                         _______ _______ _______ _____ _____    ______ ____
ROOT
ATOM      1  C   UNL     1       6.918   6.231  16.717  0.00  0.00    +0.000 C 
ENDROOT
BRANCH   1   2
ATOM      2  C   UNL     1       7.569   7.134  17.762  0.00  0.00    +0.000 C 
ATOM      3  O   UNL     1       7.947   6.674  18.838  0.00  0.00    +0.000 OA
ATOM      4  N   UNL     1       7.685   8.446  17.359  0.00  0.00    +0.000 N 
ATOM      5  C   UNL     1       8.347   9.383  18.119  0.00  0.00    +0.000 A 
ATOM      6  N   UNL     1       9.115   9.243  19.168  0.00  0.00    +0.000 NA
ATOM      7  N   UNL     1       9.640  10.456  19.590  0.00  0.00    +0.000 NA
ATOM      8  C   UNL     1       9.219  11.467  18.855  0.00  0.00    +0.000 A 
ATOM      9  S   UNL     1       8.154  10.995  17.581  0.00  0.00    +0.000 S 
ATOM     10  H   UNL     1       7.225   8.783  16.530  0.00  0.00    +0.000 HD
BRANCH   8  11
ATOM     11  C   UNL     1       9.638  12.904  19.028  0.00  0.00    +0.000 C 
ATOM     12  C   UNL     1      10.483  13.100  20.287  0.00  0.00    +0.000 C 
ATOM     13  C   UNL     1      10.404  13.388  17.796  0.00  0.00    +0.000 C 
ENDBRANCH   8  11
ENDBRANCH   1   2
BRANCH   1  14
ATOM     14  C   UNL     1       5.466   6.666  16.464  0.00  0.00    +0.000 C 
BRANCH  14  25
ATOM     15  C   UNL     1       3.172   7.892  18.015  0.00  0.00    +0.000 C 
ATOM     16  C   UNL     1       3.234   6.390  17.834  0.00  0.00    +0.000 A 
ATOM     17  N   UNL     1       2.238   5.731  18.348  0.00  0.00    +0.000 NA
ATOM     18  N   UNL     1       2.317   4.396  18.158  0.00  0.00    +0.000 N 
ATOM     19  C   UNL     1       1.421   3.454  18.574  0.00  0.00    +0.000 A 
ATOM     20  N   UNL     1       1.826   2.257  18.214  0.00  0.00    +0.000 NA
ATOM     21  N   UNL     1       3.019   2.411  17.539  0.00  0.00    +0.000 NA
ATOM     22  C   UNL     1       3.305   3.698  17.509  0.00  0.00    +0.000 A 
ATOM     23  C   UNL     1       4.393   4.419  16.938  0.00  0.00    +0.000 A 
ATOM     24  C   UNL     1       5.474   3.689  16.173  0.00  0.00    +0.000 C 
ATOM     25  C   UNL     1       4.410   5.770  17.092  0.00  0.00    +0.000 A 
ENDBRANCH  14  25
ENDBRANCH   1  14
TORSDOF 4
ENDMDL
MODEL 8
REMARK VINA RESULT:      -7.7      3.348      5.313
REMARK  Name = 
REMARK  8 active torsions:
REMARK  status: ('A' for Active; 'I' for Inactive)
REMARK    1  A    between atoms: C_1  and  C_2
REMARK    2  A    between atoms: C_9  and  C_10
REMARK    3  A    between atoms: C_11  and  C_12
REMARK    4  A    between atoms: C_12  and  C_13
REMARK    5  A    between atoms: C_13  and  C_14
REMARK    6  A    between atoms: C_20  and  C_21
REMARK    7  A    between atoms: C_21  and  C_22
REMARK    8  A    between atoms: C_21  and  C_23
REMARK                            x       y       z     vdW  Elec       q    Type
REMARK                         _______ _______ _______ _____ _____    ______ ____
ROOT
ATOM      1  C   UNL     1       1.578   8.867  17.467  0.00  0.00    +0.000 C 
ENDROOT
BRANCH   1   2
ATOM      2  C   UNL     1       0.578   9.753  18.207  0.00  0.00    +0.000 C 
ATOM      3  O   UNL     1       0.936  10.436  19.164  0.00  0.00    +0.000 OA
ATOM      4  N   UNL     1      -0.695   9.702  17.681  0.00  0.00    +0.000 N 
ATOM      5  C   UNL     1      -1.703  10.517  18.142  0.00  0.00    +0.000 A 
ATOM      6  N   UNL     1      -1.667  11.554  18.938  0.00  0.00    +0.000 NA
ATOM      7  N   UNL     1      -2.919  12.131  19.092  0.00  0.00    +0.000 NA
ATOM      8  C   UNL     1      -3.855  11.484  18.428  0.00  0.00    +0.000 A 
ATOM      9  S   UNL     1      -3.259  10.121  17.552  0.00  0.00    +0.000 S 
ATOM     10  H   UNL     1      -0.951   9.015  16.992  0.00  0.00    +0.000 HD
BRANCH   8  11
ATOM     11  C   UNL     1      -5.307  11.881  18.357  0.00  0.00    +0.000 C 
ATOM     12  C   UNL     1      -5.673  12.450  16.986  0.00  0.00    +0.000 C 
ATOM     13  C   UNL     1      -6.202  10.687  18.690  0.00  0.00    +0.000 C 
ENDBRANCH   8  11
ENDBRANCH   1   2
BRANCH   1  14
ATOM     14  C   UNL     1       2.762   8.517  18.380  0.00  0.00    +0.000 C 
BRANCH  14  25
ATOM     15  C   UNL     1       4.473   6.651  16.718  0.00  0.00    +0.000 C 
ATOM     16  C   UNL     1       3.764   6.121  17.946  0.00  0.00    +0.000 A 
ATOM     17  N   UNL     1       3.988   4.869  18.216  0.00  0.00    +0.000 NA
ATOM     18  N   UNL     1       3.353   4.431  19.324  0.00  0.00    +0.000 N 
ATOM     19  C   UNL     1       3.402   3.175  19.856  0.00  0.00    +0.000 A 
ATOM     20  N   UNL     1       2.655   3.113  20.935  0.00  0.00    +0.000 NA
ATOM     21  N   UNL     1       2.099   4.360  21.124  0.00  0.00    +0.000 NA
ATOM     22  C   UNL     1       2.525   5.146  20.153  0.00  0.00    +0.000 A 
ATOM     23  C   UNL     1       2.284   6.520  19.865  0.00  0.00    +0.000 A 
ATOM     24  C   UNL     1       1.417   7.352  20.784  0.00  0.00    +0.000 C 
ATOM     25  C   UNL     1       2.869   7.048  18.757  0.00  0.00    +0.000 A 
ENDBRANCH  14  25
ENDBRANCH   1  14
TORSDOF 4
ENDMDL
MODEL 9
REMARK VINA RESULT:      -7.7      1.450      1.761
REMARK  Name = 
REMARK  8 active torsions:
REMARK  status: ('A' for Active; 'I' for Inactive)
REMARK    1  A    between atoms: C_1  and  C_2
REMARK    2  A    between atoms: C_9  and  C_10
REMARK    3  A    between atoms: C_11  and  C_12
REMARK    4  A    between atoms: C_12  and  C_13
REMARK    5  A    between atoms: C_13  and  C_14
REMARK    6  A    between atoms: C_20  and  C_21
REMARK    7  A    between atoms: C_21  and  C_22
REMARK    8  A    between atoms: C_21  and  C_23
REMARK                            x       y       z     vdW  Elec       q    Type
REMARK                         _______ _______ _______ _____ _____    ______ ____
ROOT
ATOM      1  C   UNL     1       2.798   7.259  18.373  0.00  0.00    +0.000 C 
ENDROOT
BRANCH   1   2
ATOM      2  C   UNL     1       1.963   7.692  19.576  0.00  0.00    +0.000 C 
ATOM      3  O   UNL     1       1.874   6.973  20.569  0.00  0.00    +0.000 OA
ATOM      4  N   UNL     1       1.372   8.927  19.417  0.00  0.00    +0.000 N 
ATOM      5  C   UNL     1       0.675   9.534  20.436  0.00  0.00    +0.000 A 
ATOM      6  N   UNL     1       0.589   9.237  21.707  0.00  0.00    +0.000 NA
ATOM      7  N   UNL     1      -0.177  10.161  22.403  0.00  0.00    +0.000 NA
ATOM      8  C   UNL     1      -0.662  11.103  21.618  0.00  0.00    +0.000 A 
ATOM      9  S   UNL     1      -0.200  10.926  19.965  0.00  0.00    +0.000 S 
ATOM     10  H   UNL     1       1.365   9.396  18.526  0.00  0.00    +0.000 HD
BRANCH   8  11
ATOM     11  C   UNL     1      -1.496  12.273  22.074  0.00  0.00    +0.000 C 
ATOM     12  C   UNL     1      -2.400  11.901  23.248  0.00  0.00    +0.000 C 
ATOM     13  C   UNL     1      -0.597  13.452  22.450  0.00  0.00    +0.000 C 
ENDBRANCH   8  11
ENDBRANCH   1   2
BRANCH   1  14
ATOM     14  C   UNL     1       3.814   6.183  18.786  0.00  0.00    +0.000 C 
BRANCH  14  25
ATOM     15  C   UNL     1       2.773   3.705  17.391  0.00  0.00    +0.000 C 
ATOM     16  C   UNL     1       4.055   4.350  16.911  0.00  0.00    +0.000 A 
ATOM     17  N   UNL     1       4.602   3.786  15.875  0.00  0.00    +0.000 NA
ATOM     18  N   UNL     1       5.736   4.393  15.464  0.00  0.00    +0.000 N 
ATOM     19  C   UNL     1       6.522   4.035  14.407  0.00  0.00    +0.000 A 
ATOM     20  N   UNL     1       7.546   4.853  14.309  0.00  0.00    +0.000 NA
ATOM     21  N   UNL     1       7.433   5.778  15.324  0.00  0.00    +0.000 NA
ATOM     22  C   UNL     1       6.343   5.495  16.012  0.00  0.00    +0.000 A 
ATOM     23  C   UNL     1       5.741   6.121  17.142  0.00  0.00    +0.000 A 
ATOM     24  C   UNL     1       6.354   7.366  17.742  0.00  0.00    +0.000 C 
ATOM     25  C   UNL     1       4.602   5.570  17.639  0.00  0.00    +0.000 A 
ENDBRANCH  14  25
ENDBRANCH   1  14
TORSDOF 4
ENDMDL
