MODEL 1
REMARK VINA RESULT:      -9.7      0.000      0.000
REMARK  Name = 
REMARK  8 active torsions:
REMARK  status: ('A' for Active; 'I' for Inactive)
REMARK    1  A    between atoms: C_2  and  C_3
REMARK    2  A    between atoms: C_2  and  C_27
REMARK    3  A    between atoms: C_6  and  O_7
REMARK    4  A    between atoms: O_7  and  C_8
REMARK    5  A    between atoms: C_13  and  C_14
REMARK    6  A    between atoms: N_16  and  C_17
REMARK    7  A    between atoms: C_17  and  C_18
REMARK    8  A    between atoms: C_18  and  C_19
REMARK                            x       y       z     vdW  Elec       q    Type
REMARK                         _______ _______ _______ _____ _____    ______ ____
ROOT
ATOM      1  O   UNL     1       3.473   5.721  19.599  0.00  0.00    +0.000 OA
ENDROOT
BRANCH   1   5
ATOM      2  C   UNL     1       1.285   9.196  18.785  0.00  0.00    +0.000 A 
ATOM      3  C   UNL     1       2.045   8.567  17.796  0.00  0.00    +0.000 A 
ATOM      4  C   UNL     1       2.778   7.414  18.107  0.00  0.00    +0.000 A 
ATOM      5  C   UNL     1       2.752   6.881  19.401  0.00  0.00    +0.000 A 
ATOM      6  C   UNL     1       1.955   7.486  20.375  0.00  0.00    +0.000 A 
ATOM      7  C   UNL     1       1.239   8.647  20.075  0.00  0.00    +0.000 A 
BRANCH   2   9
ATOM      8  O   UNL     1      -0.697  10.261  18.095  0.00  0.00    +0.000 OA
ATOM      9  C   UNL     1       0.470  10.403  18.455  0.00  0.00    +0.000 C 
BRANCH   9  10
ATOM     10  C   UNL     1       1.083  11.700  18.666  0.00  0.00    +0.000 A 
ATOM     11  N   UNL     1       0.519  12.670  19.362  0.00  0.00    +0.000 NA
ATOM     12  C   UNL     1       1.309  13.768  19.169  0.00  0.00    +0.000 A 
ATOM     13  C   UNL     1       1.126  15.077  19.630  0.00  0.00    +0.000 A 
ATOM     14  C   UNL     1       2.036  16.059  19.227  0.00  0.00    +0.000 A 
ATOM     15  C   UNL     1       3.107  15.737  18.389  0.00  0.00    +0.000 A 
ATOM     16  C   UNL     1       3.321  14.425  17.942  0.00  0.00    +0.000 A 
ATOM     17  C   UNL     1       2.399  13.463  18.359  0.00  0.00    +0.000 A 
ATOM     18  N   UNL     1       2.277  12.114  18.132  0.00  0.00    +0.000 N 
ATOM     19  H   UNL     1       2.888  11.537  17.568  0.00  0.00    +0.000 HD
ENDBRANCH   9  10
ENDBRANCH   2   9
ENDBRANCH   1   5
BRANCH   1  20
ATOM     20  C   UNL     1       2.791   4.571  19.975  0.00  0.00    +0.000 A 
ATOM     21  N   UNL     1       2.449   4.438  21.284  0.00  0.00    +0.000 NA
ATOM     22  C   UNL     1       1.716   3.360  21.631  0.00  0.00    +0.000 A 
ATOM     23  C   UNL     1       1.318   2.388  20.733  0.00  0.00    +0.000 A 
ATOM     24  C   UNL     1       1.727   2.510  19.406  0.00  0.00    +0.000 A 
ATOM     25  C   UNL     1       2.505   3.608  19.012  0.00  0.00    +0.000 A 
BRANCH  25  26
ATOM     26  C   UNL     1       2.956   3.677  17.600  0.00  0.00    +0.000 C 
ATOM     27  O   UNL     1       2.215   3.281  16.706  0.00  0.00    +0.000 OA
ATOM     28  N   UNL     1       4.237   4.130  17.373  0.00  0.00    +0.000 N 
ATOM     29  H   UNL     1       4.830   4.360  18.161  0.00  0.00    +0.000 HD
BRANCH  28  30
ATOM     30  C   UNL     1       4.791   4.200  16.031  0.00  0.00    +0.000 C 
BRANCH  30  31
ATOM     31  C   UNL     1       6.320   4.145  16.041  0.00  0.00    +0.000 C 
BRANCH  31  32
ATOM     32  C   UNL     1       6.922   5.168  16.971  0.00  0.00    +0.000 A 
ATOM     33  C   UNL     1       6.908   6.529  16.636  0.00  0.00    +0.000 A 
ATOM     34  C   UNL     1       7.490   7.472  17.485  0.00  0.00    +0.000 A 
ATOM     35  C   UNL     1       8.093   7.066  18.673  0.00  0.00    +0.000 A 
ATOM     36  C   UNL     1       8.112   5.715  19.016  0.00  0.00    +0.000 A 
ATOM     37  C   UNL     1       7.531   4.769  18.169  0.00  0.00    +0.000 A 
ENDBRANCH  31  32
ENDBRANCH  30  31
ENDBRANCH  28  30
ENDBRANCH  25  26
ENDBRANCH   1  20
TORSDOF 8
ENDMDL
MODEL 2
REMARK VINA RESULT:      -9.4      2.232      3.429
REMARK  Name = 
REMARK  8 active torsions:
REMARK  status: ('A' for Active; 'I' for Inactive)
REMARK    1  A    between atoms: C_2  and  C_3
REMARK    2  A    between atoms: C_2  and  C_27
REMARK    3  A    between atoms: C_6  and  O_7
REMARK    4  A    between atoms: O_7  and  C_8
REMARK    5  A    between atoms: C_13  and  C_14
REMARK    6  A    between atoms: N_16  and  C_17
REMARK    7  A    between atoms: C_17  and  C_18
REMARK    8  A    between atoms: C_18  and  C_19
REMARK                            x       y       z     vdW  Elec       q    Type
REMARK                         _______ _______ _______ _____ _____    ______ ____
ROOT
ATOM      1  O   UNL     1       3.498   5.475  19.651  0.00  0.00    +0.000 OA
ENDROOT
BRANCH   1   5
ATOM      2  C   UNL     1       1.480   9.106  19.130  0.00  0.00    +0.000 A 
ATOM      3  C   UNL     1       1.420   8.408  20.339  0.00  0.00    +0.000 A 
ATOM      4  C   UNL     1       2.095   7.187  20.474  0.00  0.00    +0.000 A 
ATOM      5  C   UNL     1       2.836   6.662  19.409  0.00  0.00    +0.000 A 
ATOM      6  C   UNL     1       2.931   7.385  18.218  0.00  0.00    +0.000 A 
ATOM      7  C   UNL     1       2.244   8.591  18.072  0.00  0.00    +0.000 A 
BRANCH   2   9
ATOM      8  O   UNL     1       1.404  11.453  19.282  0.00  0.00    +0.000 OA
ATOM      9  C   UNL     1       0.796  10.425  18.988  0.00  0.00    +0.000 C 
BRANCH   9  10
ATOM     10  C   UNL     1      -0.538  10.428  18.419  0.00  0.00    +0.000 A 
ATOM     11  N   UNL     1      -0.845   9.844  17.276  0.00  0.00    +0.000 NA
ATOM     12  C   UNL     1      -2.127  10.228  17.000  0.00  0.00    +0.000 A 
ATOM     13  C   UNL     1      -2.909   9.944  15.874  0.00  0.00    +0.000 A 
ATOM     14  C   UNL     1      -4.177  10.526  15.779  0.00  0.00    +0.000 A 
ATOM     15  C   UNL     1      -4.653  11.366  16.790  0.00  0.00    +0.000 A 
ATOM     16  C   UNL     1      -3.894  11.638  17.937  0.00  0.00    +0.000 A 
ATOM     17  C   UNL     1      -2.631  11.044  18.008  0.00  0.00    +0.000 A 
ATOM     18  N   UNL     1      -1.627  11.076  18.945  0.00  0.00    +0.000 N 
ATOM     19  H   UNL     1      -1.629  11.586  19.818  0.00  0.00    +0.000 HD
ENDBRANCH   9  10
ENDBRANCH   2   9
ENDBRANCH   1   5
BRANCH   1  20
ATOM     20  C   UNL     1       2.750   4.349  19.967  0.00  0.00    +0.000 A 
ATOM     21  N   UNL     1       2.308   4.222  21.247  0.00  0.00    +0.000 NA
ATOM     22  C   UNL     1       1.513   3.170  21.531  0.00  0.00    +0.000 A 
ATOM     23  C   UNL     1       1.146   2.218  20.599  0.00  0.00    +0.000 A 
ATOM     24  C   UNL     1       1.655   2.332  19.307  0.00  0.00    +0.000 A 
ATOM     25  C   UNL     1       2.499   3.402  18.979  0.00  0.00    +0.000 A 
BRANCH  25  26
ATOM     26  C   UNL     1       3.054   3.462  17.604  0.00  0.00    +0.000 C 
ATOM     27  O   UNL     1       2.294   3.428  16.641  0.00  0.00    +0.000 OA
ATOM     28  N   UNL     1       4.426   3.483  17.482  0.00  0.00    +0.000 N 
ATOM     29  H   UNL     1       5.000   3.420  18.314  0.00  0.00    +0.000 HD
BRANCH  28  30
ATOM     30  C   UNL     1       5.073   3.502  16.180  0.00  0.00    +0.000 C 
BRANCH  30  31
ATOM     31  C   UNL     1       5.459   4.920  15.756  0.00  0.00    +0.000 C 
BRANCH  31  32
ATOM     32  C   UNL     1       6.348   5.598  16.769  0.00  0.00    +0.000 A 
ATOM     33  C   UNL     1       6.481   6.993  16.776  0.00  0.00    +0.000 A 
ATOM     34  C   UNL     1       7.325   7.617  17.697  0.00  0.00    +0.000 A 
ATOM     35  C   UNL     1       8.043   6.856  18.615  0.00  0.00    +0.000 A 
ATOM     36  C   UNL     1       7.917   5.468  18.617  0.00  0.00    +0.000 A 
ATOM     37  C   UNL     1       7.074   4.840  17.698  0.00  0.00    +0.000 A 
ENDBRANCH  31  32
ENDBRANCH  30  31
ENDBRANCH  28  30
ENDBRANCH  25  26
ENDBRANCH   1  20
TORSDOF 8
ENDMDL
MODEL 3
REMARK VINA RESULT:      -9.4      2.359      3.495
REMARK  Name = 
REMARK  8 active torsions:
REMARK  status: ('A' for Active; 'I' for Inactive)
REMARK    1  A    between atoms: C_2  and  C_3
REMARK    2  A    between atoms: C_2  and  C_27
REMARK    3  A    between atoms: C_6  and  O_7
REMARK    4  A    between atoms: O_7  and  C_8
REMARK    5  A    between atoms: C_13  and  C_14
REMARK    6  A    between atoms: N_16  and  C_17
REMARK    7  A    between atoms: C_17  and  C_18
REMARK    8  A    between atoms: C_18  and  C_19
REMARK                            x       y       z     vdW  Elec       q    Type
REMARK                         _______ _______ _______ _____ _____    ______ ____
ROOT
ATOM      1  O   UNL     1       2.994   6.169  19.803  0.00  0.00    +0.000 OA
ENDROOT
BRANCH   1   5
ATOM      2  C   UNL     1       0.805   9.735  19.913  0.00  0.00    +0.000 A 
ATOM      3  C   UNL     1       0.929   8.924  21.043  0.00  0.00    +0.000 A 
ATOM      4  C   UNL     1       1.657   7.728  20.967  0.00  0.00    +0.000 A 
ATOM      5  C   UNL     1       2.266   7.341  19.768  0.00  0.00    +0.000 A 
ATOM      6  C   UNL     1       2.177   8.176  18.653  0.00  0.00    +0.000 A 
ATOM      7  C   UNL     1       1.437   9.358  18.719  0.00  0.00    +0.000 A 
BRANCH   2   9
ATOM      8  O   UNL     1       0.440  11.889  20.787  0.00  0.00    +0.000 OA
ATOM      9  C   UNL     1       0.064  11.029  19.993  0.00  0.00    +0.000 C 
BRANCH   9  10
ATOM     10  C   UNL     1      -1.020  11.237  19.052  0.00  0.00    +0.000 A 
ATOM     11  N   UNL     1      -2.241  11.588  19.411  0.00  0.00    +0.000 NA
ATOM     12  C   UNL     1      -2.997  11.498  18.276  0.00  0.00    +0.000 A 
ATOM     13  C   UNL     1      -4.374  11.696  18.116  0.00  0.00    +0.000 A 
ATOM     14  C   UNL     1      -4.940  11.461  16.860  0.00  0.00    +0.000 A 
ATOM     15  C   UNL     1      -4.146  11.044  15.787  0.00  0.00    +0.000 A 
ATOM     16  C   UNL     1      -2.761  10.868  15.923  0.00  0.00    +0.000 A 
ATOM     17  C   UNL     1      -2.220  11.110  17.188  0.00  0.00    +0.000 A 
ATOM     18  N   UNL     1      -0.946  11.044  17.696  0.00  0.00    +0.000 N 
ATOM     19  H   UNL     1      -0.107  10.778  17.195  0.00  0.00    +0.000 HD
ENDBRANCH   9  10
ENDBRANCH   2   9
ENDBRANCH   1   5
BRANCH   1  20
ATOM     20  C   UNL     1       2.353   4.979  19.482  0.00  0.00    +0.000 A 
ATOM     21  N   UNL     1       1.490   4.459  20.396  0.00  0.00    +0.000 NA
ATOM     22  C   UNL     1       0.809   3.349  20.048  0.00  0.00    +0.000 A 
ATOM     23  C   UNL     1       0.957   2.712  18.830  0.00  0.00    +0.000 A 
ATOM     24  C   UNL     1       1.888   3.225  17.929  0.00  0.00    +0.000 A 
ATOM     25  C   UNL     1       2.629   4.367  18.263  0.00  0.00    +0.000 A 
BRANCH  25  26
ATOM     26  C   UNL     1       3.641   4.855  17.293  0.00  0.00    +0.000 C 
ATOM     27  O   UNL     1       3.830   6.061  17.168  0.00  0.00    +0.000 OA
ATOM     28  N   UNL     1       4.277   3.907  16.521  0.00  0.00    +0.000 N 
ATOM     29  H   UNL     1       4.013   2.934  16.612  0.00  0.00    +0.000 HD
BRANCH  28  30
ATOM     30  C   UNL     1       5.256   4.280  15.514  0.00  0.00    +0.000 C 
BRANCH  30  31
ATOM     31  C   UNL     1       6.688   4.020  15.986  0.00  0.00    +0.000 C 
BRANCH  31  32
ATOM     32  C   UNL     1       7.179   5.085  16.935  0.00  0.00    +0.000 A 
ATOM     33  C   UNL     1       7.633   4.741  18.215  0.00  0.00    +0.000 A 
ATOM     34  C   UNL     1       8.062   5.730  19.103  0.00  0.00    +0.000 A 
ATOM     35  C   UNL     1       8.039   7.070  18.721  0.00  0.00    +0.000 A 
ATOM     36  C   UNL     1       7.591   7.422  17.449  0.00  0.00    +0.000 A 
ATOM     37  C   UNL     1       7.161   6.435  16.560  0.00  0.00    +0.000 A 
ENDBRANCH  31  32
ENDBRANCH  30  31
ENDBRANCH  28  30
ENDBRANCH  25  26
ENDBRANCH   1  20
TORSDOF 8
ENDMDL
MODEL 4
REMARK VINA RESULT:      -9.4      2.586      3.815
REMARK  Name = 
REMARK  8 active torsions:
REMARK  status: ('A' for Active; 'I' for Inactive)
REMARK    1  A    between atoms: C_2  and  C_3
REMARK    2  A    between atoms: C_2  and  C_27
REMARK    3  A    between atoms: C_6  and  O_7
REMARK    4  A    between atoms: O_7  and  C_8
REMARK    5  A    between atoms: C_13  and  C_14
REMARK    6  A    between atoms: N_16  and  C_17
REMARK    7  A    between atoms: C_17  and  C_18
REMARK    8  A    between atoms: C_18  and  C_19
REMARK                            x       y       z     vdW  Elec       q    Type
REMARK                         _______ _______ _______ _____ _____    ______ ____
ROOT
ATOM      1  O   UNL     1       2.625   5.275  20.682  0.00  0.00    +0.000 OA
ENDROOT
BRANCH   1   5
ATOM      2  C   UNL     1       1.400   8.976  19.159  0.00  0.00    +0.000 A 
ATOM      3  C   UNL     1       2.131   8.076  18.380  0.00  0.00    +0.000 A 
ATOM      4  C   UNL     1       2.539   6.851  18.927  0.00  0.00    +0.000 A 
ATOM      5  C   UNL     1       2.215   6.519  20.247  0.00  0.00    +0.000 A 
ATOM      6  C   UNL     1       1.445   7.401  21.007  0.00  0.00    +0.000 A 
ATOM      7  C   UNL     1       1.054   8.631  20.474  0.00  0.00    +0.000 A 
BRANCH   2   9
ATOM      8  O   UNL     1       1.756  11.085  18.178  0.00  0.00    +0.000 OA
ATOM      9  C   UNL     1       0.928  10.267  18.575  0.00  0.00    +0.000 C 
BRANCH   9  10
ATOM     10  C   UNL     1      -0.502  10.449  18.423  0.00  0.00    +0.000 A 
ATOM     11  N   UNL     1      -1.199   9.953  17.417  0.00  0.00    +0.000 NA
ATOM     12  C   UNL     1      -2.448  10.495  17.533  0.00  0.00    +0.000 A 
ATOM     13  C   UNL     1      -3.553  10.352  16.685  0.00  0.00    +0.000 A 
ATOM     14  C   UNL     1      -4.711  11.080  16.971  0.00  0.00    +0.000 A 
ATOM     15  C   UNL     1      -4.765  11.926  18.083  0.00  0.00    +0.000 A 
ATOM     16  C   UNL     1      -3.677  12.060  18.957  0.00  0.00    +0.000 A 
ATOM     17  C   UNL     1      -2.532  11.320  18.650  0.00  0.00    +0.000 A 
ATOM     18  N   UNL     1      -1.303  11.196  19.250  0.00  0.00    +0.000 N 
ATOM     19  H   UNL     1      -0.988  11.665  20.089  0.00  0.00    +0.000 HD
ENDBRANCH   9  10
ENDBRANCH   2   9
ENDBRANCH   1   5
BRANCH   1  20
ATOM     20  C   UNL     1       2.233   4.156  19.959  0.00  0.00    +0.000 A 
ATOM     21  N   UNL     1       0.900   3.908  19.849  0.00  0.00    +0.000 NA
ATOM     22  C   UNL     1       0.520   2.869  19.079  0.00  0.00    +0.000 A 
ATOM     23  C   UNL     1       1.411   2.042  18.419  0.00  0.00    +0.000 A 
ATOM     24  C   UNL     1       2.774   2.275  18.589  0.00  0.00    +0.000 A 
ATOM     25  C   UNL     1       3.207   3.335  19.397  0.00  0.00    +0.000 A 
BRANCH  25  26
ATOM     26  C   UNL     1       4.667   3.521  19.587  0.00  0.00    +0.000 C 
ATOM     27  O   UNL     1       5.343   2.601  20.036  0.00  0.00    +0.000 OA
ATOM     28  N   UNL     1       5.182   4.768  19.305  0.00  0.00    +0.000 N 
ATOM     29  H   UNL     1       4.556   5.512  19.020  0.00  0.00    +0.000 HD
BRANCH  28  30
ATOM     30  C   UNL     1       6.592   5.068  19.494  0.00  0.00    +0.000 C 
BRANCH  30  31
ATOM     31  C   UNL     1       7.121   6.021  18.421  0.00  0.00    +0.000 C 
BRANCH  31  32
ATOM     32  C   UNL     1       6.627   5.660  17.042  0.00  0.00    +0.000 A 
ATOM     33  C   UNL     1       5.616   6.412  16.429  0.00  0.00    +0.000 A 
ATOM     34  C   UNL     1       5.140   6.060  15.164  0.00  0.00    +0.000 A 
ATOM     35  C   UNL     1       5.669   4.954  14.502  0.00  0.00    +0.000 A 
ATOM     36  C   UNL     1       6.676   4.200  15.102  0.00  0.00    +0.000 A 
ATOM     37  C   UNL     1       7.153   4.550  16.367  0.00  0.00    +0.000 A 
ENDBRANCH  31  32
ENDBRANCH  30  31
ENDBRANCH  28  30
ENDBRANCH  25  26
ENDBRANCH   1  20
TORSDOF 8
ENDMDL
MODEL 5
REMARK VINA RESULT:      -9.3      0.444      1.022
REMARK  Name = 
REMARK  8 active torsions:
REMARK  status: ('A' for Active; 'I' for Inactive)
REMARK    1  A    between atoms: C_2  and  C_3
REMARK    2  A    between atoms: C_2  and  C_27
REMARK    3  A    between atoms: C_6  and  O_7
REMARK    4  A    between atoms: O_7  and  C_8
REMARK    5  A    between atoms: C_13  and  C_14
REMARK    6  A    between atoms: N_16  and  C_17
REMARK    7  A    between atoms: C_17  and  C_18
REMARK    8  A    between atoms: C_18  and  C_19
REMARK                            x       y       z     vdW  Elec       q    Type
REMARK                         _______ _______ _______ _____ _____    ______ ____
ROOT
ATOM      1  O   UNL     1       3.274   6.015  19.312  0.00  0.00    +0.000 OA
ENDROOT
BRANCH   1   5
ATOM      2  C   UNL     1       0.956   9.489  19.023  0.00  0.00    +0.000 A 
ATOM      3  C   UNL     1       1.575   8.933  17.901  0.00  0.00    +0.000 A 
ATOM      4  C   UNL     1       2.357   7.778  18.037  0.00  0.00    +0.000 A 
ATOM      5  C   UNL     1       2.520   7.171  19.287  0.00  0.00    +0.000 A 
ATOM      6  C   UNL     1       1.862   7.703  20.398  0.00  0.00    +0.000 A 
ATOM      7  C   UNL     1       1.099   8.865  20.272  0.00  0.00    +0.000 A 
BRANCH   2   9
ATOM      8  O   UNL     1      -1.125  10.587  19.027  0.00  0.00    +0.000 OA
ATOM      9  C   UNL     1       0.091  10.698  18.884  0.00  0.00    +0.000 C 
BRANCH   9  10
ATOM     10  C   UNL     1       0.751  11.972  18.674  0.00  0.00    +0.000 A 
ATOM     11  N   UNL     1       2.044  12.094  18.439  0.00  0.00    +0.000 NA
ATOM     12  C   UNL     1       2.301  13.435  18.487  0.00  0.00    +0.000 A 
ATOM     13  C   UNL     1       3.527  14.103  18.372  0.00  0.00    +0.000 A 
ATOM     14  C   UNL     1       3.548  15.490  18.541  0.00  0.00    +0.000 A 
ATOM     15  C   UNL     1       2.371  16.193  18.813  0.00  0.00    +0.000 A 
ATOM     16  C   UNL     1       1.132  15.544  18.904  0.00  0.00    +0.000 A 
ATOM     17  C   UNL     1       1.137  14.158  18.729  0.00  0.00    +0.000 A 
ATOM     18  N   UNL     1       0.150  13.203  18.749  0.00  0.00    +0.000 N 
ATOM     19  H   UNL     1      -0.837  13.354  18.914  0.00  0.00    +0.000 HD
ENDBRANCH   9  10
ENDBRANCH   2   9
ENDBRANCH   1   5
BRANCH   1  20
ATOM     20  C   UNL     1       2.683   4.846  19.774  0.00  0.00    +0.000 A 
ATOM     21  N   UNL     1       2.334   4.790  21.088  0.00  0.00    +0.000 NA
ATOM     22  C   UNL     1       1.687   3.686  21.514  0.00  0.00    +0.000 A 
ATOM     23  C   UNL     1       1.382   2.616  20.694  0.00  0.00    +0.000 A 
ATOM     24  C   UNL     1       1.798   2.666  19.365  0.00  0.00    +0.000 A 
ATOM     25  C   UNL     1       2.489   3.789  18.890  0.00  0.00    +0.000 A 
BRANCH  25  26
ATOM     26  C   UNL     1       2.953   3.783  17.480  0.00  0.00    +0.000 C 
ATOM     27  O   UNL     1       2.216   3.346  16.602  0.00  0.00    +0.000 OA
ATOM     28  N   UNL     1       4.239   4.214  17.241  0.00  0.00    +0.000 N 
ATOM     29  H   UNL     1       4.828   4.480  18.022  0.00  0.00    +0.000 HD
BRANCH  28  30
ATOM     30  C   UNL     1       4.805   4.211  15.902  0.00  0.00    +0.000 C 
BRANCH  30  31
ATOM     31  C   UNL     1       6.334   4.158  15.929  0.00  0.00    +0.000 C 
BRANCH  31  32
ATOM     32  C   UNL     1       6.924   5.146  16.905  0.00  0.00    +0.000 A 
ATOM     33  C   UNL     1       6.940   6.515  16.607  0.00  0.00    +0.000 A 
ATOM     34  C   UNL     1       7.510   7.426  17.498  0.00  0.00    +0.000 A 
ATOM     35  C   UNL     1       8.071   6.978  18.692  0.00  0.00    +0.000 A 
ATOM     36  C   UNL     1       8.059   5.618  18.998  0.00  0.00    +0.000 A 
ATOM     37  C   UNL     1       7.490   4.705  18.109  0.00  0.00    +0.000 A 
ENDBRANCH  31  32
ENDBRANCH  30  31
ENDBRANCH  28  30
ENDBRANCH  25  26
ENDBRANCH   1  20
TORSDOF 8
ENDMDL
MODEL 6
REMARK VINA RESULT:      -9.3      2.609      4.226
REMARK  Name = 
REMARK  8 active torsions:
REMARK  status: ('A' for Active; 'I' for Inactive)
REMARK    1  A    between atoms: C_2  and  C_3
REMARK    2  A    between atoms: C_2  and  C_27
REMARK    3  A    between atoms: C_6  and  O_7
REMARK    4  A    between atoms: O_7  and  C_8
REMARK    5  A    between atoms: C_13  and  C_14
REMARK    6  A    between atoms: N_16  and  C_17
REMARK    7  A    between atoms: C_17  and  C_18
REMARK    8  A    between atoms: C_18  and  C_19
REMARK                            x       y       z     vdW  Elec       q    Type
REMARK                         _______ _______ _______ _____ _____    ______ ____
ROOT
ATOM      1  O   UNL     1       2.921   5.492  20.185  0.00  0.00    +0.000 OA
ENDROOT
BRANCH   1   5
ATOM      2  C   UNL     1       1.305   9.192  19.080  0.00  0.00    +0.000 A 
ATOM      3  C   UNL     1       1.165   8.697  20.378  0.00  0.00    +0.000 A 
ATOM      4  C   UNL     1       1.705   7.447  20.711  0.00  0.00    +0.000 A 
ATOM      5  C   UNL     1       2.390   6.690  19.753  0.00  0.00    +0.000 A 
ATOM      6  C   UNL     1       2.567   7.209  18.468  0.00  0.00    +0.000 A 
ATOM      7  C   UNL     1       2.013   8.444  18.128  0.00  0.00    +0.000 A 
BRANCH   2   9
ATOM      8  O   UNL     1       1.548  11.464  18.519  0.00  0.00    +0.000 OA
ATOM      9  C   UNL     1       0.766  10.539  18.726  0.00  0.00    +0.000 C 
BRANCH   9  10
ATOM     10  C   UNL     1      -0.669  10.660  18.554  0.00  0.00    +0.000 A 
ATOM     11  N   UNL     1      -1.324  10.171  17.518  0.00  0.00    +0.000 NA
ATOM     12  C   UNL     1      -2.599  10.650  17.630  0.00  0.00    +0.000 A 
ATOM     13  C   UNL     1      -3.682  10.487  16.757  0.00  0.00    +0.000 A 
ATOM     14  C   UNL     1      -4.877  11.151  17.048  0.00  0.00    +0.000 A 
ATOM     15  C   UNL     1      -4.989  11.952  18.188  0.00  0.00    +0.000 A 
ATOM     16  C   UNL     1      -3.924  12.103  19.087  0.00  0.00    +0.000 A 
ATOM     17  C   UNL     1      -2.740  11.428  18.775  0.00  0.00    +0.000 A 
ATOM     18  N   UNL     1      -1.517  11.338  19.392  0.00  0.00    +0.000 N 
ATOM     19  H   UNL     1      -1.238  11.790  20.253  0.00  0.00    +0.000 HD
ENDBRANCH   9  10
ENDBRANCH   2   9
ENDBRANCH   1   5
BRANCH   1  20
ATOM     20  C   UNL     1       2.605   4.334  19.485  0.00  0.00    +0.000 A 
ATOM     21  N   UNL     1       1.418   3.732  19.763  0.00  0.00    +0.000 NA
ATOM     22  C   UNL     1       1.078   2.655  19.025  0.00  0.00    +0.000 A 
ATOM     23  C   UNL     1       1.877   2.132  18.025  0.00  0.00    +0.000 A 
ATOM     24  C   UNL     1       3.116   2.727  17.794  0.00  0.00    +0.000 A 
ATOM     25  C   UNL     1       3.512   3.837  18.554  0.00  0.00    +0.000 A 
BRANCH  25  26
ATOM     26  C   UNL     1       4.856   4.413  18.305  0.00  0.00    +0.000 C 
ATOM     27  O   UNL     1       5.744   4.263  19.139  0.00  0.00    +0.000 OA
ATOM     28  N   UNL     1       5.016   5.160  17.158  0.00  0.00    +0.000 N 
ATOM     29  H   UNL     1       4.219   5.319  16.554  0.00  0.00    +0.000 HD
BRANCH  28  30
ATOM     30  C   UNL     1       6.281   5.801  16.839  0.00  0.00    +0.000 C 
BRANCH  30  31
ATOM     31  C   UNL     1       7.283   4.817  16.235  0.00  0.00    +0.000 C 
BRANCH  31  32
ATOM     32  C   UNL     1       7.075   4.627  14.753  0.00  0.00    +0.000 A 
ATOM     33  C   UNL     1       6.095   3.744  14.280  0.00  0.00    +0.000 A 
ATOM     34  C   UNL     1       5.922   3.548  12.909  0.00  0.00    +0.000 A 
ATOM     35  C   UNL     1       6.726   4.230  11.998  0.00  0.00    +0.000 A 
ATOM     36  C   UNL     1       7.703   5.110  12.458  0.00  0.00    +0.000 A 
ATOM     37  C   UNL     1       7.879   5.308  13.829  0.00  0.00    +0.000 A 
ENDBRANCH  31  32
ENDBRANCH  30  31
ENDBRANCH  28  30
ENDBRANCH  25  26
ENDBRANCH   1  20
TORSDOF 8
ENDMDL
MODEL 7
REMARK VINA RESULT:      -9.3      2.686      5.214
REMARK  Name = 
REMARK  8 active torsions:
REMARK  status: ('A' for Active; 'I' for Inactive)
REMARK    1  A    between atoms: C_2  and  C_3
REMARK    2  A    between atoms: C_2  and  C_27
REMARK    3  A    between atoms: C_6  and  O_7
REMARK    4  A    between atoms: O_7  and  C_8
REMARK    5  A    between atoms: C_13  and  C_14
REMARK    6  A    between atoms: N_16  and  C_17
REMARK    7  A    between atoms: C_17  and  C_18
REMARK    8  A    between atoms: C_18  and  C_19
REMARK                            x       y       z     vdW  Elec       q    Type
REMARK                         _______ _______ _______ _____ _____    ______ ____
ROOT
ATOM      1  O   UNL     1       3.715   6.216  17.644  0.00  0.00    +0.000 OA
ENDROOT
BRANCH   1   5
ATOM      2  C   UNL     1       1.368   9.296  19.236  0.00  0.00    +0.000 A 
ATOM      3  C   UNL     1       1.852   9.353  17.927  0.00  0.00    +0.000 A 
ATOM      4  C   UNL     1       2.648   8.312  17.430  0.00  0.00    +0.000 A 
ATOM      5  C   UNL     1       2.960   7.209  18.234  0.00  0.00    +0.000 A 
ATOM      6  C   UNL     1       2.437   7.134  19.527  0.00  0.00    +0.000 A 
ATOM      7  C   UNL     1       1.660   8.178  20.032  0.00  0.00    +0.000 A 
BRANCH   2   9
ATOM      8  O   UNL     1       0.805  10.963  20.798  0.00  0.00    +0.000 OA
ATOM      9  C   UNL     1       0.489  10.382  19.761  0.00  0.00    +0.000 C 
BRANCH   9  10
ATOM     10  C   UNL     1      -0.660  10.758  18.960  0.00  0.00    +0.000 A 
ATOM     11  N   UNL     1      -1.780  11.236  19.469  0.00  0.00    +0.000 NA
ATOM     12  C   UNL     1      -2.665  11.284  18.428  0.00  0.00    +0.000 A 
ATOM     13  C   UNL     1      -4.016  11.652  18.437  0.00  0.00    +0.000 A 
ATOM     14  C   UNL     1      -4.744  11.540  17.249  0.00  0.00    +0.000 A 
ATOM     15  C   UNL     1      -4.134  11.077  16.080  0.00  0.00    +0.000 A 
ATOM     16  C   UNL     1      -2.775  10.731  16.047  0.00  0.00    +0.000 A 
ATOM     17  C   UNL     1      -2.069  10.854  17.247  0.00  0.00    +0.000 A 
ATOM     18  N   UNL     1      -0.764  10.614  17.600  0.00  0.00    +0.000 N 
ATOM     19  H   UNL     1      -0.026  10.272  16.997  0.00  0.00    +0.000 HD
ENDBRANCH   9  10
ENDBRANCH   2   9
ENDBRANCH   1   5
BRANCH   1  20
ATOM     20  C   UNL     1       5.099   6.302  17.719  0.00  0.00    +0.000 A 
ATOM     21  N   UNL     1       5.681   7.477  17.360  0.00  0.00    +0.000 NA
ATOM     22  C   UNL     1       7.017   7.584  17.512  0.00  0.00    +0.000 A 
ATOM     23  C   UNL     1       7.814   6.562  17.992  0.00  0.00    +0.000 A 
ATOM     24  C   UNL     1       7.209   5.345  18.300  0.00  0.00    +0.000 A 
ATOM     25  C   UNL     1       5.825   5.191  18.138  0.00  0.00    +0.000 A 
BRANCH  25  26
ATOM     26  C   UNL     1       5.228   3.865  18.437  0.00  0.00    +0.000 C 
ATOM     27  O   UNL     1       5.386   3.364  19.546  0.00  0.00    +0.000 OA
ATOM     28  N   UNL     1       4.571   3.227  17.407  0.00  0.00    +0.000 N 
ATOM     29  H   UNL     1       4.550   3.656  16.490  0.00  0.00    +0.000 HD
BRANCH  28  30
ATOM     30  C   UNL     1       3.984   1.909  17.582  0.00  0.00    +0.000 C 
BRANCH  30  31
ATOM     31  C   UNL     1       2.463   1.977  17.726  0.00  0.00    +0.000 C 
BRANCH  31  32
ATOM     32  C   UNL     1       2.040   2.573  19.045  0.00  0.00    +0.000 A 
ATOM     33  C   UNL     1       2.403   1.960  20.252  0.00  0.00    +0.000 A 
ATOM     34  C   UNL     1       1.988   2.498  21.471  0.00  0.00    +0.000 A 
ATOM     35  C   UNL     1       1.205   3.651  21.497  0.00  0.00    +0.000 A 
ATOM     36  C   UNL     1       0.839   4.268  20.302  0.00  0.00    +0.000 A 
ATOM     37  C   UNL     1       1.253   3.732  19.081  0.00  0.00    +0.000 A 
ENDBRANCH  31  32
ENDBRANCH  30  31
ENDBRANCH  28  30
ENDBRANCH  25  26
ENDBRANCH   1  20
TORSDOF 8
ENDMDL
MODEL 8
REMARK VINA RESULT:      -9.2      2.452      3.799
REMARK  Name = 
REMARK  8 active torsions:
REMARK  status: ('A' for Active; 'I' for Inactive)
REMARK    1  A    between atoms: C_2  and  C_3
REMARK    2  A    between atoms: C_2  and  C_27
REMARK    3  A    between atoms: C_6  and  O_7
REMARK    4  A    between atoms: O_7  and  C_8
REMARK    5  A    between atoms: C_13  and  C_14
REMARK    6  A    between atoms: N_16  and  C_17
REMARK    7  A    between atoms: C_17  and  C_18
REMARK    8  A    between atoms: C_18  and  C_19
REMARK                            x       y       z     vdW  Elec       q    Type
REMARK                         _______ _______ _______ _____ _____    ______ ____
ROOT
ATOM      1  O   UNL     1       3.027   6.169  18.708  0.00  0.00    +0.000 OA
ENDROOT
BRANCH   1   5
ATOM      2  C   UNL     1       1.182   9.868  19.369  0.00  0.00    +0.000 A 
ATOM      3  C   UNL     1       1.730   9.541  18.126  0.00  0.00    +0.000 A 
ATOM      4  C   UNL     1       2.354   8.299  17.944  0.00  0.00    +0.000 A 
ATOM      5  C   UNL     1       2.429   7.379  18.996  0.00  0.00    +0.000 A 
ATOM      6  C   UNL     1       1.841   7.692  20.223  0.00  0.00    +0.000 A 
ATOM      7  C   UNL     1       1.236   8.936  20.415  0.00  0.00    +0.000 A 
BRANCH   2   9
ATOM      8  O   UNL     1       1.024  12.053  20.228  0.00  0.00    +0.000 OA
ATOM      9  C   UNL     1       0.482  11.173  19.562  0.00  0.00    +0.000 C 
BRANCH   9  10
ATOM     10  C   UNL     1      -0.777  11.365  18.870  0.00  0.00    +0.000 A 
ATOM     11  N   UNL     1      -1.909  11.660  19.481  0.00  0.00    +0.000 NA
ATOM     12  C   UNL     1      -2.879  11.570  18.522  0.00  0.00    +0.000 A 
ATOM     13  C   UNL     1      -4.265  11.721  18.653  0.00  0.00    +0.000 A 
ATOM     14  C   UNL     1      -5.069  11.497  17.532  0.00  0.00    +0.000 A 
ATOM     15  C   UNL     1      -4.499  11.137  16.307  0.00  0.00    +0.000 A 
ATOM     16  C   UNL     1      -3.111  11.009  16.152  0.00  0.00    +0.000 A 
ATOM     17  C   UNL     1      -2.330  11.240  17.287  0.00  0.00    +0.000 A 
ATOM     18  N   UNL     1      -0.977  11.208  17.521  0.00  0.00    +0.000 N 
ATOM     19  H   UNL     1      -0.251  10.987  16.852  0.00  0.00    +0.000 HD
ENDBRANCH   9  10
ENDBRANCH   2   9
ENDBRANCH   1   5
BRANCH   1  20
ATOM     20  C   UNL     1       2.554   5.028  19.343  0.00  0.00    +0.000 A 
ATOM     21  N   UNL     1       1.229   4.974  19.643  0.00  0.00    +0.000 NA
ATOM     22  C   UNL     1       0.758   3.832  20.184  0.00  0.00    +0.000 A 
ATOM     23  C   UNL     1       1.552   2.735  20.462  0.00  0.00    +0.000 A 
ATOM     24  C   UNL     1       2.918   2.829  20.202  0.00  0.00    +0.000 A 
ATOM     25  C   UNL     1       3.447   4.007  19.656  0.00  0.00    +0.000 A 
BRANCH  25  26
ATOM     26  C   UNL     1       4.913   4.081  19.435  0.00  0.00    +0.000 C 
ATOM     27  O   UNL     1       5.547   3.052  19.225  0.00  0.00    +0.000 OA
ATOM     28  N   UNL     1       5.502   5.322  19.549  0.00  0.00    +0.000 N 
ATOM     29  H   UNL     1       4.935   6.119  19.810  0.00  0.00    +0.000 HD
BRANCH  28  30
ATOM     30  C   UNL     1       6.935   5.499  19.390  0.00  0.00    +0.000 C 
BRANCH  30  31
ATOM     31  C   UNL     1       7.274   6.328  18.150  0.00  0.00    +0.000 C 
BRANCH  31  32
ATOM     32  C   UNL     1       6.666   5.754  16.895  0.00  0.00    +0.000 A 
ATOM     33  C   UNL     1       7.138   4.547  16.364  0.00  0.00    +0.000 A 
ATOM     34  C   UNL     1       6.592   4.030  15.187  0.00  0.00    +0.000 A 
ATOM     35  C   UNL     1       5.573   4.715  14.530  0.00  0.00    +0.000 A 
ATOM     36  C   UNL     1       5.096   5.917  15.050  0.00  0.00    +0.000 A 
ATOM     37  C   UNL     1       5.640   6.436  16.226  0.00  0.00    +0.000 A 
ENDBRANCH  31  32
ENDBRANCH  30  31
ENDBRANCH  28  30
ENDBRANCH  25  26
ENDBRANCH   1  20
TORSDOF 8
ENDMDL
MODEL 9
REMARK VINA RESULT:      -9.2      1.113      1.423
REMARK  Name = 
REMARK  8 active torsions:
REMARK  status: ('A' for Active; 'I' for Inactive)
REMARK    1  A    between atoms: C_2  and  C_3
REMARK    2  A    between atoms: C_2  and  C_27
REMARK    3  A    between atoms: C_6  and  O_7
REMARK    4  A    between atoms: O_7  and  C_8
REMARK    5  A    between atoms: C_13  and  C_14
REMARK    6  A    between atoms: N_16  and  C_17
REMARK    7  A    between atoms: C_17  and  C_18
REMARK    8  A    between atoms: C_18  and  C_19
REMARK                            x       y       z     vdW  Elec       q    Type
REMARK                         _______ _______ _______ _____ _____    ______ ____
ROOT
ATOM      1  O   UNL     1       2.979   5.440  20.025  0.00  0.00    +0.000 OA
ENDROOT
BRANCH   1   5
ATOM      2  C   UNL     1       1.410   9.158  18.914  0.00  0.00    +0.000 A 
ATOM      3  C   UNL     1       2.081   8.349  17.994  0.00  0.00    +0.000 A 
ATOM      4  C   UNL     1       2.608   7.116  18.404  0.00  0.00    +0.000 A 
ATOM      5  C   UNL     1       2.463   6.685  19.728  0.00  0.00    +0.000 A 
ATOM      6  C   UNL     1       1.752   7.476  20.632  0.00  0.00    +0.000 A 
ATOM      7  C   UNL     1       1.243   8.713  20.233  0.00  0.00    +0.000 A 
BRANCH   2   9
ATOM      8  O   UNL     1      -0.327  10.469  18.018  0.00  0.00    +0.000 OA
ATOM      9  C   UNL     1       0.813  10.456  18.479  0.00  0.00    +0.000 C 
BRANCH   9  10
ATOM     10  C   UNL     1       1.588  11.659  18.711  0.00  0.00    +0.000 A 
ATOM     11  N   UNL     1       1.634  12.286  19.872  0.00  0.00    +0.000 NA
ATOM     12  C   UNL     1       2.303  13.453  19.633  0.00  0.00    +0.000 A 
ATOM     13  C   UNL     1       2.569  14.512  20.509  0.00  0.00    +0.000 A 
ATOM     14  C   UNL     1       3.205  15.650  20.006  0.00  0.00    +0.000 A 
ATOM     15  C   UNL     1       3.571  15.725  18.659  0.00  0.00    +0.000 A 
ATOM     16  C   UNL     1       3.338  14.663  17.774  0.00  0.00    +0.000 A 
ATOM     17  C   UNL     1       2.703  13.536  18.302  0.00  0.00    +0.000 A 
ATOM     18  N   UNL     1       2.314  12.334  17.762  0.00  0.00    +0.000 N 
ATOM     19  H   UNL     1       2.427  12.037  16.802  0.00  0.00    +0.000 HD
ENDBRANCH   9  10
ENDBRANCH   2   9
ENDBRANCH   1   5
BRANCH   1  20
ATOM     20  C   UNL     1       2.258   4.314  19.648  0.00  0.00    +0.000 A 
ATOM     21  N   UNL     1       1.025   4.142  20.194  0.00  0.00    +0.000 NA
ATOM     22  C   UNL     1       0.294   3.092  19.766  0.00  0.00    +0.000 A 
ATOM     23  C   UNL     1       0.741   2.185  18.823  0.00  0.00    +0.000 A 
ATOM     24  C   UNL     1       2.030   2.345  18.317  0.00  0.00    +0.000 A 
ATOM     25  C   UNL     1       2.826   3.413  18.753  0.00  0.00    +0.000 A 
BRANCH  25  26
ATOM     26  C   UNL     1       4.208   3.521  18.221  0.00  0.00    +0.000 C 
ATOM     27  O   UNL     1       5.162   3.381  18.980  0.00  0.00    +0.000 OA
ATOM     28  N   UNL     1       4.343   3.846  16.889  0.00  0.00    +0.000 N 
ATOM     29  H   UNL     1       3.516   4.034  16.337  0.00  0.00    +0.000 HD
BRANCH  28  30
ATOM     30  C   UNL     1       5.651   4.015  16.278  0.00  0.00    +0.000 C 
BRANCH  30  31
ATOM     31  C   UNL     1       5.926   5.475  15.914  0.00  0.00    +0.000 C 
BRANCH  31  32
ATOM     32  C   UNL     1       6.797   6.165  16.934  0.00  0.00    +0.000 A 
ATOM     33  C   UNL     1       7.323   5.450  18.019  0.00  0.00    +0.000 A 
ATOM     34  C   UNL     1       8.106   6.096  18.978  0.00  0.00    +0.000 A 
ATOM     35  C   UNL     1       8.369   7.459  18.864  0.00  0.00    +0.000 A 
ATOM     36  C   UNL     1       7.851   8.179  17.789  0.00  0.00    +0.000 A 
ATOM     37  C   UNL     1       7.067   7.536  16.828  0.00  0.00    +0.000 A 
ENDBRANCH  31  32
ENDBRANCH  30  31
ENDBRANCH  28  30
ENDBRANCH  25  26
ENDBRANCH   1  20
TORSDOF 8
ENDMDL
