MODEL 1
REMARK VINA RESULT:      -8.2      0.000      0.000
REMARK  Name = 
REMARK  5 active torsions:
REMARK  status: ('A' for Active; 'I' for Inactive)
REMARK    1  A    between atoms: C_1  and  C_2
REMARK    2  A    between atoms: C_2  and  C_3
REMARK    3  A    between atoms: C_2  and  C_4
REMARK    4  A    between atoms: C_7  and  C_8
REMARK    5  A    between atoms: C_8  and  N_9
REMARK                            x       y       z     vdW  Elec       q    Type
REMARK                         _______ _______ _______ _____ _____    ______ ____
ROOT
ATOM      1  N   UNL     1       4.700   4.916  15.891  0.00  0.00    +0.000 NA
ATOM      2  C   UNL     1       5.566   4.588  14.750  0.00  0.00    +0.000 C 
ATOM      3  C   UNL     1       7.086   4.601  15.055  0.00  0.00    +0.000 C 
ATOM      4  O   UNL     1       7.458   4.822  16.425  0.00  0.00    +0.000 OA
ATOM      5  C   UNL     1       6.732   5.846  17.140  0.00  0.00    +0.000 C 
ATOM      6  C   UNL     1       7.622   7.106  17.258  0.00  0.00    +0.000 C 
ATOM      7  C   UNL     1       8.101   7.184  18.715  0.00  0.00    +0.000 C 
ATOM      8  C   UNL     1       7.880   5.800  19.286  0.00  0.00    +0.000 C 
ATOM      9  C   UNL     1       6.603   5.360  18.605  0.00  0.00    +0.000 C 
ATOM     10  C   UNL     1       5.329   6.112  16.519  0.00  0.00    +0.000 C 
ENDROOT
BRANCH   1  11
ATOM     11  C   UNL     1       4.626   3.787  16.852  0.00  0.00    +0.000 C 
BRANCH  11  15
ATOM     12  C   UNL     1       1.927   3.579  19.125  0.00  0.00    +0.000 A 
ATOM     13  N   UNL     1       1.256   3.153  18.078  0.00  0.00    +0.000 NA
ATOM     14  N   UNL     1       2.158   3.088  17.026  0.00  0.00    +0.000 NA
ATOM     15  C   UNL     1       3.323   3.464  17.509  0.00  0.00    +0.000 A 
ATOM     16  O   UNL     1       3.256   3.775  18.853  0.00  0.00    +0.000 OA
BRANCH  12  18
ATOM     17  C   UNL     1       2.034   3.022  21.565  0.00  0.00    +0.000 C 
ATOM     18  C   UNL     1       1.433   3.926  20.491  0.00  0.00    +0.000 C 
ATOM     19  C   UNL     1       1.694   5.398  20.833  0.00  0.00    +0.000 C 
ENDBRANCH  12  18
ENDBRANCH  11  15
ENDBRANCH   1  11
TORSDOF 3
ENDMDL
MODEL 2
REMARK VINA RESULT:      -7.8      2.561      6.266
REMARK  Name = 
REMARK  5 active torsions:
REMARK  status: ('A' for Active; 'I' for Inactive)
REMARK    1  A    between atoms: C_1  and  C_2
REMARK    2  A    between atoms: C_2  and  C_3
REMARK    3  A    between atoms: C_2  and  C_4
REMARK    4  A    between atoms: C_7  and  C_8
REMARK    5  A    between atoms: C_8  and  N_9
REMARK                            x       y       z     vdW  Elec       q    Type
REMARK                         _______ _______ _______ _____ _____    ______ ____
ROOT
ATOM      1  N   UNL     1       6.332   5.982  16.790  0.00  0.00    +0.000 NA
ATOM      2  C   UNL     1       6.839   6.079  18.166  0.00  0.00    +0.000 C 
ATOM      3  C   UNL     1       6.044   5.262  19.218  0.00  0.00    +0.000 C 
ATOM      4  O   UNL     1       4.987   4.432  18.711  0.00  0.00    +0.000 OA
ATOM      5  C   UNL     1       4.143   5.004  17.687  0.00  0.00    +0.000 C 
ATOM      6  C   UNL     1       2.790   5.413  18.319  0.00  0.00    +0.000 C 
ATOM      7  C   UNL     1       1.747   4.388  17.850  0.00  0.00    +0.000 C 
ATOM      8  C   UNL     1       2.544   3.199  17.358  0.00  0.00    +0.000 C 
ATOM      9  C   UNL     1       3.758   3.849  16.731  0.00  0.00    +0.000 C 
ATOM     10  C   UNL     1       4.857   6.151  16.912  0.00  0.00    +0.000 C 
ENDROOT
BRANCH   1  11
ATOM     11  C   UNL     1       6.671   4.669  16.185  0.00  0.00    +0.000 C 
BRANCH  11  15
ATOM     12  C   UNL     1       6.645   3.972  12.719  0.00  0.00    +0.000 A 
ATOM     13  N   UNL     1       7.532   4.939  12.657  0.00  0.00    +0.000 NA
ATOM     14  N   UNL     1       7.764   5.353  13.960  0.00  0.00    +0.000 NA
ATOM     15  C   UNL     1       7.012   4.596  14.731  0.00  0.00    +0.000 A 
ATOM     16  O   UNL     1       6.282   3.675  14.007  0.00  0.00    +0.000 OA
BRANCH  12  18
ATOM     17  C   UNL     1       6.442   1.791  11.503  0.00  0.00    +0.000 C 
ATOM     18  C   UNL     1       5.962   3.237  11.613  0.00  0.00    +0.000 C 
ATOM     19  C   UNL     1       4.436   3.279  11.759  0.00  0.00    +0.000 C 
ENDBRANCH  12  18
ENDBRANCH  11  15
ENDBRANCH   1  11
TORSDOF 3
ENDMDL
MODEL 3
REMARK VINA RESULT:      -7.8      2.721      6.180
REMARK  Name = 
REMARK  5 active torsions:
REMARK  status: ('A' for Active; 'I' for Inactive)
REMARK    1  A    between atoms: C_1  and  C_2
REMARK    2  A    between atoms: C_2  and  C_3
REMARK    3  A    between atoms: C_2  and  C_4
REMARK    4  A    between atoms: C_7  and  C_8
REMARK    5  A    between atoms: C_8  and  N_9
REMARK                            x       y       z     vdW  Elec       q    Type
REMARK                         _______ _______ _______ _____ _____    ______ ____
ROOT
ATOM      1  N   UNL     1       6.721   6.241  16.442  0.00  0.00    +0.000 NA
ATOM      2  C   UNL     1       7.282   6.502  17.775  0.00  0.00    +0.000 C 
ATOM      3  C   UNL     1       6.537   5.812  18.947  0.00  0.00    +0.000 C 
ATOM      4  O   UNL     1       5.466   4.926  18.586  0.00  0.00    +0.000 OA
ATOM      5  C   UNL     1       4.578   5.371  17.538  0.00  0.00    +0.000 C 
ATOM      6  C   UNL     1       3.248   5.847  18.171  0.00  0.00    +0.000 C 
ATOM      7  C   UNL     1       2.195   4.771  17.870  0.00  0.00    +0.000 C 
ATOM      8  C   UNL     1       2.979   3.535  17.490  0.00  0.00    +0.000 C 
ATOM      9  C   UNL     1       4.162   4.110  16.740  0.00  0.00    +0.000 C 
ATOM     10  C   UNL     1       5.251   6.420  16.603  0.00  0.00    +0.000 C 
ENDROOT
BRANCH   1  11
ATOM     11  C   UNL     1       7.044   4.867  15.982  0.00  0.00    +0.000 C 
BRANCH  11  15
ATOM     12  C   UNL     1       6.260   3.576  12.786  0.00  0.00    +0.000 A 
ATOM     13  N   UNL     1       7.012   4.564  12.353  0.00  0.00    +0.000 NA
ATOM     14  N   UNL     1       7.507   5.210  13.476  0.00  0.00    +0.000 NA
ATOM     15  C   UNL     1       7.035   4.560  14.519  0.00  0.00    +0.000 A 
ATOM     16  O   UNL     1       6.245   3.489  14.154  0.00  0.00    +0.000 OA
BRANCH  12  18
ATOM     17  C   UNL     1       4.347   3.350  11.184  0.00  0.00    +0.000 C 
ATOM     18  C   UNL     1       5.406   2.625  12.014  0.00  0.00    +0.000 C 
ATOM     19  C   UNL     1       6.244   1.708  11.116  0.00  0.00    +0.000 C 
ENDBRANCH  12  18
ENDBRANCH  11  15
ENDBRANCH   1  11
TORSDOF 3
ENDMDL
MODEL 4
REMARK VINA RESULT:      -7.8      1.896      3.358
REMARK  Name = 
REMARK  5 active torsions:
REMARK  status: ('A' for Active; 'I' for Inactive)
REMARK    1  A    between atoms: C_1  and  C_2
REMARK    2  A    between atoms: C_2  and  C_3
REMARK    3  A    between atoms: C_2  and  C_4
REMARK    4  A    between atoms: C_7  and  C_8
REMARK    5  A    between atoms: C_8  and  N_9
REMARK                            x       y       z     vdW  Elec       q    Type
REMARK                         _______ _______ _______ _____ _____    ______ ____
ROOT
ATOM      1  N   UNL     1       7.130   5.166  18.819  0.00  0.00    +0.000 NA
ATOM      2  C   UNL     1       7.774   6.481  18.686  0.00  0.00    +0.000 C 
ATOM      3  C   UNL     1       7.521   7.202  17.337  0.00  0.00    +0.000 C 
ATOM      4  O   UNL     1       6.611   6.556  16.432  0.00  0.00    +0.000 OA
ATOM      5  C   UNL     1       6.739   5.125  16.290  0.00  0.00    +0.000 C 
ATOM      6  C   UNL     1       7.447   4.812  14.949  0.00  0.00    +0.000 C 
ATOM      7  C   UNL     1       6.375   4.271  13.991  0.00  0.00    +0.000 C 
ATOM      8  C   UNL     1       5.050   4.685  14.593  0.00  0.00    +0.000 C 
ATOM      9  C   UNL     1       5.310   4.568  16.079  0.00  0.00    +0.000 C 
ATOM     10  C   UNL     1       7.411   4.469  17.533  0.00  0.00    +0.000 C 
ENDROOT
BRANCH   1  11
ATOM     11  C   UNL     1       5.669   5.304  19.043  0.00  0.00    +0.000 C 
BRANCH  11  15
ATOM     12  C   UNL     1       3.056   3.093  19.926  0.00  0.00    +0.000 A 
ATOM     13  N   UNL     1       4.010   2.189  19.943  0.00  0.00    +0.000 NA
ATOM     14  N   UNL     1       5.196   2.856  19.673  0.00  0.00    +0.000 NA
ATOM     15  C   UNL     1       4.884   4.127  19.526  0.00  0.00    +0.000 A 
ATOM     16  O   UNL     1       3.534   4.356  19.695  0.00  0.00    +0.000 OA
BRANCH  12  18
ATOM     17  C   UNL     1       0.875   4.217  20.431  0.00  0.00    +0.000 C 
ATOM     18  C   UNL     1       1.578   2.915  20.053  0.00  0.00    +0.000 C 
ATOM     19  C   UNL     1       0.964   2.333  18.775  0.00  0.00    +0.000 C 
ENDBRANCH  12  18
ENDBRANCH  11  15
ENDBRANCH   1  11
TORSDOF 3
ENDMDL
MODEL 5
REMARK VINA RESULT:      -7.8      2.200      6.288
REMARK  Name = 
REMARK  5 active torsions:
REMARK  status: ('A' for Active; 'I' for Inactive)
REMARK    1  A    between atoms: C_1  and  C_2
REMARK    2  A    between atoms: C_2  and  C_3
REMARK    3  A    between atoms: C_2  and  C_4
REMARK    4  A    between atoms: C_7  and  C_8
REMARK    5  A    between atoms: C_8  and  N_9
REMARK                            x       y       z     vdW  Elec       q    Type
REMARK                         _______ _______ _______ _____ _____    ______ ____
ROOT
ATOM      1  N   UNL     1       4.617   5.934  18.264  0.00  0.00    +0.000 NA
ATOM      2  C   UNL     1       5.696   5.178  18.916  0.00  0.00    +0.000 C 
ATOM      3  C   UNL     1       5.294   3.771  19.428  0.00  0.00    +0.000 C 
ATOM      4  O   UNL     1       3.961   3.336  19.113  0.00  0.00    +0.000 OA
ATOM      5  C   UNL     1       2.906   4.312  19.260  0.00  0.00    +0.000 C 
ATOM      6  C   UNL     1       2.118   4.011  20.558  0.00  0.00    +0.000 C 
ATOM      7  C   UNL     1       0.770   3.408  20.136  0.00  0.00    +0.000 C 
ATOM      8  C   UNL     1       0.959   2.959  18.704  0.00  0.00    +0.000 C 
ATOM      9  C   UNL     1       1.875   4.025  18.140  0.00  0.00    +0.000 C 
ATOM     10  C   UNL     1       3.439   5.772  19.161  0.00  0.00    +0.000 C 
ENDROOT
BRANCH   1  11
ATOM     11  C   UNL     1       4.332   5.403  16.908  0.00  0.00    +0.000 C 
BRANCH  11  15
ATOM     12  C   UNL     1       6.303   4.415  14.144  0.00  0.00    +0.000 A 
ATOM     13  N   UNL     1       7.131   5.339  14.578  0.00  0.00    +0.000 NA
ATOM     14  N   UNL     1       6.580   5.853  15.743  0.00  0.00    +0.000 NA
ATOM     15  C   UNL     1       5.459   5.193  15.948  0.00  0.00    +0.000 A 
ATOM     16  O   UNL     1       5.227   4.242  14.975  0.00  0.00    +0.000 OA
BRANCH  12  18
ATOM     17  C   UNL     1       4.974   3.493  12.231  0.00  0.00    +0.000 C 
ATOM     18  C   UNL     1       6.349   3.616  12.883  0.00  0.00    +0.000 C 
ATOM     19  C   UNL     1       7.360   4.189  11.883  0.00  0.00    +0.000 C 
ENDBRANCH  12  18
ENDBRANCH  11  15
ENDBRANCH   1  11
TORSDOF 3
ENDMDL
MODEL 6
REMARK VINA RESULT:      -7.6      2.106      6.344
REMARK  Name = 
REMARK  5 active torsions:
REMARK  status: ('A' for Active; 'I' for Inactive)
REMARK    1  A    between atoms: C_1  and  C_2
REMARK    2  A    between atoms: C_2  and  C_3
REMARK    3  A    between atoms: C_2  and  C_4
REMARK    4  A    between atoms: C_7  and  C_8
REMARK    5  A    between atoms: C_8  and  N_9
REMARK                            x       y       z     vdW  Elec       q    Type
REMARK                         _______ _______ _______ _____ _____    ______ ____
ROOT
ATOM      1  N   UNL     1       3.395   4.993  17.474  0.00  0.00    +0.000 NA
ATOM      2  C   UNL     1       3.174   6.382  17.901  0.00  0.00    +0.000 C 
ATOM      3  C   UNL     1       2.861   6.563  19.409  0.00  0.00    +0.000 C 
ATOM      4  O   UNL     1       2.930   5.379  20.219  0.00  0.00    +0.000 OA
ATOM      5  C   UNL     1       2.353   4.176  19.665  0.00  0.00    +0.000 C 
ATOM      6  C   UNL     1       0.988   3.911  20.345  0.00  0.00    +0.000 C 
ATOM      7  C   UNL     1       1.187   2.730  21.307  0.00  0.00    +0.000 C 
ATOM      8  C   UNL     1       2.682   2.624  21.512  0.00  0.00    +0.000 C 
ATOM      9  C   UNL     1       3.230   2.996  20.151  0.00  0.00    +0.000 C 
ATOM     10  C   UNL     1       2.293   4.218  18.109  0.00  0.00    +0.000 C 
ENDROOT
BRANCH   1  11
ATOM     11  C   UNL     1       4.721   4.498  17.920  0.00  0.00    +0.000 C 
BRANCH  11  15
ATOM     12  C   UNL     1       6.681   4.607  14.980  0.00  0.00    +0.000 A 
ATOM     13  N   UNL     1       7.690   4.677  15.819  0.00  0.00    +0.000 NA
ATOM     14  N   UNL     1       7.155   4.588  17.095  0.00  0.00    +0.000 NA
ATOM     15  C   UNL     1       5.854   4.452  16.946  0.00  0.00    +0.000 A 
ATOM     16  O   UNL     1       5.480   4.436  15.617  0.00  0.00    +0.000 OA
BRANCH  12  18
ATOM     17  C   UNL     1       8.038   5.161  12.948  0.00  0.00    +0.000 C 
ATOM     18  C   UNL     1       6.671   4.753  13.493  0.00  0.00    +0.000 C 
ATOM     19  C   UNL     1       6.186   3.474  12.800  0.00  0.00    +0.000 C 
ENDBRANCH  12  18
ENDBRANCH  11  15
ENDBRANCH   1  11
TORSDOF 3
ENDMDL
MODEL 7
REMARK VINA RESULT:      -7.5      2.347      6.344
REMARK  Name = 
REMARK  5 active torsions:
REMARK  status: ('A' for Active; 'I' for Inactive)
REMARK    1  A    between atoms: C_1  and  C_2
REMARK    2  A    between atoms: C_2  and  C_3
REMARK    3  A    between atoms: C_2  and  C_4
REMARK    4  A    between atoms: C_7  and  C_8
REMARK    5  A    between atoms: C_8  and  N_9
REMARK                            x       y       z     vdW  Elec       q    Type
REMARK                         _______ _______ _______ _____ _____    ______ ____
ROOT
ATOM      1  N   UNL     1       5.374   5.557  17.000  0.00  0.00    +0.000 NA
ATOM      2  C   UNL     1       6.084   6.048  18.189  0.00  0.00    +0.000 C 
ATOM      3  C   UNL     1       5.918   5.176  19.460  0.00  0.00    +0.000 C 
ATOM      4  O   UNL     1       5.187   3.950  19.298  0.00  0.00    +0.000 OA
ATOM      5  C   UNL     1       3.989   4.007  18.494  0.00  0.00    +0.000 C 
ATOM      6  C   UNL     1       2.753   3.992  19.427  0.00  0.00    +0.000 C 
ATOM      7  C   UNL     1       2.119   2.598  19.311  0.00  0.00    +0.000 C 
ATOM      8  C   UNL     1       3.191   1.717  18.707  0.00  0.00    +0.000 C 
ATOM      9  C   UNL     1       3.889   2.655  17.746  0.00  0.00    +0.000 C 
ATOM     10  C   UNL     1       4.013   5.197  17.488  0.00  0.00    +0.000 C 
ENDROOT
BRANCH   1  11
ATOM     11  C   UNL     1       6.059   4.378  16.413  0.00  0.00    +0.000 C 
BRANCH  11  15
ATOM     12  C   UNL     1       6.670   4.056  12.946  0.00  0.00    +0.000 A 
ATOM     13  N   UNL     1       7.492   5.064  13.135  0.00  0.00    +0.000 NA
ATOM     14  N   UNL     1       7.470   5.346  14.494  0.00  0.00    +0.000 NA
ATOM     15  C   UNL     1       6.648   4.477  15.042  0.00  0.00    +0.000 A 
ATOM     16  O   UNL     1       6.113   3.606  14.114  0.00  0.00    +0.000 OA
BRANCH  12  18
ATOM     17  C   UNL     1       6.971   2.101  11.408  0.00  0.00    +0.000 C 
ATOM     18  C   UNL     1       6.235   3.414  11.669  0.00  0.00    +0.000 C 
ATOM     19  C   UNL     1       4.720   3.187  11.635  0.00  0.00    +0.000 C 
ENDBRANCH  12  18
ENDBRANCH  11  15
ENDBRANCH   1  11
TORSDOF 3
ENDMDL
MODEL 8
REMARK VINA RESULT:      -7.4      2.515      6.216
REMARK  Name = 
REMARK  5 active torsions:
REMARK  status: ('A' for Active; 'I' for Inactive)
REMARK    1  A    between atoms: C_1  and  C_2
REMARK    2  A    between atoms: C_2  and  C_3
REMARK    3  A    between atoms: C_2  and  C_4
REMARK    4  A    between atoms: C_7  and  C_8
REMARK    5  A    between atoms: C_8  and  N_9
REMARK                            x       y       z     vdW  Elec       q    Type
REMARK                         _______ _______ _______ _____ _____    ______ ____
ROOT
ATOM      1  N   UNL     1       4.663   4.578  18.046  0.00  0.00    +0.000 NA
ATOM      2  C   UNL     1       3.672   3.503  17.902  0.00  0.00    +0.000 C 
ATOM      3  C   UNL     1       2.192   3.962  17.955  0.00  0.00    +0.000 C 
ATOM      4  O   UNL     1       1.969   5.379  18.030  0.00  0.00    +0.000 OA
ATOM      5  C   UNL     1       2.823   6.127  18.923  0.00  0.00    +0.000 C 
ATOM      6  C   UNL     1       2.029   6.478  20.204  0.00  0.00    +0.000 C 
ATOM      7  C   UNL     1       1.698   7.976  20.131  0.00  0.00    +0.000 C 
ATOM      8  C   UNL     1       1.886   8.361  18.680  0.00  0.00    +0.000 C 
ATOM      9  C   UNL     1       3.062   7.506  18.260  0.00  0.00    +0.000 C 
ATOM     10  C   UNL     1       4.174   5.399  19.189  0.00  0.00    +0.000 C 
ENDROOT
BRANCH   1  11
ATOM     11  C   UNL     1       4.758   5.391  16.808  0.00  0.00    +0.000 C 
BRANCH  11  15
ATOM     12  C   UNL     1       6.582   4.367  13.958  0.00  0.00    +0.000 A 
ATOM     13  N   UNL     1       7.525   5.137  14.453  0.00  0.00    +0.000 NA
ATOM     14  N   UNL     1       7.046   5.628  15.659  0.00  0.00    +0.000 NA
ATOM     15  C   UNL     1       5.848   5.109  15.825  0.00  0.00    +0.000 A 
ATOM     16  O   UNL     1       5.492   4.275  14.784  0.00  0.00    +0.000 OA
BRANCH  12  18
ATOM     17  C   UNL     1       5.085   3.424  12.185  0.00  0.00    +0.000 C 
ATOM     18  C   UNL     1       6.522   3.668  12.639  0.00  0.00    +0.000 C 
ATOM     19  C   UNL     1       7.297   4.429  11.557  0.00  0.00    +0.000 C 
ENDBRANCH  12  18
ENDBRANCH  11  15
ENDBRANCH   1  11
TORSDOF 3
ENDMDL
MODEL 9
REMARK VINA RESULT:      -7.2      2.122      6.295
REMARK  Name = 
REMARK  5 active torsions:
REMARK  status: ('A' for Active; 'I' for Inactive)
REMARK    1  A    between atoms: C_1  and  C_2
REMARK    2  A    between atoms: C_2  and  C_3
REMARK    3  A    between atoms: C_2  and  C_4
REMARK    4  A    between atoms: C_7  and  C_8
REMARK    5  A    between atoms: C_8  and  N_9
REMARK                            x       y       z     vdW  Elec       q    Type
REMARK                         _______ _______ _______ _____ _____    ______ ____
ROOT
ATOM      1  N   UNL     1       3.188   6.108  17.836  0.00  0.00    +0.000 NA
ATOM      2  C   UNL     1       2.592   7.298  18.459  0.00  0.00    +0.000 C 
ATOM      3  C   UNL     1       2.086   7.095  19.911  0.00  0.00    +0.000 C 
ATOM      4  O   UNL     1       2.355   5.815  20.504  0.00  0.00    +0.000 OA
ATOM      5  C   UNL     1       2.151   4.654  19.669  0.00  0.00    +0.000 C 
ATOM      6  C   UNL     1       0.827   3.964  20.079  0.00  0.00    +0.000 C 
ATOM      7  C   UNL     1       1.204   2.684  20.840  0.00  0.00    +0.000 C 
ATOM      8  C   UNL     1       2.650   2.868  21.247  0.00  0.00    +0.000 C 
ATOM      9  C   UNL     1       3.232   3.621  20.070  0.00  0.00    +0.000 C 
ATOM     10  C   UNL     1       2.247   4.998  18.153  0.00  0.00    +0.000 C 
ENDROOT
BRANCH   1  11
ATOM     11  C   UNL     1       4.540   5.835  18.384  0.00  0.00    +0.000 C 
BRANCH  11  15
ATOM     12  C   UNL     1       6.665   5.122  15.650  0.00  0.00    +0.000 A 
ATOM     13  N   UNL     1       7.401   6.092  16.144  0.00  0.00    +0.000 NA
ATOM     14  N   UNL     1       6.775   6.513  17.309  0.00  0.00    +0.000 NA
ATOM     15  C   UNL     1       5.708   5.757  17.454  0.00  0.00    +0.000 A 
ATOM     16  O   UNL     1       5.584   4.829  16.439  0.00  0.00    +0.000 OA
BRANCH  12  18
ATOM     17  C   UNL     1       5.463   4.012  13.753  0.00  0.00    +0.000 C 
ATOM     18  C   UNL     1       6.815   4.379  14.363  0.00  0.00    +0.000 C 
ATOM     19  C   UNL     1       7.656   5.162  13.349  0.00  0.00    +0.000 C 
ENDBRANCH  12  18
ENDBRANCH  11  15
ENDBRANCH   1  11
TORSDOF 3
ENDMDL
