MODEL 1
REMARK VINA RESULT:      -5.9      0.000      0.000
REMARK  Name = 
REMARK  5 active torsions:
REMARK  status: ('A' for Active; 'I' for Inactive)
REMARK    1  A    between atoms: C_1  and  S_2
REMARK    2  A    between atoms: S_2  and  C_3
REMARK    3  A    between atoms: N_11  and  C_12
REMARK    4  A    between atoms: C_15  and  C_16
REMARK    5  A    between atoms: C_16  and  O_17
REMARK                            x       y       z     vdW  Elec       q    Type
REMARK                         _______ _______ _______ _____ _____    ______ ____
ROOT
ATOM      1  C   UNL     1       1.183   8.950  19.973  0.00  0.00    +0.000 A 
ATOM      2  N   UNL     1       1.197   9.919  19.019  0.00  0.00    +0.000 NA
ATOM      3  C   UNL     1       1.853   9.664  17.870  0.00  0.00    +0.000 A 
ATOM      4  N   UNL     1       2.526   8.552  17.522  0.00  0.00    +0.000 NA
ATOM      5  C   UNL     1       2.477   7.630  18.500  0.00  0.00    +0.000 A 
ATOM      6  C   UNL     1       1.839   7.741  19.728  0.00  0.00    +0.000 A 
ATOM      7  N   UNL     1       2.009   6.580  20.461  0.00  0.00    +0.000 NA
ATOM      8  C   UNL     1       2.739   5.795  19.698  0.00  0.00    +0.000 A 
ATOM      9  N   UNL     1       3.049   6.384  18.503  0.00  0.00    +0.000 N 
ENDROOT
BRANCH   9  10
ATOM     10  C   UNL     1       3.875   5.840  17.441  0.00  0.00    +0.000 C 
ATOM     11  C   UNL     1       3.626   4.367  17.141  0.00  0.00    +0.000 C 
ATOM     12  C   UNL     1       4.997   3.856  16.777  0.00  0.00    +0.000 C 
ATOM     13  C   UNL     1       5.899   4.676  17.678  0.00  0.00    +0.000 C 
ATOM     14  O   UNL     1       5.274   5.973  17.788  0.00  0.00    +0.000 OA
BRANCH  13  15
ATOM     15  C   UNL     1       7.312   4.834  17.121  0.00  0.00    +0.000 C 
BRANCH  15  16
ATOM     16  O   UNL     1       7.409   6.027  16.347  0.00  0.00    +0.000 OA
ATOM     17  H   UNL     1       6.500   6.245  16.070  0.00  0.00    +0.000 HD
ENDBRANCH  15  16
ENDBRANCH  13  15
ENDBRANCH   9  10
BRANCH   1  19
ATOM     18  C   UNL     1      -0.386  10.835  21.206  0.00  0.00    +0.000 C 
ATOM     19  S   UNL     1       0.355   9.214  21.514  0.00  0.00    +0.000 S 
ENDBRANCH   1  19
TORSDOF 4
ENDMDL
MODEL 2
REMARK VINA RESULT:      -5.9      4.148      5.800
REMARK  Name = 
REMARK  5 active torsions:
REMARK  status: ('A' for Active; 'I' for Inactive)
REMARK    1  A    between atoms: C_1  and  S_2
REMARK    2  A    between atoms: S_2  and  C_3
REMARK    3  A    between atoms: N_11  and  C_12
REMARK    4  A    between atoms: C_15  and  C_16
REMARK    5  A    between atoms: C_16  and  O_17
REMARK                            x       y       z     vdW  Elec       q    Type
REMARK                         _______ _______ _______ _____ _____    ______ ____
ROOT
ATOM      1  C   UNL     1       7.280   7.111  18.104  0.00  0.00    +0.000 A 
ATOM      2  N   UNL     1       8.144   6.463  18.930  0.00  0.00    +0.000 NA
ATOM      3  C   UNL     1       7.749   5.289  19.461  0.00  0.00    +0.000 A 
ATOM      4  N   UNL     1       6.577   4.648  19.291  0.00  0.00    +0.000 NA
ATOM      5  C   UNL     1       5.765   5.333  18.465  0.00  0.00    +0.000 A 
ATOM      6  C   UNL     1       6.031   6.542  17.838  0.00  0.00    +0.000 A 
ATOM      7  N   UNL     1       4.952   6.925  17.062  0.00  0.00    +0.000 NA
ATOM      8  C   UNL     1       4.056   5.977  17.227  0.00  0.00    +0.000 A 
ATOM      9  N   UNL     1       4.499   4.992  18.067  0.00  0.00    +0.000 N 
ENDROOT
BRANCH   9  10
ATOM     10  C   UNL     1       3.767   3.822  18.515  0.00  0.00    +0.000 C 
ATOM     11  C   UNL     1       2.550   3.477  17.667  0.00  0.00    +0.000 C 
ATOM     12  C   UNL     1       1.567   2.944  18.680  0.00  0.00    +0.000 C 
ATOM     13  C   UNL     1       1.875   3.783  19.904  0.00  0.00    +0.000 C 
ATOM     14  O   UNL     1       3.298   4.024  19.871  0.00  0.00    +0.000 OA
BRANCH  13  15
ATOM     15  C   UNL     1       1.503   3.088  21.211  0.00  0.00    +0.000 C 
BRANCH  15  16
ATOM     16  O   UNL     1       2.679   2.751  21.945  0.00  0.00    +0.000 OA
ATOM     17  H   UNL     1       3.425   3.149  21.458  0.00  0.00    +0.000 HD
ENDBRANCH  15  16
ENDBRANCH  13  15
ENDBRANCH   9  10
BRANCH   1  19
ATOM     18  C   UNL     1       8.738   9.358  18.704  0.00  0.00    +0.000 C 
ATOM     19  S   UNL     1       7.720   8.664  17.380  0.00  0.00    +0.000 S 
ENDBRANCH   1  19
TORSDOF 4
ENDMDL
MODEL 3
REMARK VINA RESULT:      -5.7      3.753      6.506
REMARK  Name = 
REMARK  5 active torsions:
REMARK  status: ('A' for Active; 'I' for Inactive)
REMARK    1  A    between atoms: C_1  and  S_2
REMARK    2  A    between atoms: S_2  and  C_3
REMARK    3  A    between atoms: N_11  and  C_12
REMARK    4  A    between atoms: C_15  and  C_16
REMARK    5  A    between atoms: C_16  and  O_17
REMARK                            x       y       z     vdW  Elec       q    Type
REMARK                         _______ _______ _______ _____ _____    ______ ____
ROOT
ATOM      1  C   UNL     1       6.380   4.888  15.506  0.00  0.00    +0.000 A 
ATOM      2  N   UNL     1       7.334   5.791  15.856  0.00  0.00    +0.000 NA
ATOM      3  C   UNL     1       7.200   6.424  17.039  0.00  0.00    +0.000 A 
ATOM      4  N   UNL     1       6.219   6.291  17.951  0.00  0.00    +0.000 NA
ATOM      5  C   UNL     1       5.307   5.385  17.553  0.00  0.00    +0.000 A 
ATOM      6  C   UNL     1       5.311   4.651  16.375  0.00  0.00    +0.000 A 
ATOM      7  N   UNL     1       4.207   3.818  16.328  0.00  0.00    +0.000 NA
ATOM      8  C   UNL     1       3.551   4.053  17.443  0.00  0.00    +0.000 A 
ATOM      9  N   UNL     1       4.173   4.994  18.217  0.00  0.00    +0.000 N 
ENDROOT
BRANCH   9  10
ATOM     10  C   UNL     1       3.716   5.537  19.482  0.00  0.00    +0.000 C 
ATOM     11  C   UNL     1       2.643   4.705  20.174  0.00  0.00    +0.000 C 
ATOM     12  C   UNL     1       1.773   5.747  20.832  0.00  0.00    +0.000 C 
ATOM     13  C   UNL     1       1.833   6.892  19.841  0.00  0.00    +0.000 C 
ATOM     14  O   UNL     1       3.162   6.860  19.279  0.00  0.00    +0.000 OA
BRANCH  13  15
ATOM     15  C   UNL     1       1.583   8.253  20.489  0.00  0.00    +0.000 C 
BRANCH  15  16
ATOM     16  O   UNL     1       1.801   8.179  21.896  0.00  0.00    +0.000 OA
ATOM     17  H   UNL     1       1.527   7.282  22.165  0.00  0.00    +0.000 HD
ENDBRANCH  15  16
ENDBRANCH  13  15
ENDBRANCH   9  10
BRANCH   1  19
ATOM     18  C   UNL     1       7.671   5.069  13.091  0.00  0.00    +0.000 C 
ATOM     19  S   UNL     1       6.477   4.027  13.964  0.00  0.00    +0.000 S 
ENDBRANCH   1  19
TORSDOF 4
ENDMDL
MODEL 4
REMARK VINA RESULT:      -5.7      3.475      5.161
REMARK  Name = 
REMARK  5 active torsions:
REMARK  status: ('A' for Active; 'I' for Inactive)
REMARK    1  A    between atoms: C_1  and  S_2
REMARK    2  A    between atoms: S_2  and  C_3
REMARK    3  A    between atoms: N_11  and  C_12
REMARK    4  A    between atoms: C_15  and  C_16
REMARK    5  A    between atoms: C_16  and  O_17
REMARK                            x       y       z     vdW  Elec       q    Type
REMARK                         _______ _______ _______ _____ _____    ______ ____
ROOT
ATOM      1  C   UNL     1       3.354   5.262  18.415  0.00  0.00    +0.000 A 
ATOM      2  N   UNL     1       3.150   3.976  18.809  0.00  0.00    +0.000 NA
ATOM      3  C   UNL     1       3.776   2.999  18.123  0.00  0.00    +0.000 A 
ATOM      4  N   UNL     1       4.595   3.117  17.061  0.00  0.00    +0.000 NA
ATOM      5  C   UNL     1       4.761   4.408  16.718  0.00  0.00    +0.000 A 
ATOM      6  C   UNL     1       4.194   5.519  17.328  0.00  0.00    +0.000 A 
ATOM      7  N   UNL     1       4.608   6.675  16.692  0.00  0.00    +0.000 NA
ATOM      8  C   UNL     1       5.393   6.270  15.718  0.00  0.00    +0.000 A 
ATOM      9  N   UNL     1       5.517   4.908  15.690  0.00  0.00    +0.000 N 
ENDROOT
BRANCH   9  10
ATOM     10  C   UNL     1       6.257   4.110  14.731  0.00  0.00    +0.000 C 
ATOM     11  C   UNL     1       7.194   4.910  13.835  0.00  0.00    +0.000 C 
ATOM     12  C   UNL     1       7.123   4.173  12.521  0.00  0.00    +0.000 C 
ATOM     13  C   UNL     1       5.684   3.699  12.492  0.00  0.00    +0.000 C 
ATOM     14  O   UNL     1       5.337   3.405  13.862  0.00  0.00    +0.000 OA
BRANCH  13  15
ATOM     15  C   UNL     1       5.487   2.450  11.635  0.00  0.00    +0.000 C 
BRANCH  15  16
ATOM     16  O   UNL     1       6.708   1.721  11.533  0.00  0.00    +0.000 OA
ATOM     17  H   UNL     1       6.564   0.884  12.012  0.00  0.00    +0.000 HD
ENDBRANCH  15  16
ENDBRANCH  13  15
ENDBRANCH   9  10
BRANCH   1  19
ATOM     18  C   UNL     1       1.783   5.701  20.622  0.00  0.00    +0.000 C 
ATOM     19  S   UNL     1       2.557   6.598  19.256  0.00  0.00    +0.000 S 
ENDBRANCH   1  19
TORSDOF 4
ENDMDL
MODEL 5
REMARK VINA RESULT:      -5.7      2.311      3.315
REMARK  Name = 
REMARK  5 active torsions:
REMARK  status: ('A' for Active; 'I' for Inactive)
REMARK    1  A    between atoms: C_1  and  S_2
REMARK    2  A    between atoms: S_2  and  C_3
REMARK    3  A    between atoms: N_11  and  C_12
REMARK    4  A    between atoms: C_15  and  C_16
REMARK    5  A    between atoms: C_16  and  O_17
REMARK                            x       y       z     vdW  Elec       q    Type
REMARK                         _______ _______ _______ _____ _____    ______ ____
ROOT
ATOM      1  C   UNL     1       0.711  10.168  19.770  0.00  0.00    +0.000 A 
ATOM      2  N   UNL     1       0.392   9.807  21.041  0.00  0.00    +0.000 NA
ATOM      3  C   UNL     1       0.812   8.604  21.481  0.00  0.00    +0.000 A 
ATOM      4  N   UNL     1       1.521   7.672  20.815  0.00  0.00    +0.000 NA
ATOM      5  C   UNL     1       1.809   8.084  19.567  0.00  0.00    +0.000 A 
ATOM      6  C   UNL     1       1.456   9.290  18.977  0.00  0.00    +0.000 A 
ATOM      7  N   UNL     1       1.941   9.348  17.683  0.00  0.00    +0.000 NA
ATOM      8  C   UNL     1       2.559   8.203  17.495  0.00  0.00    +0.000 A 
ATOM      9  N   UNL     1       2.507   7.403  18.604  0.00  0.00    +0.000 N 
ENDROOT
BRANCH   9  10
ATOM     10  C   UNL     1       3.034   6.058  18.746  0.00  0.00    +0.000 C 
ATOM     11  C   UNL     1       3.945   5.615  17.608  0.00  0.00    +0.000 C 
ATOM     12  C   UNL     1       3.636   4.144  17.476  0.00  0.00    +0.000 C 
ATOM     13  C   UNL     1       2.159   4.091  17.810  0.00  0.00    +0.000 C 
ATOM     14  O   UNL     1       1.944   5.107  18.813  0.00  0.00    +0.000 OA
BRANCH  13  15
ATOM     15  C   UNL     1       1.721   2.733  18.355  0.00  0.00    +0.000 C 
BRANCH  15  16
ATOM     16  O   UNL     1       2.509   1.692  17.783  0.00  0.00    +0.000 OA
ATOM     17  H   UNL     1       2.994   2.097  17.040  0.00  0.00    +0.000 HD
ENDBRANCH  15  16
ENDBRANCH  13  15
ENDBRANCH   9  10
BRANCH   1  19
ATOM     18  C   UNL     1      -0.864  12.303  20.471  0.00  0.00    +0.000 C 
ATOM     19  S   UNL     1       0.185  11.724  19.116  0.00  0.00    +0.000 S 
ENDBRANCH   1  19
TORSDOF 4
ENDMDL
MODEL 6
REMARK VINA RESULT:      -5.6      4.203      5.804
REMARK  Name = 
REMARK  5 active torsions:
REMARK  status: ('A' for Active; 'I' for Inactive)
REMARK    1  A    between atoms: C_1  and  S_2
REMARK    2  A    between atoms: S_2  and  C_3
REMARK    3  A    between atoms: N_11  and  C_12
REMARK    4  A    between atoms: C_15  and  C_16
REMARK    5  A    between atoms: C_16  and  O_17
REMARK                            x       y       z     vdW  Elec       q    Type
REMARK                         _______ _______ _______ _____ _____    ______ ____
ROOT
ATOM      1  C   UNL     1       7.390   7.286  18.117  0.00  0.00    +0.000 A 
ATOM      2  N   UNL     1       8.285   6.673  18.935  0.00  0.00    +0.000 NA
ATOM      3  C   UNL     1       7.951   5.472  19.450  0.00  0.00    +0.000 A 
ATOM      4  N   UNL     1       6.814   4.774  19.269  0.00  0.00    +0.000 NA
ATOM      5  C   UNL     1       5.969   5.427  18.451  0.00  0.00    +0.000 A 
ATOM      6  C   UNL     1       6.172   6.657  17.841  0.00  0.00    +0.000 A 
ATOM      7  N   UNL     1       5.075   6.994  17.069  0.00  0.00    +0.000 NA
ATOM      8  C   UNL     1       4.229   5.999  17.219  0.00  0.00    +0.000 A 
ATOM      9  N   UNL     1       4.722   5.026  18.046  0.00  0.00    +0.000 N 
ENDROOT
BRANCH   9  10
ATOM     10  C   UNL     1       4.052   3.814  18.478  0.00  0.00    +0.000 C 
ATOM     11  C   UNL     1       3.817   2.795  17.369  0.00  0.00    +0.000 C 
ATOM     12  C   UNL     1       2.492   2.180  17.746  0.00  0.00    +0.000 C 
ATOM     13  C   UNL     1       1.753   3.350  18.362  0.00  0.00    +0.000 C 
ATOM     14  O   UNL     1       2.757   4.140  19.038  0.00  0.00    +0.000 OA
BRANCH  13  15
ATOM     15  C   UNL     1       0.683   2.919  19.362  0.00  0.00    +0.000 C 
BRANCH  15  16
ATOM     16  O   UNL     1       0.555   3.887  20.400  0.00  0.00    +0.000 OA
ATOM     17  H   UNL     1       0.272   3.397  21.195  0.00  0.00    +0.000 HD
ENDBRANCH  15  16
ENDBRANCH  13  15
ENDBRANCH   9  10
BRANCH   1  19
ATOM     18  C   UNL     1       8.806   9.561  18.709  0.00  0.00    +0.000 C 
ATOM     19  S   UNL     1       7.749   8.869  17.415  0.00  0.00    +0.000 S 
ENDBRANCH   1  19
TORSDOF 4
ENDMDL
MODEL 7
REMARK VINA RESULT:      -5.6      2.475      3.719
REMARK  Name = 
REMARK  5 active torsions:
REMARK  status: ('A' for Active; 'I' for Inactive)
REMARK    1  A    between atoms: C_1  and  S_2
REMARK    2  A    between atoms: S_2  and  C_3
REMARK    3  A    between atoms: N_11  and  C_12
REMARK    4  A    between atoms: C_15  and  C_16
REMARK    5  A    between atoms: C_16  and  O_17
REMARK                            x       y       z     vdW  Elec       q    Type
REMARK                         _______ _______ _______ _____ _____    ______ ____
ROOT
ATOM      1  C   UNL     1       0.714  10.325  19.837  0.00  0.00    +0.000 A 
ATOM      2  N   UNL     1       0.410  10.016  21.126  0.00  0.00    +0.000 NA
ATOM      3  C   UNL     1       0.795   8.813  21.595  0.00  0.00    +0.000 A 
ATOM      4  N   UNL     1       1.455   7.836  20.945  0.00  0.00    +0.000 NA
ATOM      5  C   UNL     1       1.730   8.196  19.678  0.00  0.00    +0.000 A 
ATOM      6  C   UNL     1       1.408   9.395  19.057  0.00  0.00    +0.000 A 
ATOM      7  N   UNL     1       1.865   9.395  17.752  0.00  0.00    +0.000 NA
ATOM      8  C   UNL     1       2.437   8.222  17.588  0.00  0.00    +0.000 A 
ATOM      9  N   UNL     1       2.381   7.460  18.723  0.00  0.00    +0.000 N 
ENDROOT
BRANCH   9  10
ATOM     10  C   UNL     1       2.861   6.102  18.897  0.00  0.00    +0.000 C 
ATOM     11  C   UNL     1       3.601   5.536  17.691  0.00  0.00    +0.000 C 
ATOM     12  C   UNL     1       3.214   4.078  17.706  0.00  0.00    +0.000 C 
ATOM     13  C   UNL     1       1.790   4.125  18.222  0.00  0.00    +0.000 C 
ATOM     14  O   UNL     1       1.747   5.216  19.166  0.00  0.00    +0.000 OA
BRANCH  13  15
ATOM     15  C   UNL     1       1.364   2.832  18.913  0.00  0.00    +0.000 C 
BRANCH  15  16
ATOM     16  O   UNL     1       0.378   3.103  19.907  0.00  0.00    +0.000 OA
ATOM     17  H   UNL     1       0.375   4.071  20.028  0.00  0.00    +0.000 HD
ENDBRANCH  15  16
ENDBRANCH  13  15
ENDBRANCH   9  10
BRANCH   1  19
ATOM     18  C   UNL     1       1.787  12.788  19.278  0.00  0.00    +0.000 C 
ATOM     19  S   UNL     1       0.229  11.878  19.144  0.00  0.00    +0.000 S 
ENDBRANCH   1  19
TORSDOF 4
ENDMDL
MODEL 8
REMARK VINA RESULT:      -5.6      2.569      3.816
REMARK  Name = 
REMARK  5 active torsions:
REMARK  status: ('A' for Active; 'I' for Inactive)
REMARK    1  A    between atoms: C_1  and  S_2
REMARK    2  A    between atoms: S_2  and  C_3
REMARK    3  A    between atoms: N_11  and  C_12
REMARK    4  A    between atoms: C_15  and  C_16
REMARK    5  A    between atoms: C_16  and  O_17
REMARK                            x       y       z     vdW  Elec       q    Type
REMARK                         _______ _______ _______ _____ _____    ______ ____
ROOT
ATOM      1  C   UNL     1       0.378  10.470  19.850  0.00  0.00    +0.000 A 
ATOM      2  N   UNL     1       0.076  10.297  21.164  0.00  0.00    +0.000 NA
ATOM      3  C   UNL     1       0.539   9.190  21.779  0.00  0.00    +0.000 A 
ATOM      4  N   UNL     1       1.278   8.193  21.257  0.00  0.00    +0.000 NA
ATOM      5  C   UNL     1       1.548   8.418  19.958  0.00  0.00    +0.000 A 
ATOM      6  C   UNL     1       1.151   9.507  19.194  0.00  0.00    +0.000 A 
ATOM      7  N   UNL     1       1.629   9.383  17.902  0.00  0.00    +0.000 NA
ATOM      8  C   UNL     1       2.287   8.245  17.886  0.00  0.00    +0.000 A 
ATOM      9  N   UNL     1       2.267   7.622  19.104  0.00  0.00    +0.000 N 
ENDROOT
BRANCH   9  10
ATOM     10  C   UNL     1       2.840   6.334  19.445  0.00  0.00    +0.000 C 
ATOM     11  C   UNL     1       3.735   5.738  18.366  0.00  0.00    +0.000 C 
ATOM     12  C   UNL     1       3.472   4.257  18.484  0.00  0.00    +0.000 C 
ATOM     13  C   UNL     1       2.007   4.217  18.868  0.00  0.00    +0.000 C 
ATOM     14  O   UNL     1       1.784   5.376  19.700  0.00  0.00    +0.000 OA
BRANCH  13  15
ATOM     15  C   UNL     1       1.628   2.954  19.638  0.00  0.00    +0.000 C 
BRANCH  15  16
ATOM     16  O   UNL     1       0.462   3.184  20.425  0.00  0.00    +0.000 OA
ATOM     17  H   UNL     1      -0.208   2.549  20.110  0.00  0.00    +0.000 HD
ENDBRANCH  15  16
ENDBRANCH  13  15
ENDBRANCH   9  10
BRANCH   1  19
ATOM     18  C   UNL     1      -1.807  11.274  18.398  0.00  0.00    +0.000 C 
ATOM     19  S   UNL     1      -0.205  11.889  18.971  0.00  0.00    +0.000 S 
ENDBRANCH   1  19
TORSDOF 4
ENDMDL
MODEL 9
REMARK VINA RESULT:      -5.6      4.084      5.024
REMARK  Name = 
REMARK  5 active torsions:
REMARK  status: ('A' for Active; 'I' for Inactive)
REMARK    1  A    between atoms: C_1  and  S_2
REMARK    2  A    between atoms: S_2  and  C_3
REMARK    3  A    between atoms: N_11  and  C_12
REMARK    4  A    between atoms: C_15  and  C_16
REMARK    5  A    between atoms: C_16  and  O_17
REMARK                            x       y       z     vdW  Elec       q    Type
REMARK                         _______ _______ _______ _____ _____    ______ ____
ROOT
ATOM      1  C   UNL     1       2.778   3.686  19.545  0.00  0.00    +0.000 A 
ATOM      2  N   UNL     1       2.139   2.664  18.917  0.00  0.00    +0.000 NA
ATOM      3  C   UNL     1       2.687   2.176  17.786  0.00  0.00    +0.000 A 
ATOM      4  N   UNL     1       3.811   2.577  17.163  0.00  0.00    +0.000 NA
ATOM      5  C   UNL     1       4.400   3.587  17.828  0.00  0.00    +0.000 A 
ATOM      6  C   UNL     1       3.965   4.187  19.002  0.00  0.00    +0.000 A 
ATOM      7  N   UNL     1       4.843   5.187  19.380  0.00  0.00    +0.000 NA
ATOM      8  C   UNL     1       5.775   5.197  18.452  0.00  0.00    +0.000 A 
ATOM      9  N   UNL     1       5.552   4.249  17.491  0.00  0.00    +0.000 N 
ENDROOT
BRANCH   9  10
ATOM     10  C   UNL     1       6.339   4.004  16.297  0.00  0.00    +0.000 C 
ATOM     11  C   UNL     1       7.075   5.227  15.765  0.00  0.00    +0.000 C 
ATOM     12  C   UNL     1       7.028   5.031  14.270  0.00  0.00    +0.000 C 
ATOM     13  C   UNL     1       5.682   4.362  14.072  0.00  0.00    +0.000 C 
ATOM     14  O   UNL     1       5.482   3.526  15.232  0.00  0.00    +0.000 OA
BRANCH  13  15
ATOM     15  C   UNL     1       5.623   3.507  12.808  0.00  0.00    +0.000 C 
BRANCH  15  16
ATOM     16  O   UNL     1       6.933   3.092  12.428  0.00  0.00    +0.000 OA
ATOM     17  H   UNL     1       6.814   2.306  11.863  0.00  0.00    +0.000 HD
ENDBRANCH  15  16
ENDBRANCH  13  15
ENDBRANCH   9  10
BRANCH   1  19
ATOM     18  C   UNL     1       1.513   2.895  21.848  0.00  0.00    +0.000 C 
ATOM     19  S   UNL     1       2.115   4.389  21.026  0.00  0.00    +0.000 S 
ENDBRANCH   1  19
TORSDOF 4
ENDMDL
