MODEL 1
REMARK VINA RESULT:      -8.2      0.000      0.000
REMARK  Name = 
REMARK  9 active torsions:
REMARK  status: ('A' for Active; 'I' for Inactive)
REMARK    1  A    between atoms: C_1  and  C_2
REMARK    2  A    between atoms: C_3  and  C_4
REMARK    3  A    between atoms: C_4  and  O_5
REMARK    4  A    between atoms: O_5  and  C_6
REMARK    5  A    between atoms: C_9  and  S_10
REMARK    6  A    between atoms: S_10  and  N_13
REMARK    7  A    between atoms: C_17  and  C_18
REMARK    8  A    between atoms: C_21  and  C_22
REMARK    9  A    between atoms: N_24  and  O_25
REMARK                            x       y       z     vdW  Elec       q    Type
REMARK                         _______ _______ _______ _____ _____    ______ ____
ROOT
ATOM      1  N   UNL     1       4.209   4.771  18.901  0.00  0.00    +0.000 NA
ATOM      2  C   UNL     1       4.665   3.486  18.260  0.00  0.00    +0.000 C 
ATOM      3  C   UNL     1       4.495   3.493  16.735  0.00  0.00    +0.000 C 
ATOM      4  N   UNL     1       4.950   4.782  16.127  0.00  0.00    +0.000 N 
ATOM      5  C   UNL     1       5.731   4.915  14.985  0.00  0.00    +0.000 C 
ATOM      6  C   UNL     1       6.236   3.698  14.255  0.00  0.00    +0.000 C 
ATOM      7  O   UNL     1       6.049   6.024  14.547  0.00  0.00    +0.000 OA
ATOM      8  C   UNL     1       4.695   6.061  16.855  0.00  0.00    +0.000 C 
ATOM      9  C   UNL     1       4.932   5.952  18.356  0.00  0.00    +0.000 C 
ENDROOT
BRANCH   9  10
ATOM     10  C   UNL     1       6.406   5.946  18.618  0.00  0.00    +0.000 C 
ATOM     11  O   UNL     1       7.255   6.500  17.871  0.00  0.00    +0.000 OA
ATOM     12  N   UNL     1       6.825   5.337  19.754  0.00  0.00    +0.000 N 
ATOM     13  H   UNL     1       6.250   4.736  20.343  0.00  0.00    +0.000 HD
BRANCH  12  14
ATOM     14  O   UNL     1       8.230   5.368  19.962  0.00  0.00    +0.000 OA
ATOM     15  H   UNL     1       8.336   4.665  20.648  0.00  0.00    +0.000 HD
ENDBRANCH  12  14
ENDBRANCH   9  10
BRANCH   1  16
ATOM     16  S   UNL     1       2.633   5.081  19.450  0.00  0.00    +0.000 S 
ATOM     17  O   UNL     1       2.680   4.800  20.896  0.00  0.00    +0.000 OA
ATOM     18  O   UNL     1       1.713   4.361  18.621  0.00  0.00    +0.000 OA
BRANCH  16  22
ATOM     19  C   UNL     1       1.324   9.493  19.033  0.00  0.00    +0.000 A 
ATOM     20  C   UNL     1       1.823   8.781  17.949  0.00  0.00    +0.000 A 
ATOM     21  C   UNL     1       2.152   7.419  18.033  0.00  0.00    +0.000 A 
ATOM     22  C   UNL     1       2.255   6.832  19.288  0.00  0.00    +0.000 A 
ATOM     23  C   UNL     1       1.864   7.596  20.397  0.00  0.00    +0.000 A 
ATOM     24  C   UNL     1       1.297   8.872  20.273  0.00  0.00    +0.000 A 
BRANCH  19  25
ATOM     25  O   UNL     1       0.888  10.786  18.926  0.00  0.00    +0.000 OA
BRANCH  25  26
ATOM     26  C   UNL     1      -0.495  10.943  19.295  0.00  0.00    +0.000 C 
BRANCH  26  29
ATOM     27  C   UNL     1      -2.835   9.772  15.828  0.00  0.00    +0.000 C 
ATOM     28  C   UNL     1      -2.016  10.181  17.041  0.00  0.00    +0.000 C 
ATOM     29  C   UNL     1      -1.313  10.533  18.082  0.00  0.00    +0.000 C 
ENDBRANCH  26  29
ENDBRANCH  25  26
ENDBRANCH  19  25
ENDBRANCH  16  22
ENDBRANCH   1  16
TORSDOF 7
ENDMDL
MODEL 2
REMARK VINA RESULT:      -7.8      3.268      7.234
REMARK  Name = 
REMARK  9 active torsions:
REMARK  status: ('A' for Active; 'I' for Inactive)
REMARK    1  A    between atoms: C_1  and  C_2
REMARK    2  A    between atoms: C_3  and  C_4
REMARK    3  A    between atoms: C_4  and  O_5
REMARK    4  A    between atoms: O_5  and  C_6
REMARK    5  A    between atoms: C_9  and  S_10
REMARK    6  A    between atoms: S_10  and  N_13
REMARK    7  A    between atoms: C_17  and  C_18
REMARK    8  A    between atoms: C_21  and  C_22
REMARK    9  A    between atoms: N_24  and  O_25
REMARK                            x       y       z     vdW  Elec       q    Type
REMARK                         _______ _______ _______ _____ _____    ______ ____
ROOT
ATOM      1  N   UNL     1       4.301   5.628  18.131  0.00  0.00    +0.000 NA
ATOM      2  C   UNL     1       3.190   4.996  17.334  0.00  0.00    +0.000 C 
ATOM      3  C   UNL     1       2.766   3.630  17.890  0.00  0.00    +0.000 C 
ATOM      4  N   UNL     1       2.641   3.648  19.381  0.00  0.00    +0.000 N 
ATOM      5  C   UNL     1       1.602   3.092  20.119  0.00  0.00    +0.000 C 
ATOM      6  C   UNL     1       0.442   2.424  19.428  0.00  0.00    +0.000 C 
ATOM      7  O   UNL     1       1.587   3.143  21.352  0.00  0.00    +0.000 OA
ATOM      8  C   UNL     1       3.611   4.448  20.185  0.00  0.00    +0.000 C 
ATOM      9  C   UNL     1       3.931   5.802  19.562  0.00  0.00    +0.000 C 
ENDROOT
BRANCH   9  10
ATOM     10  C   UNL     1       2.778   6.729  19.792  0.00  0.00    +0.000 C 
ATOM     11  O   UNL     1       2.435   7.635  18.988  0.00  0.00    +0.000 OA
ATOM     12  N   UNL     1       2.052   6.536  20.920  0.00  0.00    +0.000 N 
ATOM     13  H   UNL     1       2.327   5.941  21.700  0.00  0.00    +0.000 HD
BRANCH  12  14
ATOM     14  O   UNL     1       0.963   7.434  21.085  0.00  0.00    +0.000 OA
ATOM     15  H   UNL     1       1.370   8.283  20.785  0.00  0.00    +0.000 HD
ENDBRANCH  12  14
ENDBRANCH   9  10
BRANCH   1  16
ATOM     16  S   UNL     1       5.958   5.409  17.837  0.00  0.00    +0.000 S 
ATOM     17  O   UNL     1       6.367   4.354  18.782  0.00  0.00    +0.000 OA
ATOM     18  O   UNL     1       6.602   6.688  17.886  0.00  0.00    +0.000 OA
BRANCH  16  22
ATOM     19  C   UNL     1       6.392   3.928  13.482  0.00  0.00    +0.000 A 
ATOM     20  C   UNL     1       5.597   3.253  14.399  0.00  0.00    +0.000 A 
ATOM     21  C   UNL     1       5.388   3.728  15.703  0.00  0.00    +0.000 A 
ATOM     22  C   UNL     1       6.211   4.736  16.189  0.00  0.00    +0.000 A 
ATOM     23  C   UNL     1       7.102   5.336  15.288  0.00  0.00    +0.000 A 
ATOM     24  C   UNL     1       7.122   5.022  13.922  0.00  0.00    +0.000 A 
BRANCH  19  25
ATOM     25  O   UNL     1       6.503   3.536  12.175  0.00  0.00    +0.000 OA
BRANCH  25  26
ATOM     26  C   UNL     1       5.541   2.529  11.809  0.00  0.00    +0.000 C 
BRANCH  26  29
ATOM     27  C   UNL     1       2.523   4.527   9.408  0.00  0.00    +0.000 C 
ATOM     28  C   UNL     1       3.579   3.828  10.248  0.00  0.00    +0.000 C 
ATOM     29  C   UNL     1       4.485   3.228  10.969  0.00  0.00    +0.000 C 
ENDBRANCH  26  29
ENDBRANCH  25  26
ENDBRANCH  19  25
ENDBRANCH  16  22
ENDBRANCH   1  16
TORSDOF 7
ENDMDL
MODEL 3
REMARK VINA RESULT:      -7.5      1.514      2.011
REMARK  Name = 
REMARK  9 active torsions:
REMARK  status: ('A' for Active; 'I' for Inactive)
REMARK    1  A    between atoms: C_1  and  C_2
REMARK    2  A    between atoms: C_3  and  C_4
REMARK    3  A    between atoms: C_4  and  O_5
REMARK    4  A    between atoms: O_5  and  C_6
REMARK    5  A    between atoms: C_9  and  S_10
REMARK    6  A    between atoms: S_10  and  N_13
REMARK    7  A    between atoms: C_17  and  C_18
REMARK    8  A    between atoms: C_21  and  C_22
REMARK    9  A    between atoms: N_24  and  O_25
REMARK                            x       y       z     vdW  Elec       q    Type
REMARK                         _______ _______ _______ _____ _____    ______ ____
ROOT
ATOM      1  N   UNL     1       4.154   4.733  18.931  0.00  0.00    +0.000 NA
ATOM      2  C   UNL     1       4.658   3.471  18.280  0.00  0.00    +0.000 C 
ATOM      3  C   UNL     1       4.492   3.485  16.755  0.00  0.00    +0.000 C 
ATOM      4  N   UNL     1       4.901   4.796  16.160  0.00  0.00    +0.000 N 
ATOM      5  C   UNL     1       5.680   4.967  15.021  0.00  0.00    +0.000 C 
ATOM      6  C   UNL     1       6.231   3.776  14.283  0.00  0.00    +0.000 C 
ATOM      7  O   UNL     1       5.959   6.091  14.594  0.00  0.00    +0.000 OA
ATOM      8  C   UNL     1       4.598   6.058  16.898  0.00  0.00    +0.000 C 
ATOM      9  C   UNL     1       4.835   5.944  18.399  0.00  0.00    +0.000 C 
ENDROOT
BRANCH   9  10
ATOM     10  C   UNL     1       6.307   5.990  18.666  0.00  0.00    +0.000 C 
ATOM     11  O   UNL     1       7.128   6.639  17.965  0.00  0.00    +0.000 OA
ATOM     12  N   UNL     1       6.754   5.318  19.755  0.00  0.00    +0.000 N 
ATOM     13  H   UNL     1       6.209   4.648  20.294  0.00  0.00    +0.000 HD
BRANCH  12  14
ATOM     14  O   UNL     1       8.156   5.402  19.969  0.00  0.00    +0.000 OA
ATOM     15  H   UNL     1       8.325   4.556  20.452  0.00  0.00    +0.000 HD
ENDBRANCH  12  14
ENDBRANCH   9  10
BRANCH   1  16
ATOM     16  S   UNL     1       2.566   4.980  19.477  0.00  0.00    +0.000 S 
ATOM     17  O   UNL     1       2.586   4.550  20.888  0.00  0.00    +0.000 OA
ATOM     18  O   UNL     1       1.666   4.349  18.560  0.00  0.00    +0.000 OA
BRANCH  16  22
ATOM     19  C   UNL     1       1.245   9.408  19.511  0.00  0.00    +0.000 A 
ATOM     20  C   UNL     1       1.723   8.805  18.354  0.00  0.00    +0.000 A 
ATOM     21  C   UNL     1       2.054   7.442  18.301  0.00  0.00    +0.000 A 
ATOM     22  C   UNL     1       2.183   6.737  19.491  0.00  0.00    +0.000 A 
ATOM     23  C   UNL     1       1.814   7.391  20.676  0.00  0.00    +0.000 A 
ATOM     24  C   UNL     1       1.244   8.672  20.686  0.00  0.00    +0.000 A 
BRANCH  19  25
ATOM     25  O   UNL     1       0.806  10.704  19.537  0.00  0.00    +0.000 OA
BRANCH  25  26
ATOM     26  C   UNL     1       1.199  11.405  20.732  0.00  0.00    +0.000 C 
BRANCH  26  29
ATOM     27  C   UNL     1      -2.419  11.993  23.062  0.00  0.00    +0.000 C 
ATOM     28  C   UNL     1      -1.153  11.787  22.247  0.00  0.00    +0.000 C 
ATOM     29  C   UNL     1      -0.067  11.611  21.547  0.00  0.00    +0.000 C 
ENDBRANCH  26  29
ENDBRANCH  25  26
ENDBRANCH  19  25
ENDBRANCH  16  22
ENDBRANCH   1  16
TORSDOF 7
ENDMDL
MODEL 4
REMARK VINA RESULT:      -7.5      3.572      7.013
REMARK  Name = 
REMARK  9 active torsions:
REMARK  status: ('A' for Active; 'I' for Inactive)
REMARK    1  A    between atoms: C_1  and  C_2
REMARK    2  A    between atoms: C_3  and  C_4
REMARK    3  A    between atoms: C_4  and  O_5
REMARK    4  A    between atoms: O_5  and  C_6
REMARK    5  A    between atoms: C_9  and  S_10
REMARK    6  A    between atoms: S_10  and  N_13
REMARK    7  A    between atoms: C_17  and  C_18
REMARK    8  A    between atoms: C_21  and  C_22
REMARK    9  A    between atoms: N_24  and  O_25
REMARK                            x       y       z     vdW  Elec       q    Type
REMARK                         _______ _______ _______ _____ _____    ______ ____
ROOT
ATOM      1  N   UNL     1       3.728   5.100  17.562  0.00  0.00    +0.000 NA
ATOM      2  C   UNL     1       2.501   4.229  17.494  0.00  0.00    +0.000 C 
ATOM      3  C   UNL     1       2.479   3.152  18.588  0.00  0.00    +0.000 C 
ATOM      4  N   UNL     1       2.879   3.700  19.920  0.00  0.00    +0.000 N 
ATOM      5  C   UNL     1       2.244   3.447  21.131  0.00  0.00    +0.000 C 
ATOM      6  C   UNL     1       1.013   2.581  21.185  0.00  0.00    +0.000 C 
ATOM      7  O   UNL     1       2.653   3.934  22.188  0.00  0.00    +0.000 OA
ATOM      8  C   UNL     1       3.957   4.731  19.991  0.00  0.00    +0.000 C 
ATOM      9  C   UNL     1       3.861   5.773  18.883  0.00  0.00    +0.000 C 
ENDROOT
BRANCH   9  10
ATOM     10  C   UNL     1       2.750   6.725  19.203  0.00  0.00    +0.000 C 
ATOM     11  O   UNL     1       2.140   7.408  18.339  0.00  0.00    +0.000 OA
ATOM     12  N   UNL     1       2.371   6.810  20.501  0.00  0.00    +0.000 N 
ATOM     13  H   UNL     1       2.887   6.424  21.290  0.00  0.00    +0.000 HD
BRANCH  12  14
ATOM     14  O   UNL     1       1.307   7.719  20.750  0.00  0.00    +0.000 OA
ATOM     15  H   UNL     1       1.785   8.448  21.214  0.00  0.00    +0.000 HD
ENDBRANCH  12  14
ENDBRANCH   9  10
BRANCH   1  16
ATOM     16  S   UNL     1       5.193   4.785  16.764  0.00  0.00    +0.000 S 
ATOM     17  O   UNL     1       4.915   5.079  15.346  0.00  0.00    +0.000 OA
ATOM     18  O   UNL     1       5.643   3.479  17.139  0.00  0.00    +0.000 OA
BRANCH  16  22
ATOM     19  C   UNL     1       8.219   7.877  18.387  0.00  0.00    +0.000 A 
ATOM     20  C   UNL     1       7.364   8.185  17.335  0.00  0.00    +0.000 A 
ATOM     21  C   UNL     1       6.385   7.290  16.879  0.00  0.00    +0.000 A 
ATOM     22  C   UNL     1       6.448   5.963  17.286  0.00  0.00    +0.000 A 
ATOM     23  C   UNL     1       7.396   5.629  18.263  0.00  0.00    +0.000 A 
ATOM     24  C   UNL     1       8.201   6.587  18.895  0.00  0.00    +0.000 A 
BRANCH  19  25
ATOM     25  O   UNL     1       9.093   8.789  18.915  0.00  0.00    +0.000 OA
BRANCH  25  26
ATOM     26  C   UNL     1       8.600  10.140  18.851  0.00  0.00    +0.000 C 
BRANCH  26  29
ATOM     27  C   UNL     1      11.910  12.594  17.475  0.00  0.00    +0.000 C 
ATOM     28  C   UNL     1      10.752  11.735  17.956  0.00  0.00    +0.000 C 
ATOM     29  C   UNL     1       9.759  10.998  18.370  0.00  0.00    +0.000 C 
ENDBRANCH  26  29
ENDBRANCH  25  26
ENDBRANCH  19  25
ENDBRANCH  16  22
ENDBRANCH   1  16
TORSDOF 7
ENDMDL
MODEL 5
REMARK VINA RESULT:      -7.4      1.491      1.899
REMARK  Name = 
REMARK  9 active torsions:
REMARK  status: ('A' for Active; 'I' for Inactive)
REMARK    1  A    between atoms: C_1  and  C_2
REMARK    2  A    between atoms: C_3  and  C_4
REMARK    3  A    between atoms: C_4  and  O_5
REMARK    4  A    between atoms: O_5  and  C_6
REMARK    5  A    between atoms: C_9  and  S_10
REMARK    6  A    between atoms: S_10  and  N_13
REMARK    7  A    between atoms: C_17  and  C_18
REMARK    8  A    between atoms: C_21  and  C_22
REMARK    9  A    between atoms: N_24  and  O_25
REMARK                            x       y       z     vdW  Elec       q    Type
REMARK                         _______ _______ _______ _____ _____    ______ ____
ROOT
ATOM      1  N   UNL     1       4.176   4.777  18.909  0.00  0.00    +0.000 NA
ATOM      2  C   UNL     1       4.664   3.501  18.275  0.00  0.00    +0.000 C 
ATOM      3  C   UNL     1       4.500   3.497  16.749  0.00  0.00    +0.000 C 
ATOM      4  N   UNL     1       4.928   4.794  16.138  0.00  0.00    +0.000 N 
ATOM      5  C   UNL     1       5.711   4.940  14.998  0.00  0.00    +0.000 C 
ATOM      6  C   UNL     1       6.246   3.731  14.276  0.00  0.00    +0.000 C 
ATOM      7  O   UNL     1       6.006   6.053  14.556  0.00  0.00    +0.000 OA
ATOM      8  C   UNL     1       4.641   6.069  16.858  0.00  0.00    +0.000 C 
ATOM      9  C   UNL     1       4.874   5.973  18.361  0.00  0.00    +0.000 C 
ENDROOT
BRANCH   9  10
ATOM     10  C   UNL     1       6.347   6.002  18.630  0.00  0.00    +0.000 C 
ATOM     11  O   UNL     1       7.180   6.614  17.911  0.00  0.00    +0.000 OA
ATOM     12  N   UNL     1       6.780   5.357  19.740  0.00  0.00    +0.000 N 
ATOM     13  H   UNL     1       6.223   4.713  20.299  0.00  0.00    +0.000 HD
BRANCH  12  14
ATOM     14  O   UNL     1       8.183   5.423  19.955  0.00  0.00    +0.000 OA
ATOM     15  H   UNL     1       8.495   5.749  19.076  0.00  0.00    +0.000 HD
ENDBRANCH  12  14
ENDBRANCH   9  10
BRANCH   1  16
ATOM     16  S   UNL     1       2.591   5.054  19.449  0.00  0.00    +0.000 S 
ATOM     17  O   UNL     1       2.610   4.669  20.872  0.00  0.00    +0.000 OA
ATOM     18  O   UNL     1       1.685   4.399  18.553  0.00  0.00    +0.000 OA
BRANCH  16  22
ATOM     19  C   UNL     1       1.301   9.490  19.337  0.00  0.00    +0.000 A 
ATOM     20  C   UNL     1       1.787   8.849  18.203  0.00  0.00    +0.000 A 
ATOM     21  C   UNL     1       2.110   7.483  18.195  0.00  0.00    +0.000 A 
ATOM     22  C   UNL     1       2.221   6.813  19.407  0.00  0.00    +0.000 A 
ATOM     23  C   UNL     1       1.844   7.504  20.567  0.00  0.00    +0.000 A 
ATOM     24  C   UNL     1       1.282   8.788  20.533  0.00  0.00    +0.000 A 
BRANCH  19  25
ATOM     25  O   UNL     1       0.871  10.789  19.320  0.00  0.00    +0.000 OA
BRANCH  25  26
ATOM     26  C   UNL     1       1.760  11.663  18.598  0.00  0.00    +0.000 C 
BRANCH  26  29
ATOM     27  C   UNL     1       0.023  15.638  18.819  0.00  0.00    +0.000 C 
ATOM     28  C   UNL     1       0.630  14.247  18.742  0.00  0.00    +0.000 C 
ATOM     29  C   UNL     1       1.151  13.054  18.676  0.00  0.00    +0.000 C 
ENDBRANCH  26  29
ENDBRANCH  25  26
ENDBRANCH  19  25
ENDBRANCH  16  22
ENDBRANCH   1  16
TORSDOF 7
ENDMDL
MODEL 6
REMARK VINA RESULT:      -7.4      1.039      1.150
REMARK  Name = 
REMARK  9 active torsions:
REMARK  status: ('A' for Active; 'I' for Inactive)
REMARK    1  A    between atoms: C_1  and  C_2
REMARK    2  A    between atoms: C_3  and  C_4
REMARK    3  A    between atoms: C_4  and  O_5
REMARK    4  A    between atoms: O_5  and  C_6
REMARK    5  A    between atoms: C_9  and  S_10
REMARK    6  A    between atoms: S_10  and  N_13
REMARK    7  A    between atoms: C_17  and  C_18
REMARK    8  A    between atoms: C_21  and  C_22
REMARK    9  A    between atoms: N_24  and  O_25
REMARK                            x       y       z     vdW  Elec       q    Type
REMARK                         _______ _______ _______ _____ _____    ______ ____
ROOT
ATOM      1  N   UNL     1       4.125   4.681  18.904  0.00  0.00    +0.000 NA
ATOM      2  C   UNL     1       4.633   3.425  18.245  0.00  0.00    +0.000 C 
ATOM      3  C   UNL     1       4.481   3.454  16.718  0.00  0.00    +0.000 C 
ATOM      4  N   UNL     1       4.896   4.769  16.140  0.00  0.00    +0.000 N 
ATOM      5  C   UNL     1       5.685   4.951  15.009  0.00  0.00    +0.000 C 
ATOM      6  C   UNL     1       6.241   3.766  14.264  0.00  0.00    +0.000 C 
ATOM      7  O   UNL     1       5.968   6.078  14.595  0.00  0.00    +0.000 OA
ATOM      8  C   UNL     1       4.587   6.024  16.886  0.00  0.00    +0.000 C 
ATOM      9  C   UNL     1       4.811   5.897  18.388  0.00  0.00    +0.000 C 
ENDROOT
BRANCH   9  10
ATOM     10  C   UNL     1       6.281   5.939  18.668  0.00  0.00    +0.000 C 
ATOM     11  O   UNL     1       7.115   6.553  17.952  0.00  0.00    +0.000 OA
ATOM     12  N   UNL     1       6.711   5.305  19.786  0.00  0.00    +0.000 N 
ATOM     13  H   UNL     1       6.154   4.660  20.345  0.00  0.00    +0.000 HD
BRANCH  12  14
ATOM     14  O   UNL     1       8.111   5.384  20.012  0.00  0.00    +0.000 OA
ATOM     15  H   UNL     1       8.244   4.638  20.646  0.00  0.00    +0.000 HD
ENDBRANCH  12  14
ENDBRANCH   9  10
BRANCH   1  16
ATOM     16  S   UNL     1       2.532   4.924  19.439  0.00  0.00    +0.000 S 
ATOM     17  O   UNL     1       2.516   4.392  20.813  0.00  0.00    +0.000 OA
ATOM     18  O   UNL     1       1.637   4.382  18.461  0.00  0.00    +0.000 OA
BRANCH  16  22
ATOM     19  C   UNL     1       1.307   9.366  19.785  0.00  0.00    +0.000 A 
ATOM     20  C   UNL     1       1.757   8.832  18.584  0.00  0.00    +0.000 A 
ATOM     21  C   UNL     1       2.058   7.469  18.436  0.00  0.00    +0.000 A 
ATOM     22  C   UNL     1       2.188   6.684  19.575  0.00  0.00    +0.000 A 
ATOM     23  C   UNL     1       1.849   7.265  20.805  0.00  0.00    +0.000 A 
ATOM     24  C   UNL     1       1.306   8.553  20.909  0.00  0.00    +0.000 A 
BRANCH  19  25
ATOM     25  O   UNL     1       0.897  10.667  19.904  0.00  0.00    +0.000 OA
BRANCH  25  26
ATOM     26  C   UNL     1       0.346  11.194  18.683  0.00  0.00    +0.000 C 
BRANCH  26  29
ATOM     27  C   UNL     1      -3.763  12.295  19.563  0.00  0.00    +0.000 C 
ATOM     28  C   UNL     1      -2.325  11.909  19.255  0.00  0.00    +0.000 C 
ATOM     29  C   UNL     1      -1.092  11.579  18.990  0.00  0.00    +0.000 C 
ENDBRANCH  26  29
ENDBRANCH  25  26
ENDBRANCH  19  25
ENDBRANCH  16  22
ENDBRANCH   1  16
TORSDOF 7
ENDMDL
MODEL 7
REMARK VINA RESULT:      -7.3      3.492      7.095
REMARK  Name = 
REMARK  9 active torsions:
REMARK  status: ('A' for Active; 'I' for Inactive)
REMARK    1  A    between atoms: C_1  and  C_2
REMARK    2  A    between atoms: C_3  and  C_4
REMARK    3  A    between atoms: C_4  and  O_5
REMARK    4  A    between atoms: O_5  and  C_6
REMARK    5  A    between atoms: C_9  and  S_10
REMARK    6  A    between atoms: S_10  and  N_13
REMARK    7  A    between atoms: C_17  and  C_18
REMARK    8  A    between atoms: C_21  and  C_22
REMARK    9  A    between atoms: N_24  and  O_25
REMARK                            x       y       z     vdW  Elec       q    Type
REMARK                         _______ _______ _______ _____ _____    ______ ____
ROOT
ATOM      1  N   UNL     1       4.921   5.741  18.150  0.00  0.00    +0.000 NA
ATOM      2  C   UNL     1       3.957   6.225  19.201  0.00  0.00    +0.000 C 
ATOM      3  C   UNL     1       2.513   5.782  18.929  0.00  0.00    +0.000 C 
ATOM      4  N   UNL     1       2.438   4.347  18.515  0.00  0.00    +0.000 N 
ATOM      5  C   UNL     1       1.523   3.409  18.981  0.00  0.00    +0.000 C 
ATOM      6  C   UNL     1       0.506   3.785  20.026  0.00  0.00    +0.000 C 
ATOM      7  O   UNL     1       1.526   2.245  18.571  0.00  0.00    +0.000 OA
ATOM      8  C   UNL     1       3.507   3.784  17.638  0.00  0.00    +0.000 C 
ATOM      9  C   UNL     1       4.905   4.258  18.020  0.00  0.00    +0.000 C 
ENDROOT
BRANCH   9  10
ATOM     10  C   UNL     1       5.348   3.528  19.250  0.00  0.00    +0.000 C 
ATOM     11  O   UNL     1       6.098   4.026  20.130  0.00  0.00    +0.000 OA
ATOM     12  N   UNL     1       4.869   2.272  19.424  0.00  0.00    +0.000 N 
ATOM     13  H   UNL     1       4.386   1.725  18.713  0.00  0.00    +0.000 HD
BRANCH  12  14
ATOM     14  O   UNL     1       5.311   1.627  20.610  0.00  0.00    +0.000 OA
ATOM     15  H   UNL     1       6.266   1.882  20.621  0.00  0.00    +0.000 HD
ENDBRANCH  12  14
ENDBRANCH   9  10
BRANCH   1  16
ATOM     16  S   UNL     1       5.321   6.582  16.731  0.00  0.00    +0.000 S 
ATOM     17  O   UNL     1       6.574   7.288  17.058  0.00  0.00    +0.000 OA
ATOM     18  O   UNL     1       4.177   7.334  16.311  0.00  0.00    +0.000 OA
BRANCH  16  22
ATOM     19  C   UNL     1       6.325   3.870  13.127  0.00  0.00    +0.000 A 
ATOM     20  C   UNL     1       5.071   3.843  13.725  0.00  0.00    +0.000 A 
ATOM     21  C   UNL     1       4.720   4.714  14.769  0.00  0.00    +0.000 A 
ATOM     22  C   UNL     1       5.723   5.423  15.416  0.00  0.00    +0.000 A 
ATOM     23  C   UNL     1       7.017   5.353  14.881  0.00  0.00    +0.000 A 
ATOM     24  C   UNL     1       7.304   4.678  13.686  0.00  0.00    +0.000 A 
BRANCH  19  25
ATOM     25  O   UNL     1       6.634   3.110  12.032  0.00  0.00    +0.000 OA
BRANCH  25  26
ATOM     26  C   UNL     1       5.589   2.184  11.680  0.00  0.00    +0.000 C 
BRANCH  26  29
ATOM     27  C   UNL     1       2.612   4.465   9.489  0.00  0.00    +0.000 C 
ATOM     28  C   UNL     1       3.654   3.666  10.255  0.00  0.00    +0.000 C 
ATOM     29  C   UNL     1       4.548   2.982  10.913  0.00  0.00    +0.000 C 
ENDBRANCH  26  29
ENDBRANCH  25  26
ENDBRANCH  19  25
ENDBRANCH  16  22
ENDBRANCH   1  16
TORSDOF 7
ENDMDL
MODEL 8
REMARK VINA RESULT:      -7.3      3.834      7.183
REMARK  Name = 
REMARK  9 active torsions:
REMARK  status: ('A' for Active; 'I' for Inactive)
REMARK    1  A    between atoms: C_1  and  C_2
REMARK    2  A    between atoms: C_3  and  C_4
REMARK    3  A    between atoms: C_4  and  O_5
REMARK    4  A    between atoms: O_5  and  C_6
REMARK    5  A    between atoms: C_9  and  S_10
REMARK    6  A    between atoms: S_10  and  N_13
REMARK    7  A    between atoms: C_17  and  C_18
REMARK    8  A    between atoms: C_21  and  C_22
REMARK    9  A    between atoms: N_24  and  O_25
REMARK                            x       y       z     vdW  Elec       q    Type
REMARK                         _______ _______ _______ _____ _____    ______ ____
ROOT
ATOM      1  N   UNL     1       4.472   5.095  17.853  0.00  0.00    +0.000 NA
ATOM      2  C   UNL     1       3.438   4.348  17.052  0.00  0.00    +0.000 C 
ATOM      3  C   UNL     1       2.900   3.112  17.786  0.00  0.00    +0.000 C 
ATOM      4  N   UNL     1       2.602   3.401  19.223  0.00  0.00    +0.000 N 
ATOM      5  C   UNL     1       1.464   3.005  19.917  0.00  0.00    +0.000 C 
ATOM      6  C   UNL     1       0.368   2.243  19.219  0.00  0.00    +0.000 C 
ATOM      7  O   UNL     1       1.308   3.278  21.110  0.00  0.00    +0.000 OA
ATOM      8  C   UNL     1       3.503   4.316  19.985  0.00  0.00    +0.000 C 
ATOM      9  C   UNL     1       3.945   5.530  19.175  0.00  0.00    +0.000 C 
ENDROOT
BRANCH   9  10
ATOM     10  C   UNL     1       2.810   6.503  19.095  0.00  0.00    +0.000 C 
ATOM     11  O   UNL     1       1.832   6.508  19.888  0.00  0.00    +0.000 OA
ATOM     12  N   UNL     1       2.881   7.450  18.128  0.00  0.00    +0.000 N 
ATOM     13  H   UNL     1       3.539   7.446  17.351  0.00  0.00    +0.000 HD
BRANCH  12  14
ATOM     14  O   UNL     1       1.786   8.354  18.102  0.00  0.00    +0.000 OA
ATOM     15  H   UNL     1       1.611   8.414  17.131  0.00  0.00    +0.000 HD
ENDBRANCH  12  14
ENDBRANCH   9  10
BRANCH   1  16
ATOM     16  S   UNL     1       6.143   4.798  17.806  0.00  0.00    +0.000 S 
ATOM     17  O   UNL     1       6.380   4.215  16.473  0.00  0.00    +0.000 OA
ATOM     18  O   UNL     1       6.505   4.055  18.976  0.00  0.00    +0.000 OA
BRANCH  16  22
ATOM     19  C   UNL     1       8.276   8.879  18.185  0.00  0.00    +0.000 A 
ATOM     20  C   UNL     1       7.317   8.653  17.205  0.00  0.00    +0.000 A 
ATOM     21  C   UNL     1       6.601   7.449  17.121  0.00  0.00    +0.000 A 
ATOM     22  C   UNL     1       7.048   6.351  17.846  0.00  0.00    +0.000 A 
ATOM     23  C   UNL     1       8.100   6.555  18.750  0.00  0.00    +0.000 A 
ATOM     24  C   UNL     1       8.640   7.823  19.007  0.00  0.00    +0.000 A 
BRANCH  19  25
ATOM     25  O   UNL     1       8.891  10.091  18.347  0.00  0.00    +0.000 OA
BRANCH  25  26
ATOM     26  C   UNL     1       9.419  10.279  19.673  0.00  0.00    +0.000 C 
BRANCH  26  29
ATOM     27  C   UNL     1      12.332  13.489  19.397  0.00  0.00    +0.000 C 
ATOM     28  C   UNL     1      11.312  12.366  19.493  0.00  0.00    +0.000 C 
ATOM     29  C   UNL     1      10.438  11.402  19.576  0.00  0.00    +0.000 C 
ENDBRANCH  26  29
ENDBRANCH  25  26
ENDBRANCH  19  25
ENDBRANCH  16  22
ENDBRANCH   1  16
TORSDOF 7
ENDMDL
MODEL 9
REMARK VINA RESULT:      -7.3      3.683      7.041
REMARK  Name = 
REMARK  9 active torsions:
REMARK  status: ('A' for Active; 'I' for Inactive)
REMARK    1  A    between atoms: C_1  and  C_2
REMARK    2  A    between atoms: C_3  and  C_4
REMARK    3  A    between atoms: C_4  and  O_5
REMARK    4  A    between atoms: O_5  and  C_6
REMARK    5  A    between atoms: C_9  and  S_10
REMARK    6  A    between atoms: S_10  and  N_13
REMARK    7  A    between atoms: C_17  and  C_18
REMARK    8  A    between atoms: C_21  and  C_22
REMARK    9  A    between atoms: N_24  and  O_25
REMARK                            x       y       z     vdW  Elec       q    Type
REMARK                         _______ _______ _______ _____ _____    ______ ____
ROOT
ATOM      1  N   UNL     1       3.800   5.406  17.587  0.00  0.00    +0.000 NA
ATOM      2  C   UNL     1       2.649   4.460  17.365  0.00  0.00    +0.000 C 
ATOM      3  C   UNL     1       2.627   3.305  18.376  0.00  0.00    +0.000 C 
ATOM      4  N   UNL     1       2.889   3.779  19.771  0.00  0.00    +0.000 N 
ATOM      5  C   UNL     1       2.189   3.394  20.909  0.00  0.00    +0.000 C 
ATOM      6  C   UNL     1       1.025   2.444  20.807  0.00  0.00    +0.000 C 
ATOM      7  O   UNL     1       2.484   3.828  22.026  0.00  0.00    +0.000 OA
ATOM      8  C   UNL     1       3.880   4.873  19.996  0.00  0.00    +0.000 C 
ATOM      9  C   UNL     1       3.787   5.986  18.958  0.00  0.00    +0.000 C 
ENDROOT
BRANCH   9  10
ATOM     10  C   UNL     1       2.589   6.833  19.257  0.00  0.00    +0.000 C 
ATOM     11  O   UNL     1       1.942   7.467  18.382  0.00  0.00    +0.000 OA
ATOM     12  N   UNL     1       2.172   6.872  20.546  0.00  0.00    +0.000 N 
ATOM     13  H   UNL     1       2.701   6.526  21.344  0.00  0.00    +0.000 HD
BRANCH  12  14
ATOM     14  O   UNL     1       1.026   7.681  20.774  0.00  0.00    +0.000 OA
ATOM     15  H   UNL     1       0.305   7.078  20.469  0.00  0.00    +0.000 HD
ENDBRANCH  12  14
ENDBRANCH   9  10
BRANCH   1  16
ATOM     16  S   UNL     1       5.337   5.252  16.885  0.00  0.00    +0.000 S 
ATOM     17  O   UNL     1       5.148   5.667  15.482  0.00  0.00    +0.000 OA
ATOM     18  O   UNL     1       5.839   3.942  17.172  0.00  0.00    +0.000 OA
BRANCH  16  22
ATOM     19  C   UNL     1       8.463   8.255  18.484  0.00  0.00    +0.000 A 
ATOM     20  C   UNL     1       8.346   6.979  19.021  0.00  0.00    +0.000 A 
ATOM     21  C   UNL     1       7.459   6.025  18.499  0.00  0.00    +0.000 A 
ATOM     22  C   UNL     1       6.472   6.441  17.614  0.00  0.00    +0.000 A 
ATOM     23  C   UNL     1       6.521   7.768  17.165  0.00  0.00    +0.000 A 
ATOM     24  C   UNL     1       7.565   8.642  17.501  0.00  0.00    +0.000 A 
BRANCH  19  25
ATOM     25  O   UNL     1       9.410   9.148  18.909  0.00  0.00    +0.000 OA
BRANCH  25  26
ATOM     26  C   UNL     1       8.890  10.482  19.068  0.00  0.00    +0.000 C 
BRANCH  26  29
ATOM     27  C   UNL     1      11.523  13.104  16.820  0.00  0.00    +0.000 C 
ATOM     28  C   UNL     1      10.602  12.186  17.607  0.00  0.00    +0.000 C 
ATOM     29  C   UNL     1       9.812  11.399  18.282  0.00  0.00    +0.000 C 
ENDBRANCH  26  29
ENDBRANCH  25  26
ENDBRANCH  19  25
ENDBRANCH  16  22
ENDBRANCH   1  16
TORSDOF 7
ENDMDL
