MODEL 1
REMARK VINA RESULT:      -7.7      0.000      0.000
REMARK  Name = 
REMARK  13 active torsions:
REMARK  status: ('A' for Active; 'I' for Inactive)
REMARK    1  A    between atoms: C_1  and  O_2
REMARK    2  A    between atoms: O_2  and  C_3
REMARK    3  A    between atoms: C_3  and  C_4
REMARK    4  A    between atoms: N_6  and  C_7
REMARK    5  A    between atoms: C_9  and  C_10
REMARK    6  A    between atoms: N_12  and  C_13
REMARK    7  A    between atoms: N_12  and  C_14
REMARK    8  A    between atoms: C_14  and  C_15
REMARK    9  A    between atoms: C_15  and  C_16
REMARK   10  A    between atoms: C_15  and  C_17
REMARK   11  A    between atoms: N_23  and  C_24
REMARK   12  A    between atoms: C_24  and  C_25
REMARK   13  A    between atoms: C_25  and  C_26
REMARK                            x       y       z     vdW  Elec       q    Type
REMARK                         _______ _______ _______ _____ _____    ______ ____
ROOT
ATOM      1  C   UNL     1       5.962   3.935  14.800  0.00  0.00    +0.000 A 
ATOM      2  C   UNL     1       4.874   3.459  15.528  0.00  0.00    +0.000 A 
ATOM      3  C   UNL     1       4.292   4.147  16.639  0.00  0.00    +0.000 A 
ATOM      4  C   UNL     1       4.853   5.428  16.946  0.00  0.00    +0.000 A 
ATOM      5  C   UNL     1       5.992   5.863  16.216  0.00  0.00    +0.000 A 
ATOM      6  C   UNL     1       6.573   5.108  15.186  0.00  0.00    +0.000 A 
ATOM      7  N   UNL     1       6.454   7.081  16.617  0.00  0.00    +0.000 NA
ATOM      8  C   UNL     1       5.642   7.439  17.566  0.00  0.00    +0.000 A 
ATOM      9  N   UNL     1       4.686   6.489  17.835  0.00  0.00    +0.000 N 
ENDROOT
BRANCH   1  12
ATOM     10  C   UNL     1       5.783   3.172  12.491  0.00  0.00    +0.000 C 
ATOM     11  O   UNL     1       4.716   3.732  12.258  0.00  0.00    +0.000 OA
ATOM     12  N   UNL     1       6.477   3.244  13.689  0.00  0.00    +0.000 N 
ATOM     13  H   UNL     1       7.479   3.091  13.643  0.00  0.00    +0.000 HD
BRANCH  10  14
ATOM     14  C   UNL     1       6.457   2.301  11.440  0.00  0.00    +0.000 C 
BRANCH  14  16
ATOM     15  C   UNL     1       6.264  -0.044  11.303  0.00  0.00    +0.000 C 
ATOM     16  O   UNL     1       5.645   1.212  11.022  0.00  0.00    +0.000 OA
ENDBRANCH  14  16
ENDBRANCH  10  14
ENDBRANCH   1  12
BRANCH   3  17
ATOM     17  C   UNL     1       3.344   3.263  17.384  0.00  0.00    +0.000 C 
ATOM     18  O   UNL     1       2.285   3.025  16.794  0.00  0.00    +0.000 OA
ATOM     19  N   UNL     1       3.520   2.857  18.709  0.00  0.00    +0.000 N 
ATOM     20  C   UNL     1       4.734   3.009  19.465  0.00  0.00    +0.000 C 
BRANCH  19  21
ATOM     21  C   UNL     1       2.347   2.406  19.481  0.00  0.00    +0.000 C 
BRANCH  21  22
ATOM     22  C   UNL     1       2.003   3.341  20.663  0.00  0.00    +0.000 C 
ATOM     23  C   UNL     1       1.001   4.425  20.263  0.00  0.00    +0.000 C 
ATOM     24  C   UNL     1       1.451   2.537  21.842  0.00  0.00    +0.000 C 
ENDBRANCH  21  22
ENDBRANCH  19  21
ENDBRANCH   3  17
BRANCH   9  25
ATOM     25  C   UNL     1       3.712   6.777  18.877  0.00  0.00    +0.000 C 
BRANCH  25  26
ATOM     26  C   UNL     1       2.482   7.494  18.356  0.00  0.00    +0.000 C 
BRANCH  26  27
ATOM     27  C   UNL     1       1.713   8.376  19.309  0.00  0.00    +0.000 A 
ATOM     28  C   UNL     1       1.477   8.096  20.660  0.00  0.00    +0.000 A 
ATOM     29  C   UNL     1       0.715   8.978  21.436  0.00  0.00    +0.000 A 
ATOM     30  C   UNL     1       0.181  10.139  20.876  0.00  0.00    +0.000 A 
ATOM     31  C   UNL     1       0.416  10.429  19.539  0.00  0.00    +0.000 A 
ATOM     32  C   UNL     1       1.175   9.555  18.767  0.00  0.00    +0.000 A 
ENDBRANCH  26  27
ENDBRANCH  25  26
ENDBRANCH   9  25
TORSDOF 9
ENDMDL
MODEL 2
REMARK VINA RESULT:      -6.8      4.602      7.712
REMARK  Name = 
REMARK  13 active torsions:
REMARK  status: ('A' for Active; 'I' for Inactive)
REMARK    1  A    between atoms: C_1  and  O_2
REMARK    2  A    between atoms: O_2  and  C_3
REMARK    3  A    between atoms: C_3  and  C_4
REMARK    4  A    between atoms: N_6  and  C_7
REMARK    5  A    between atoms: C_9  and  C_10
REMARK    6  A    between atoms: N_12  and  C_13
REMARK    7  A    between atoms: N_12  and  C_14
REMARK    8  A    between atoms: C_14  and  C_15
REMARK    9  A    between atoms: C_15  and  C_16
REMARK   10  A    between atoms: C_15  and  C_17
REMARK   11  A    between atoms: N_23  and  C_24
REMARK   12  A    between atoms: C_24  and  C_25
REMARK   13  A    between atoms: C_25  and  C_26
REMARK                            x       y       z     vdW  Elec       q    Type
REMARK                         _______ _______ _______ _____ _____    ______ ____
ROOT
ATOM      1  C   UNL     1       2.124   6.478  20.492  0.00  0.00    +0.000 A 
ATOM      2  C   UNL     1       1.183   7.209  21.214  0.00  0.00    +0.000 A 
ATOM      3  C   UNL     1       0.657   8.471  20.797  0.00  0.00    +0.000 A 
ATOM      4  C   UNL     1       1.104   8.945  19.522  0.00  0.00    +0.000 A 
ATOM      5  C   UNL     1       2.099   8.201  18.832  0.00  0.00    +0.000 A 
ATOM      6  C   UNL     1       2.641   7.007  19.329  0.00  0.00    +0.000 A 
ATOM      7  N   UNL     1       2.466   8.766  17.647  0.00  0.00    +0.000 NA
ATOM      8  C   UNL     1       1.731   9.833  17.554  0.00  0.00    +0.000 A 
ATOM      9  N   UNL     1       0.921  10.018  18.650  0.00  0.00    +0.000 N 
ENDROOT
BRANCH   1  12
ATOM     10  C   UNL     1       1.878   4.058  20.655  0.00  0.00    +0.000 C 
ATOM     11  O   UNL     1       0.848   3.993  19.991  0.00  0.00    +0.000 OA
ATOM     12  N   UNL     1       2.585   5.221  20.920  0.00  0.00    +0.000 N 
ATOM     13  H   UNL     1       3.573   5.116  21.119  0.00  0.00    +0.000 HD
BRANCH  10  14
ATOM     14  C   UNL     1       2.486   2.812  21.284  0.00  0.00    +0.000 C 
BRANCH  14  16
ATOM     15  C   UNL     1       3.578   2.005  19.357  0.00  0.00    +0.000 C 
ATOM     16  O   UNL     1       3.733   2.453  20.704  0.00  0.00    +0.000 OA
ENDBRANCH  14  16
ENDBRANCH  10  14
ENDBRANCH   1  12
BRANCH   3  17
ATOM     17  C   UNL     1      -0.099   9.133  21.904  0.00  0.00    +0.000 C 
ATOM     18  O   UNL     1      -0.965   8.429  22.435  0.00  0.00    +0.000 OA
ATOM     19  N   UNL     1       0.008  10.487  22.232  0.00  0.00    +0.000 N 
ATOM     20  C   UNL     1       1.024  11.378  21.739  0.00  0.00    +0.000 C 
BRANCH  19  21
ATOM     21  C   UNL     1      -1.085  11.128  22.987  0.00  0.00    +0.000 C 
BRANCH  21  22
ATOM     22  C   UNL     1      -1.520  12.485  22.387  0.00  0.00    +0.000 C 
ATOM     23  C   UNL     1      -2.961  12.448  21.873  0.00  0.00    +0.000 C 
ATOM     24  C   UNL     1      -1.369  13.604  23.419  0.00  0.00    +0.000 C 
ENDBRANCH  21  22
ENDBRANCH  19  21
ENDBRANCH   3  17
BRANCH   9  25
ATOM     25  C   UNL     1       0.044  11.178  18.662  0.00  0.00    +0.000 C 
BRANCH  25  26
ATOM     26  C   UNL     1      -1.404  10.824  18.936  0.00  0.00    +0.000 C 
BRANCH  26  27
ATOM     27  C   UNL     1      -2.368  10.814  17.775  0.00  0.00    +0.000 A 
ATOM     28  C   UNL     1      -3.552  11.556  17.698  0.00  0.00    +0.000 A 
ATOM     29  C   UNL     1      -4.386  11.434  16.580  0.00  0.00    +0.000 A 
ATOM     30  C   UNL     1      -4.052  10.573  15.535  0.00  0.00    +0.000 A 
ATOM     31  C   UNL     1      -2.876   9.838  15.598  0.00  0.00    +0.000 A 
ATOM     32  C   UNL     1      -2.045   9.960  16.707  0.00  0.00    +0.000 A 
ENDBRANCH  26  27
ENDBRANCH  25  26
ENDBRANCH   9  25
TORSDOF 9
ENDMDL
MODEL 3
REMARK VINA RESULT:      -6.7      0.932      1.304
REMARK  Name = 
REMARK  13 active torsions:
REMARK  status: ('A' for Active; 'I' for Inactive)
REMARK    1  A    between atoms: C_1  and  O_2
REMARK    2  A    between atoms: O_2  and  C_3
REMARK    3  A    between atoms: C_3  and  C_4
REMARK    4  A    between atoms: N_6  and  C_7
REMARK    5  A    between atoms: C_9  and  C_10
REMARK    6  A    between atoms: N_12  and  C_13
REMARK    7  A    between atoms: N_12  and  C_14
REMARK    8  A    between atoms: C_14  and  C_15
REMARK    9  A    between atoms: C_15  and  C_16
REMARK   10  A    between atoms: C_15  and  C_17
REMARK   11  A    between atoms: N_23  and  C_24
REMARK   12  A    between atoms: C_24  and  C_25
REMARK   13  A    between atoms: C_25  and  C_26
REMARK                            x       y       z     vdW  Elec       q    Type
REMARK                         _______ _______ _______ _____ _____    ______ ____
ROOT
ATOM      1  C   UNL     1       5.841   3.946  14.590  0.00  0.00    +0.000 A 
ATOM      2  C   UNL     1       4.776   3.509  15.375  0.00  0.00    +0.000 A 
ATOM      3  C   UNL     1       4.403   4.103  16.621  0.00  0.00    +0.000 A 
ATOM      4  C   UNL     1       5.155   5.255  17.016  0.00  0.00    +0.000 A 
ATOM      5  C   UNL     1       6.265   5.647  16.219  0.00  0.00    +0.000 A 
ATOM      6  C   UNL     1       6.637   4.975  15.045  0.00  0.00    +0.000 A 
ATOM      7  N   UNL     1       6.921   6.735  16.711  0.00  0.00    +0.000 NA
ATOM      8  C   UNL     1       6.262   7.055  17.783  0.00  0.00    +0.000 A 
ATOM      9  N   UNL     1       5.219   6.197  18.042  0.00  0.00    +0.000 N 
ENDROOT
BRANCH   1  12
ATOM     10  C   UNL     1       7.015   3.961  12.454  0.00  0.00    +0.000 C 
ATOM     11  O   UNL     1       7.633   5.001  12.659  0.00  0.00    +0.000 OA
ATOM     12  N   UNL     1       6.148   3.357  13.351  0.00  0.00    +0.000 N 
ATOM     13  H   UNL     1       6.015   2.357  13.251  0.00  0.00    +0.000 HD
BRANCH  10  14
ATOM     14  C   UNL     1       7.146   3.220  11.130  0.00  0.00    +0.000 C 
BRANCH  14  16
ATOM     15  C   UNL     1       6.454   0.975  10.942  0.00  0.00    +0.000 C 
ATOM     16  O   UNL     1       7.519   1.859  11.294  0.00  0.00    +0.000 OA
ENDBRANCH  14  16
ENDBRANCH  10  14
ENDBRANCH   1  12
BRANCH   3  17
ATOM     17  C   UNL     1       3.423   3.244  17.356  0.00  0.00    +0.000 C 
ATOM     18  O   UNL     1       2.333   3.103  16.792  0.00  0.00    +0.000 OA
ATOM     19  N   UNL     1       3.615   2.765  18.654  0.00  0.00    +0.000 N 
ATOM     20  C   UNL     1       4.859   2.803  19.374  0.00  0.00    +0.000 C 
BRANCH  19  21
ATOM     21  C   UNL     1       2.439   2.350  19.443  0.00  0.00    +0.000 C 
BRANCH  21  22
ATOM     22  C   UNL     1       2.071   3.358  20.556  0.00  0.00    +0.000 C 
ATOM     23  C   UNL     1       0.822   4.168  20.206  0.00  0.00    +0.000 C 
ATOM     24  C   UNL     1       1.862   2.636  21.888  0.00  0.00    +0.000 C 
ENDBRANCH  21  22
ENDBRANCH  19  21
ENDBRANCH   3  17
BRANCH   9  25
ATOM     25  C   UNL     1       4.399   6.455  19.216  0.00  0.00    +0.000 C 
BRANCH  25  26
ATOM     26  C   UNL     1       2.915   6.483  18.907  0.00  0.00    +0.000 C 
BRANCH  26  27
ATOM     27  C   UNL     1       2.181   7.794  19.052  0.00  0.00    +0.000 A 
ATOM     28  C   UNL     1       2.019   8.747  18.040  0.00  0.00    +0.000 A 
ATOM     29  C   UNL     1       1.348   9.946  18.307  0.00  0.00    +0.000 A 
ATOM     30  C   UNL     1       0.837  10.208  19.578  0.00  0.00    +0.000 A 
ATOM     31  C   UNL     1       0.987   9.266  20.587  0.00  0.00    +0.000 A 
ATOM     32  C   UNL     1       1.651   8.072  20.323  0.00  0.00    +0.000 A 
ENDBRANCH  26  27
ENDBRANCH  25  26
ENDBRANCH   9  25
TORSDOF 9
ENDMDL
MODEL 4
REMARK VINA RESULT:      -6.5      3.412      8.615
REMARK  Name = 
REMARK  13 active torsions:
REMARK  status: ('A' for Active; 'I' for Inactive)
REMARK    1  A    between atoms: C_1  and  O_2
REMARK    2  A    between atoms: O_2  and  C_3
REMARK    3  A    between atoms: C_3  and  C_4
REMARK    4  A    between atoms: N_6  and  C_7
REMARK    5  A    between atoms: C_9  and  C_10
REMARK    6  A    between atoms: N_12  and  C_13
REMARK    7  A    between atoms: N_12  and  C_14
REMARK    8  A    between atoms: C_14  and  C_15
REMARK    9  A    between atoms: C_15  and  C_16
REMARK   10  A    between atoms: C_15  and  C_17
REMARK   11  A    between atoms: N_23  and  C_24
REMARK   12  A    between atoms: C_24  and  C_25
REMARK   13  A    between atoms: C_25  and  C_26
REMARK                            x       y       z     vdW  Elec       q    Type
REMARK                         _______ _______ _______ _____ _____    ______ ____
ROOT
ATOM      1  C   UNL     1       0.822   8.325  20.422  0.00  0.00    +0.000 A 
ATOM      2  C   UNL     1       1.202   7.023  20.741  0.00  0.00    +0.000 A 
ATOM      3  C   UNL     1       2.131   6.251  19.975  0.00  0.00    +0.000 A 
ATOM      4  C   UNL     1       2.730   6.917  18.860  0.00  0.00    +0.000 A 
ATOM      5  C   UNL     1       2.286   8.226  18.533  0.00  0.00    +0.000 A 
ATOM      6  C   UNL     1       1.310   8.909  19.273  0.00  0.00    +0.000 A 
ATOM      7  N   UNL     1       2.906   8.745  17.435  0.00  0.00    +0.000 NA
ATOM      8  C   UNL     1       3.735   7.818  17.062  0.00  0.00    +0.000 A 
ATOM      9  N   UNL     1       3.660   6.690  17.845  0.00  0.00    +0.000 N 
ENDROOT
BRANCH   1  12
ATOM     10  C   UNL     1       0.350   9.663  22.405  0.00  0.00    +0.000 C 
ATOM     11  O   UNL     1       1.502   9.670  22.827  0.00  0.00    +0.000 OA
ATOM     12  N   UNL     1      -0.064   9.063  21.226  0.00  0.00    +0.000 N 
ATOM     13  H   UNL     1      -0.901   9.441  20.794  0.00  0.00    +0.000 HD
BRANCH  10  14
ATOM     14  C   UNL     1      -0.775  10.334  23.182  0.00  0.00    +0.000 C 
BRANCH  14  16
ATOM     15  C   UNL     1      -1.817  12.415  22.817  0.00  0.00    +0.000 C 
ATOM     16  O   UNL     1      -0.633  11.746  23.251  0.00  0.00    +0.000 OA
ENDBRANCH  14  16
ENDBRANCH  10  14
ENDBRANCH   1  12
BRANCH   3  17
ATOM     17  C   UNL     1       2.112   4.815  20.395  0.00  0.00    +0.000 C 
ATOM     18  O   UNL     1       2.499   4.608  21.550  0.00  0.00    +0.000 OA
ATOM     19  N   UNL     1       1.854   3.746  19.533  0.00  0.00    +0.000 N 
ATOM     20  C   UNL     1       1.327   3.867  18.201  0.00  0.00    +0.000 C 
BRANCH  19  21
ATOM     21  C   UNL     1       2.315   2.396  19.912  0.00  0.00    +0.000 C 
BRANCH  21  22
ATOM     22  C   UNL     1       3.775   2.115  19.491  0.00  0.00    +0.000 C 
ATOM     23  C   UNL     1       4.621   1.608  20.660  0.00  0.00    +0.000 C 
ATOM     24  C   UNL     1       3.820   1.103  18.344  0.00  0.00    +0.000 C 
ENDBRANCH  21  22
ENDBRANCH  19  21
ENDBRANCH   3  17
BRANCH   9  25
ATOM     25  C   UNL     1       4.546   5.581  17.530  0.00  0.00    +0.000 C 
BRANCH  25  26
ATOM     26  C   UNL     1       5.718   5.988  16.659  0.00  0.00    +0.000 C 
BRANCH  26  27
ATOM     27  C   UNL     1       5.930   5.250  15.359  0.00  0.00    +0.000 A 
ATOM     28  C   UNL     1       5.039   4.330  14.795  0.00  0.00    +0.000 A 
ATOM     29  C   UNL     1       5.366   3.680  13.599  0.00  0.00    +0.000 A 
ATOM     30  C   UNL     1       6.578   3.936  12.958  0.00  0.00    +0.000 A 
ATOM     31  C   UNL     1       7.465   4.852  13.506  0.00  0.00    +0.000 A 
ATOM     32  C   UNL     1       7.142   5.502  14.694  0.00  0.00    +0.000 A 
ENDBRANCH  26  27
ENDBRANCH  25  26
ENDBRANCH   9  25
TORSDOF 9
ENDMDL
MODEL 5
REMARK VINA RESULT:      -6.2      4.946      8.014
REMARK  Name = 
REMARK  13 active torsions:
REMARK  status: ('A' for Active; 'I' for Inactive)
REMARK    1  A    between atoms: C_1  and  O_2
REMARK    2  A    between atoms: O_2  and  C_3
REMARK    3  A    between atoms: C_3  and  C_4
REMARK    4  A    between atoms: N_6  and  C_7
REMARK    5  A    between atoms: C_9  and  C_10
REMARK    6  A    between atoms: N_12  and  C_13
REMARK    7  A    between atoms: N_12  and  C_14
REMARK    8  A    between atoms: C_14  and  C_15
REMARK    9  A    between atoms: C_15  and  C_16
REMARK   10  A    between atoms: C_15  and  C_17
REMARK   11  A    between atoms: N_23  and  C_24
REMARK   12  A    between atoms: C_24  and  C_25
REMARK   13  A    between atoms: C_25  and  C_26
REMARK                            x       y       z     vdW  Elec       q    Type
REMARK                         _______ _______ _______ _____ _____    ______ ____
ROOT
ATOM      1  C   UNL     1       1.889   6.477  20.802  0.00  0.00    +0.000 A 
ATOM      2  C   UNL     1       1.225   7.489  21.492  0.00  0.00    +0.000 A 
ATOM      3  C   UNL     1       1.007   8.803  20.971  0.00  0.00    +0.000 A 
ATOM      4  C   UNL     1       1.457   9.028  19.632  0.00  0.00    +0.000 A 
ATOM      5  C   UNL     1       2.173   7.993  18.973  0.00  0.00    +0.000 A 
ATOM      6  C   UNL     1       2.430   6.747  19.564  0.00  0.00    +0.000 A 
ATOM      7  N   UNL     1       2.577   8.334  17.717  0.00  0.00    +0.000 NA
ATOM      8  C   UNL     1       2.133   9.544  17.550  0.00  0.00    +0.000 A 
ATOM      9  N   UNL     1       1.486  10.030  18.662  0.00  0.00    +0.000 N 
ENDROOT
BRANCH   1  12
ATOM     10  C   UNL     1       1.408   4.087  20.785  0.00  0.00    +0.000 C 
ATOM     11  O   UNL     1       0.715   4.108  19.773  0.00  0.00    +0.000 OA
ATOM     12  N   UNL     1       2.047   5.187  21.337  0.00  0.00    +0.000 N 
ATOM     13  H   UNL     1       2.870   4.999  21.899  0.00  0.00    +0.000 HD
BRANCH  10  14
ATOM     14  C   UNL     1       1.625   2.795  21.561  0.00  0.00    +0.000 C 
BRANCH  14  16
ATOM     15  C   UNL     1       3.713   2.350  20.563  0.00  0.00    +0.000 C 
ATOM     16  O   UNL     1       2.999   2.512  21.788  0.00  0.00    +0.000 OA
ENDBRANCH  14  16
ENDBRANCH  10  14
ENDBRANCH   1  12
BRANCH   3  17
ATOM     17  C   UNL     1       0.533   9.735  22.041  0.00  0.00    +0.000 C 
ATOM     18  O   UNL     1       1.112   9.616  23.126  0.00  0.00    +0.000 OA
ATOM     19  N   UNL     1      -0.583  10.566  21.924  0.00  0.00    +0.000 N 
ATOM     20  C   UNL     1      -1.283  10.842  20.698  0.00  0.00    +0.000 C 
BRANCH  19  21
ATOM     21  C   UNL     1      -1.231  11.070  23.150  0.00  0.00    +0.000 C 
BRANCH  21  22
ATOM     22  C   UNL     1      -2.020  12.380  22.923  0.00  0.00    +0.000 C 
ATOM     23  C   UNL     1      -3.281  12.447  23.787  0.00  0.00    +0.000 C 
ATOM     24  C   UNL     1      -1.137  13.597  23.204  0.00  0.00    +0.000 C 
ENDBRANCH  21  22
ENDBRANCH  19  21
ENDBRANCH   3  17
BRANCH   9  25
ATOM     25  C   UNL     1       0.937  11.375  18.597  0.00  0.00    +0.000 C 
BRANCH  25  26
ATOM     26  C   UNL     1       1.997  12.454  18.701  0.00  0.00    +0.000 C 
BRANCH  26  27
ATOM     27  C   UNL     1       1.554  13.896  18.655  0.00  0.00    +0.000 A 
ATOM     28  C   UNL     1       2.368  14.983  18.318  0.00  0.00    +0.000 A 
ATOM     29  C   UNL     1       1.851  16.283  18.348  0.00  0.00    +0.000 A 
ATOM     30  C   UNL     1       0.524  16.513  18.714  0.00  0.00    +0.000 A 
ATOM     31  C   UNL     1      -0.293  15.440  19.044  0.00  0.00    +0.000 A 
ATOM     32  C   UNL     1       0.219  14.147  19.013  0.00  0.00    +0.000 A 
ENDBRANCH  26  27
ENDBRANCH  25  26
ENDBRANCH   9  25
TORSDOF 9
ENDMDL
MODEL 6
REMARK VINA RESULT:      -6.2      2.410      7.579
REMARK  Name = 
REMARK  13 active torsions:
REMARK  status: ('A' for Active; 'I' for Inactive)
REMARK    1  A    between atoms: C_1  and  O_2
REMARK    2  A    between atoms: O_2  and  C_3
REMARK    3  A    between atoms: C_3  and  C_4
REMARK    4  A    between atoms: N_6  and  C_7
REMARK    5  A    between atoms: C_9  and  C_10
REMARK    6  A    between atoms: N_12  and  C_13
REMARK    7  A    between atoms: N_12  and  C_14
REMARK    8  A    between atoms: C_14  and  C_15
REMARK    9  A    between atoms: C_15  and  C_16
REMARK   10  A    between atoms: C_15  and  C_17
REMARK   11  A    between atoms: N_23  and  C_24
REMARK   12  A    between atoms: C_24  and  C_25
REMARK   13  A    between atoms: C_25  and  C_26
REMARK                            x       y       z     vdW  Elec       q    Type
REMARK                         _______ _______ _______ _____ _____    ______ ____
ROOT
ATOM      1  C   UNL     1       2.347   7.991  18.144  0.00  0.00    +0.000 A 
ATOM      2  C   UNL     1       2.173   6.619  18.316  0.00  0.00    +0.000 A 
ATOM      3  C   UNL     1       3.154   5.638  17.969  0.00  0.00    +0.000 A 
ATOM      4  C   UNL     1       4.400   6.145  17.479  0.00  0.00    +0.000 A 
ATOM      5  C   UNL     1       4.528   7.544  17.269  0.00  0.00    +0.000 A 
ATOM      6  C   UNL     1       3.500   8.456  17.552  0.00  0.00    +0.000 A 
ATOM      7  N   UNL     1       5.745   7.903  16.772  0.00  0.00    +0.000 NA
ATOM      8  C   UNL     1       6.397   6.784  16.670  0.00  0.00    +0.000 A 
ATOM      9  N   UNL     1       5.645   5.695  17.043  0.00  0.00    +0.000 N 
ENDROOT
BRANCH   1  12
ATOM     10  C   UNL     1       1.035   9.109  19.868  0.00  0.00    +0.000 C 
ATOM     11  O   UNL     1       1.575   8.549  20.817  0.00  0.00    +0.000 OA
ATOM     12  N   UNL     1       1.370   8.923  18.536  0.00  0.00    +0.000 N 
ATOM     13  H   UNL     1       1.156   9.686  17.903  0.00  0.00    +0.000 HD
BRANCH  10  14
ATOM     14  C   UNL     1      -0.110  10.089  20.084  0.00  0.00    +0.000 C 
BRANCH  14  16
ATOM     15  C   UNL     1      -0.775  12.012  18.894  0.00  0.00    +0.000 C 
ATOM     16  O   UNL     1      -0.645  10.590  18.867  0.00  0.00    +0.000 OA
ENDBRANCH  14  16
ENDBRANCH  10  14
ENDBRANCH   1  12
BRANCH   3  17
ATOM     17  C   UNL     1       2.573   4.261  17.998  0.00  0.00    +0.000 C 
ATOM     18  O   UNL     1       1.541   4.119  17.333  0.00  0.00    +0.000 OA
ATOM     19  N   UNL     1       3.022   3.233  18.832  0.00  0.00    +0.000 N 
ATOM     20  C   UNL     1       4.245   3.258  19.587  0.00  0.00    +0.000 C 
BRANCH  19  21
ATOM     21  C   UNL     1       2.117   2.106  19.128  0.00  0.00    +0.000 C 
BRANCH  21  22
ATOM     22  C   UNL     1       1.247   2.343  20.384  0.00  0.00    +0.000 C 
ATOM     23  C   UNL     1       2.037   2.133  21.677  0.00  0.00    +0.000 C 
ATOM     24  C   UNL     1       0.649   3.751  20.367  0.00  0.00    +0.000 C 
ENDBRANCH  21  22
ENDBRANCH  19  21
ENDBRANCH   3  17
BRANCH   9  25
ATOM     25  C   UNL     1       6.269   4.382  16.979  0.00  0.00    +0.000 C 
BRANCH  25  26
ATOM     26  C   UNL     1       5.819   3.571  15.780  0.00  0.00    +0.000 C 
BRANCH  26  27
ATOM     27  C   UNL     1       6.378   3.930  14.425  0.00  0.00    +0.000 A 
ATOM     28  C   UNL     1       7.375   4.884  14.187  0.00  0.00    +0.000 A 
ATOM     29  C   UNL     1       7.786   5.157  12.877  0.00  0.00    +0.000 A 
ATOM     30  C   UNL     1       7.210   4.489  11.797  0.00  0.00    +0.000 A 
ATOM     31  C   UNL     1       6.226   3.536  12.023  0.00  0.00    +0.000 A 
ATOM     32  C   UNL     1       5.817   3.261  13.325  0.00  0.00    +0.000 A 
ENDBRANCH  26  27
ENDBRANCH  25  26
ENDBRANCH   9  25
TORSDOF 9
ENDMDL
MODEL 7
REMARK VINA RESULT:      -6.1      5.633      9.533
REMARK  Name = 
REMARK  13 active torsions:
REMARK  status: ('A' for Active; 'I' for Inactive)
REMARK    1  A    between atoms: C_1  and  O_2
REMARK    2  A    between atoms: O_2  and  C_3
REMARK    3  A    between atoms: C_3  and  C_4
REMARK    4  A    between atoms: N_6  and  C_7
REMARK    5  A    between atoms: C_9  and  C_10
REMARK    6  A    between atoms: N_12  and  C_13
REMARK    7  A    between atoms: N_12  and  C_14
REMARK    8  A    between atoms: C_14  and  C_15
REMARK    9  A    between atoms: C_15  and  C_16
REMARK   10  A    between atoms: C_15  and  C_17
REMARK   11  A    between atoms: N_23  and  C_24
REMARK   12  A    between atoms: C_24  and  C_25
REMARK   13  A    between atoms: C_25  and  C_26
REMARK                            x       y       z     vdW  Elec       q    Type
REMARK                         _______ _______ _______ _____ _____    ______ ____
ROOT
ATOM      1  C   UNL     1       0.756   9.361  19.921  0.00  0.00    +0.000 A 
ATOM      2  C   UNL     1      -0.005  10.108  19.024  0.00  0.00    +0.000 A 
ATOM      3  C   UNL     1      -0.938  11.119  19.413  0.00  0.00    +0.000 A 
ATOM      4  C   UNL     1      -1.015  11.393  20.816  0.00  0.00    +0.000 A 
ATOM      5  C   UNL     1      -0.264  10.582  21.708  0.00  0.00    +0.000 A 
ATOM      6  C   UNL     1       0.577   9.546  21.275  0.00  0.00    +0.000 A 
ATOM      7  N   UNL     1      -0.442  10.917  23.017  0.00  0.00    +0.000 NA
ATOM      8  C   UNL     1      -1.270  11.917  22.987  0.00  0.00    +0.000 A 
ATOM      9  N   UNL     1      -1.677  12.232  21.712  0.00  0.00    +0.000 N 
ENDROOT
BRANCH   1  12
ATOM     10  C   UNL     1       2.261   8.457  18.230  0.00  0.00    +0.000 C 
ATOM     11  O   UNL     1       2.068   9.345  17.405  0.00  0.00    +0.000 OA
ATOM     12  N   UNL     1       1.692   8.403  19.493  0.00  0.00    +0.000 N 
ATOM     13  H   UNL     1       2.200   7.882  20.198  0.00  0.00    +0.000 HD
BRANCH  10  14
ATOM     14  C   UNL     1       3.175   7.280  17.916  0.00  0.00    +0.000 C 
BRANCH  14  16
ATOM     15  C   UNL     1       2.375   5.064  17.968  0.00  0.00    +0.000 C 
ATOM     16  O   UNL     1       2.913   6.145  18.730  0.00  0.00    +0.000 OA
ENDBRANCH  14  16
ENDBRANCH  10  14
ENDBRANCH   1  12
BRANCH   3  17
ATOM     17  C   UNL     1      -1.799  11.530  18.261  0.00  0.00    +0.000 C 
ATOM     18  O   UNL     1      -1.605  12.680  17.854  0.00  0.00    +0.000 OA
ATOM     19  N   UNL     1      -2.866  10.776  17.767  0.00  0.00    +0.000 N 
ATOM     20  C   UNL     1      -3.137   9.406  18.109  0.00  0.00    +0.000 C 
BRANCH  19  21
ATOM     21  C   UNL     1      -3.914  11.452  16.980  0.00  0.00    +0.000 C 
BRANCH  21  22
ATOM     22  C   UNL     1      -5.123  11.894  17.836  0.00  0.00    +0.000 C 
ATOM     23  C   UNL     1      -5.993  12.923  17.112  0.00  0.00    +0.000 C 
ATOM     24  C   UNL     1      -5.974  10.685  18.230  0.00  0.00    +0.000 C 
ENDBRANCH  21  22
ENDBRANCH  19  21
ENDBRANCH   3  17
BRANCH   9  25
ATOM     25  C   UNL     1      -2.602  13.342  21.546  0.00  0.00    +0.000 C 
BRANCH  25  26
ATOM     26  C   UNL     1      -3.946  12.915  20.988  0.00  0.00    +0.000 C 
BRANCH  26  27
ATOM     27  C   UNL     1      -5.109  12.796  21.942  0.00  0.00    +0.000 A 
ATOM     28  C   UNL     1      -5.040  12.975  23.329  0.00  0.00    +0.000 A 
ATOM     29  C   UNL     1      -6.185  12.801  24.116  0.00  0.00    +0.000 A 
ATOM     30  C   UNL     1      -7.401  12.445  23.533  0.00  0.00    +0.000 A 
ATOM     31  C   UNL     1      -7.481  12.272  22.158  0.00  0.00    +0.000 A 
ATOM     32  C   UNL     1      -6.345  12.447  21.374  0.00  0.00    +0.000 A 
ENDBRANCH  26  27
ENDBRANCH  25  26
ENDBRANCH   9  25
TORSDOF 9
ENDMDL
MODEL 8
REMARK VINA RESULT:      -5.9      6.110     11.950
REMARK  Name = 
REMARK  13 active torsions:
REMARK  status: ('A' for Active; 'I' for Inactive)
REMARK    1  A    between atoms: C_1  and  O_2
REMARK    2  A    between atoms: O_2  and  C_3
REMARK    3  A    between atoms: C_3  and  C_4
REMARK    4  A    between atoms: N_6  and  C_7
REMARK    5  A    between atoms: C_9  and  C_10
REMARK    6  A    between atoms: N_12  and  C_13
REMARK    7  A    between atoms: N_12  and  C_14
REMARK    8  A    between atoms: C_14  and  C_15
REMARK    9  A    between atoms: C_15  and  C_16
REMARK   10  A    between atoms: C_15  and  C_17
REMARK   11  A    between atoms: N_23  and  C_24
REMARK   12  A    between atoms: C_24  and  C_25
REMARK   13  A    between atoms: C_25  and  C_26
REMARK                            x       y       z     vdW  Elec       q    Type
REMARK                         _______ _______ _______ _____ _____    ______ ____
ROOT
ATOM      1  C   UNL     1      -1.387  12.183  22.205  0.00  0.00    +0.000 A 
ATOM      2  C   UNL     1      -0.890  12.746  21.031  0.00  0.00    +0.000 A 
ATOM      3  C   UNL     1       0.013  12.082  20.144  0.00  0.00    +0.000 A 
ATOM      4  C   UNL     1       0.350  10.734  20.487  0.00  0.00    +0.000 A 
ATOM      5  C   UNL     1      -0.133  10.205  21.714  0.00  0.00    +0.000 A 
ATOM      6  C   UNL     1      -0.953  10.933  22.589  0.00  0.00    +0.000 A 
ATOM      7  N   UNL     1       0.278   8.927  21.947  0.00  0.00    +0.000 NA
ATOM      8  C   UNL     1       0.994   8.621  20.907  0.00  0.00    +0.000 A 
ATOM      9  N   UNL     1       1.106   9.662  20.014  0.00  0.00    +0.000 N 
ENDROOT
BRANCH   1  12
ATOM     10  C   UNL     1      -1.913  13.903  23.850  0.00  0.00    +0.000 C 
ATOM     11  O   UNL     1      -0.782  14.377  23.900  0.00  0.00    +0.000 OA
ATOM     12  N   UNL     1      -2.305  12.858  23.028  0.00  0.00    +0.000 N 
ATOM     13  H   UNL     1      -3.288  12.817  22.783  0.00  0.00    +0.000 HD
BRANCH  10  14
ATOM     14  C   UNL     1      -3.029  14.441  24.736  0.00  0.00    +0.000 C 
BRANCH  14  16
ATOM     15  C   UNL     1      -3.534  16.720  25.059  0.00  0.00    +0.000 C 
ATOM     16  O   UNL     1      -2.670  15.639  25.410  0.00  0.00    +0.000 OA
ENDBRANCH  14  16
ENDBRANCH  10  14
ENDBRANCH   1  12
BRANCH   3  17
ATOM     17  C   UNL     1       0.584  13.035  19.143  0.00  0.00    +0.000 C 
ATOM     18  O   UNL     1      -0.084  13.167  18.112  0.00  0.00    +0.000 OA
ATOM     19  N   UNL     1       1.850  13.617  19.243  0.00  0.00    +0.000 N 
ATOM     20  C   UNL     1       2.678  13.597  20.418  0.00  0.00    +0.000 C 
BRANCH  19  21
ATOM     21  C   UNL     1       2.495  14.140  18.023  0.00  0.00    +0.000 C 
BRANCH  21  22
ATOM     22  C   UNL     1       3.502  15.277  18.311  0.00  0.00    +0.000 C 
ATOM     23  C   UNL     1       4.921  14.911  17.870  0.00  0.00    +0.000 C 
ATOM     24  C   UNL     1       3.065  16.571  17.621  0.00  0.00    +0.000 C 
ENDBRANCH  21  22
ENDBRANCH  19  21
ENDBRANCH   3  17
BRANCH   9  25
ATOM     25  C   UNL     1       1.880   9.440  18.803  0.00  0.00    +0.000 C 
BRANCH  25  26
ATOM     26  C   UNL     1       1.522   8.146  18.099  0.00  0.00    +0.000 C 
BRANCH  26  27
ATOM     27  C   UNL     1       2.606   7.114  17.910  0.00  0.00    +0.000 A 
ATOM     28  C   UNL     1       3.906   7.376  17.464  0.00  0.00    +0.000 A 
ATOM     29  C   UNL     1       4.815   6.325  17.292  0.00  0.00    +0.000 A 
ATOM     30  C   UNL     1       4.438   5.008  17.560  0.00  0.00    +0.000 A 
ATOM     31  C   UNL     1       3.153   4.739  18.010  0.00  0.00    +0.000 A 
ATOM     32  C   UNL     1       2.249   5.782  18.183  0.00  0.00    +0.000 A 
ENDBRANCH  26  27
ENDBRANCH  25  26
ENDBRANCH   9  25
TORSDOF 9
ENDMDL
MODEL 9
REMARK VINA RESULT:      -5.9      4.428      8.560
REMARK  Name = 
REMARK  13 active torsions:
REMARK  status: ('A' for Active; 'I' for Inactive)
REMARK    1  A    between atoms: C_1  and  O_2
REMARK    2  A    between atoms: O_2  and  C_3
REMARK    3  A    between atoms: C_3  and  C_4
REMARK    4  A    between atoms: N_6  and  C_7
REMARK    5  A    between atoms: C_9  and  C_10
REMARK    6  A    between atoms: N_12  and  C_13
REMARK    7  A    between atoms: N_12  and  C_14
REMARK    8  A    between atoms: C_14  and  C_15
REMARK    9  A    between atoms: C_15  and  C_16
REMARK   10  A    between atoms: C_15  and  C_17
REMARK   11  A    between atoms: N_23  and  C_24
REMARK   12  A    between atoms: C_24  and  C_25
REMARK   13  A    between atoms: C_25  and  C_26
REMARK                            x       y       z     vdW  Elec       q    Type
REMARK                         _______ _______ _______ _____ _____    ______ ____
ROOT
ATOM      1  C   UNL     1       1.610   8.249  20.271  0.00  0.00    +0.000 A 
ATOM      2  C   UNL     1       1.081   9.203  19.404  0.00  0.00    +0.000 A 
ATOM      3  C   UNL     1       0.164  10.226  19.802  0.00  0.00    +0.000 A 
ATOM      4  C   UNL     1      -0.152  10.275  21.197  0.00  0.00    +0.000 A 
ATOM      5  C   UNL     1       0.365   9.261  22.046  0.00  0.00    +0.000 A 
ATOM      6  C   UNL     1       1.197   8.230  21.586  0.00  0.00    +0.000 A 
ATOM      7  N   UNL     1      -0.029   9.395  23.344  0.00  0.00    +0.000 NA
ATOM      8  C   UNL     1      -0.766  10.465  23.351  0.00  0.00    +0.000 A 
ATOM      9  N   UNL     1      -0.908  11.021  22.101  0.00  0.00    +0.000 N 
ENDROOT
BRANCH   1  12
ATOM     10  C   UNL     1       2.343   5.932  20.076  0.00  0.00    +0.000 C 
ATOM     11  O   UNL     1       1.347   5.443  20.600  0.00  0.00    +0.000 OA
ATOM     12  N   UNL     1       2.540   7.285  19.845  0.00  0.00    +0.000 N 
ATOM     13  H   UNL     1       3.171   7.529  19.090  0.00  0.00    +0.000 HD
BRANCH  10  14
ATOM     14  C   UNL     1       3.504   5.055  19.628  0.00  0.00    +0.000 C 
BRANCH  14  16
ATOM     15  C   UNL     1       4.500   5.184  17.496  0.00  0.00    +0.000 C 
ATOM     16  O   UNL     1       4.433   5.748  18.806  0.00  0.00    +0.000 OA
ENDBRANCH  14  16
ENDBRANCH  10  14
ENDBRANCH   1  12
BRANCH   3  17
ATOM     17  C   UNL     1      -0.439  10.902  18.611  0.00  0.00    +0.000 C 
ATOM     18  O   UNL     1       0.164  11.909  18.226  0.00  0.00    +0.000 OA
ATOM     19  N   UNL     1      -1.675  10.562  18.055  0.00  0.00    +0.000 N 
ATOM     20  C   UNL     1      -2.423   9.375  18.368  0.00  0.00    +0.000 C 
BRANCH  19  21
ATOM     21  C   UNL     1      -2.380  11.555  17.222  0.00  0.00    +0.000 C 
BRANCH  21  22
ATOM     22  C   UNL     1      -3.620  10.972  16.507  0.00  0.00    +0.000 C 
ATOM     23  C   UNL     1      -4.861  11.843  16.710  0.00  0.00    +0.000 C 
ATOM     24  C   UNL     1      -3.349  10.802  15.011  0.00  0.00    +0.000 C 
ENDBRANCH  21  22
ENDBRANCH  19  21
ENDBRANCH   3  17
BRANCH   9  25
ATOM     25  C   UNL     1      -1.707  12.229  21.980  0.00  0.00    +0.000 C 
BRANCH  25  26
ATOM     26  C   UNL     1      -0.908  13.495  22.218  0.00  0.00    +0.000 C 
BRANCH  26  27
ATOM     27  C   UNL     1      -0.233  14.145  21.035  0.00  0.00    +0.000 A 
ATOM     28  C   UNL     1      -0.888  14.827  20.003  0.00  0.00    +0.000 A 
ATOM     29  C   UNL     1      -0.152  15.358  18.936  0.00  0.00    +0.000 A 
ATOM     30  C   UNL     1       1.234  15.212  18.885  0.00  0.00    +0.000 A 
ATOM     31  C   UNL     1       1.893  14.543  19.907  0.00  0.00    +0.000 A 
ATOM     32  C   UNL     1       1.164  14.017  20.970  0.00  0.00    +0.000 A 
ENDBRANCH  26  27
ENDBRANCH  25  26
ENDBRANCH   9  25
TORSDOF 9
ENDMDL
