MODEL 1
REMARK VINA RESULT:      -7.2      0.000      0.000
REMARK  Name = 
REMARK  5 active torsions:
REMARK  status: ('A' for Active; 'I' for Inactive)
REMARK    1  A    between atoms: C_1  and  C_2
REMARK    2  A    between atoms: C_5  and  C_6
REMARK    3  A    between atoms: C_6  and  C_8
REMARK    4  A    between atoms: C_9  and  C_10
REMARK    5  A    between atoms: C_13  and  N_14
REMARK                            x       y       z     vdW  Elec       q    Type
REMARK                         _______ _______ _______ _____ _____    ______ ____
ROOT
ATOM      1  C   UNL     1       3.939   5.424  19.324  0.00  0.00    +0.000 C 
ATOM      2  C   UNL     1       3.397   6.289  18.449  0.00  0.00    +0.000 C 
ENDROOT
BRANCH   2   3
ATOM      3  C   UNL     1       2.521   7.401  18.860  0.00  0.00    +0.000 A 
ATOM      4  C   UNL     1       2.144   8.375  17.922  0.00  0.00    +0.000 A 
ATOM      5  C   UNL     1       1.315   9.445  18.288  0.00  0.00    +0.000 A 
ATOM      6  C   UNL     1       0.845   9.537  19.604  0.00  0.00    +0.000 A 
ATOM      7  C   UNL     1       1.189   8.564  20.546  0.00  0.00    +0.000 A 
ATOM      8  C   UNL     1       2.015   7.500  20.167  0.00  0.00    +0.000 A 
BRANCH   6   9
ATOM      9  N   UNL     1      -0.017  10.656  20.004  0.00  0.00    +0.000 N 
ATOM     10  O   UNL     1      -0.984  10.929  19.277  0.00  0.00    +0.000 OA
ATOM     11  O   UNL     1       0.271  11.264  21.044  0.00  0.00    +0.000 OA
ENDBRANCH   6   9
ENDBRANCH   2   3
BRANCH   1  12
ATOM     12  C   UNL     1       4.843   4.318  18.892  0.00  0.00    +0.000 C 
ATOM     13  O   UNL     1       5.021   3.322  19.585  0.00  0.00    +0.000 OA
BRANCH  12  18
ATOM     14  C   UNL     1       7.216   4.786  13.600  0.00  0.00    +0.000 C 
ATOM     15  C   UNL     1       6.608   4.652  14.966  0.00  0.00    +0.000 A 
ATOM     16  C   UNL     1       5.306   4.169  15.137  0.00  0.00    +0.000 A 
ATOM     17  C   UNL     1       4.754   4.057  16.420  0.00  0.00    +0.000 A 
ATOM     18  C   UNL     1       5.491   4.438  17.548  0.00  0.00    +0.000 A 
ATOM     19  C   UNL     1       6.802   4.901  17.378  0.00  0.00    +0.000 A 
ATOM     20  C   UNL     1       7.351   5.013  16.095  0.00  0.00    +0.000 A 
ENDBRANCH  12  18
ENDBRANCH   1  12
TORSDOF 4
ENDMDL
MODEL 2
REMARK VINA RESULT:      -7.2      6.058      7.237
REMARK  Name = 
REMARK  5 active torsions:
REMARK  status: ('A' for Active; 'I' for Inactive)
REMARK    1  A    between atoms: C_1  and  C_2
REMARK    2  A    between atoms: C_5  and  C_6
REMARK    3  A    between atoms: C_6  and  C_8
REMARK    4  A    between atoms: C_9  and  C_10
REMARK    5  A    between atoms: C_13  and  N_14
REMARK                            x       y       z     vdW  Elec       q    Type
REMARK                         _______ _______ _______ _____ _____    ______ ____
ROOT
ATOM      1  C   UNL     1       8.007   7.691  17.608  0.00  0.00    +0.000 C 
ATOM      2  C   UNL     1       7.587   8.968  17.643  0.00  0.00    +0.000 C 
ENDROOT
BRANCH   2   3
ATOM      3  C   UNL     1       8.415  10.069  18.171  0.00  0.00    +0.000 A 
ATOM      4  C   UNL     1       8.342  11.340  17.580  0.00  0.00    +0.000 A 
ATOM      5  C   UNL     1       9.122  12.403  18.060  0.00  0.00    +0.000 A 
ATOM      6  C   UNL     1       9.975  12.197  19.152  0.00  0.00    +0.000 A 
ATOM      7  C   UNL     1      10.042  10.945  19.768  0.00  0.00    +0.000 A 
ATOM      8  C   UNL     1       9.258   9.894  19.282  0.00  0.00    +0.000 A 
BRANCH   6   9
ATOM      9  N   UNL     1      10.803  13.298  19.660  0.00  0.00    +0.000 N 
ATOM     10  O   UNL     1      11.965  13.035  20.004  0.00  0.00    +0.000 OA
ATOM     11  O   UNL     1      10.293  14.424  19.717  0.00  0.00    +0.000 OA
ENDBRANCH   6   9
ENDBRANCH   2   3
BRANCH   1  12
ATOM     12  C   UNL     1       7.164   6.594  17.049  0.00  0.00    +0.000 C 
ATOM     13  O   UNL     1       7.535   5.916  16.096  0.00  0.00    +0.000 OA
BRANCH  12  18
ATOM     14  C   UNL     1       2.182   5.435  19.823  0.00  0.00    +0.000 C 
ATOM     15  C   UNL     1       3.465   5.723  19.100  0.00  0.00    +0.000 A 
ATOM     16  C   UNL     1       4.681   5.181  19.534  0.00  0.00    +0.000 A 
ATOM     17  C   UNL     1       5.869   5.466  18.849  0.00  0.00    +0.000 A 
ATOM     18  C   UNL     1       5.862   6.305  17.728  0.00  0.00    +0.000 A 
ATOM     19  C   UNL     1       4.642   6.830  17.281  0.00  0.00    +0.000 A 
ATOM     20  C   UNL     1       3.456   6.544  17.968  0.00  0.00    +0.000 A 
ENDBRANCH  12  18
ENDBRANCH   1  12
TORSDOF 4
ENDMDL
MODEL 3
REMARK VINA RESULT:      -7.2      0.452      1.170
REMARK  Name = 
REMARK  5 active torsions:
REMARK  status: ('A' for Active; 'I' for Inactive)
REMARK    1  A    between atoms: C_1  and  C_2
REMARK    2  A    between atoms: C_5  and  C_6
REMARK    3  A    between atoms: C_6  and  C_8
REMARK    4  A    between atoms: C_9  and  C_10
REMARK    5  A    between atoms: C_13  and  N_14
REMARK                            x       y       z     vdW  Elec       q    Type
REMARK                         _______ _______ _______ _____ _____    ______ ____
ROOT
ATOM      1  C   UNL     1       4.079   5.526  19.241  0.00  0.00    +0.000 C 
ATOM      2  C   UNL     1       3.356   6.262  18.378  0.00  0.00    +0.000 C 
ENDROOT
BRANCH   2   3
ATOM      3  C   UNL     1       2.516   7.398  18.803  0.00  0.00    +0.000 A 
ATOM      4  C   UNL     1       2.149   8.380  17.870  0.00  0.00    +0.000 A 
ATOM      5  C   UNL     1       1.355   9.472  18.249  0.00  0.00    +0.000 A 
ATOM      6  C   UNL     1       0.911   9.578  19.572  0.00  0.00    +0.000 A 
ATOM      7  C   UNL     1       1.245   8.597  20.509  0.00  0.00    +0.000 A 
ATOM      8  C   UNL     1       2.036   7.512  20.119  0.00  0.00    +0.000 A 
BRANCH   6   9
ATOM      9  N   UNL     1       0.085  10.720  19.985  0.00  0.00    +0.000 N 
ATOM     10  O   UNL     1       0.241  11.793  19.383  0.00  0.00    +0.000 OA
ATOM     11  O   UNL     1      -0.718  10.547  20.912  0.00  0.00    +0.000 OA
ENDBRANCH   6   9
ENDBRANCH   2   3
BRANCH   1  12
ATOM     12  C   UNL     1       4.941   4.395  18.791  0.00  0.00    +0.000 C 
ATOM     13  O   UNL     1       5.156   3.422  19.507  0.00  0.00    +0.000 OA
BRANCH  12  18
ATOM     14  C   UNL     1       7.259   4.636  13.458  0.00  0.00    +0.000 C 
ATOM     15  C   UNL     1       6.657   4.587  14.833  0.00  0.00    +0.000 A 
ATOM     16  C   UNL     1       7.390   4.972  15.961  0.00  0.00    +0.000 A 
ATOM     17  C   UNL     1       6.813   4.914  17.236  0.00  0.00    +0.000 A 
ATOM     18  C   UNL     1       5.499   4.458  17.403  0.00  0.00    +0.000 A 
ATOM     19  C   UNL     1       4.758   4.093  16.272  0.00  0.00    +0.000 A 
ATOM     20  C   UNL     1       5.338   4.151  14.998  0.00  0.00    +0.000 A 
ENDBRANCH  12  18
ENDBRANCH   1  12
TORSDOF 4
ENDMDL
MODEL 4
REMARK VINA RESULT:      -7.2      6.019      7.232
REMARK  Name = 
REMARK  5 active torsions:
REMARK  status: ('A' for Active; 'I' for Inactive)
REMARK    1  A    between atoms: C_1  and  C_2
REMARK    2  A    between atoms: C_5  and  C_6
REMARK    3  A    between atoms: C_6  and  C_8
REMARK    4  A    between atoms: C_9  and  C_10
REMARK    5  A    between atoms: C_13  and  N_14
REMARK                            x       y       z     vdW  Elec       q    Type
REMARK                         _______ _______ _______ _____ _____    ______ ____
ROOT
ATOM      1  C   UNL     1       7.521   8.320  17.369  0.00  0.00    +0.000 C 
ATOM      2  C   UNL     1       8.407   8.579  18.347  0.00  0.00    +0.000 C 
ENDROOT
BRANCH   2   3
ATOM      3  C   UNL     1       8.867   9.943  18.670  0.00  0.00    +0.000 A 
ATOM      4  C   UNL     1       9.504  10.191  19.896  0.00  0.00    +0.000 A 
ATOM      5  C   UNL     1       9.947  11.480  20.229  0.00  0.00    +0.000 A 
ATOM      6  C   UNL     1       9.764  12.531  19.321  0.00  0.00    +0.000 A 
ATOM      7  C   UNL     1       9.154  12.298  18.086  0.00  0.00    +0.000 A 
ATOM      8  C   UNL     1       8.718  11.008  17.765  0.00  0.00    +0.000 A 
BRANCH   6   9
ATOM      9  N   UNL     1      10.216  13.886  19.660  0.00  0.00    +0.000 N 
ATOM     10  O   UNL     1      10.220  14.735  18.756  0.00  0.00    +0.000 OA
ATOM     11  O   UNL     1      10.568  14.102  20.827  0.00  0.00    +0.000 OA
ENDBRANCH   6   9
ENDBRANCH   2   3
BRANCH   1  12
ATOM     12  C   UNL     1       7.049   6.936  17.072  0.00  0.00    +0.000 C 
ATOM     13  O   UNL     1       7.690   6.176  16.353  0.00  0.00    +0.000 OA
BRANCH  12  18
ATOM     14  C   UNL     1       2.212   5.121  19.749  0.00  0.00    +0.000 C 
ATOM     15  C   UNL     1       3.459   5.579  19.050  0.00  0.00    +0.000 A 
ATOM     16  C   UNL     1       4.722   5.121  19.443  0.00  0.00    +0.000 A 
ATOM     17  C   UNL     1       5.875   5.564  18.782  0.00  0.00    +0.000 A 
ATOM     18  C   UNL     1       5.784   6.480  17.727  0.00  0.00    +0.000 A 
ATOM     19  C   UNL     1       4.518   6.922  17.320  0.00  0.00    +0.000 A 
ATOM     20  C   UNL     1       3.367   6.478  17.983  0.00  0.00    +0.000 A 
ENDBRANCH  12  18
ENDBRANCH   1  12
TORSDOF 4
ENDMDL
MODEL 5
REMARK VINA RESULT:      -7.2      0.212      1.542
REMARK  Name = 
REMARK  5 active torsions:
REMARK  status: ('A' for Active; 'I' for Inactive)
REMARK    1  A    between atoms: C_1  and  C_2
REMARK    2  A    between atoms: C_5  and  C_6
REMARK    3  A    between atoms: C_6  and  C_8
REMARK    4  A    between atoms: C_9  and  C_10
REMARK    5  A    between atoms: C_13  and  N_14
REMARK                            x       y       z     vdW  Elec       q    Type
REMARK                         _______ _______ _______ _____ _____    ______ ____
ROOT
ATOM      1  C   UNL     1       3.880   5.375  19.392  0.00  0.00    +0.000 C 
ATOM      2  C   UNL     1       3.338   6.262  18.539  0.00  0.00    +0.000 C 
ENDROOT
BRANCH   2   3
ATOM      3  C   UNL     1       2.456   7.359  18.978  0.00  0.00    +0.000 A 
ATOM      4  C   UNL     1       2.017   7.411  20.311  0.00  0.00    +0.000 A 
ATOM      5  C   UNL     1       1.175   8.442  20.753  0.00  0.00    +0.000 A 
ATOM      6  C   UNL     1       0.776   9.441  19.856  0.00  0.00    +0.000 A 
ATOM      7  C   UNL     1       1.222   9.420  18.532  0.00  0.00    +0.000 A 
ATOM      8  C   UNL     1       2.064   8.388  18.105  0.00  0.00    +0.000 A 
BRANCH   6   9
ATOM      9  N   UNL     1      -0.112  10.522  20.303  0.00  0.00    +0.000 N 
ATOM     10  O   UNL     1      -0.948  10.952  19.495  0.00  0.00    +0.000 OA
ATOM     11  O   UNL     1       0.027  10.942  21.459  0.00  0.00    +0.000 OA
ENDBRANCH   6   9
ENDBRANCH   2   3
BRANCH   1  12
ATOM     12  C   UNL     1       4.789   4.285  18.932  0.00  0.00    +0.000 C 
ATOM     13  O   UNL     1       5.007   3.293  19.620  0.00  0.00    +0.000 OA
BRANCH  12  18
ATOM     14  C   UNL     1       7.280   4.787  13.697  0.00  0.00    +0.000 C 
ATOM     15  C   UNL     1       6.633   4.670  15.047  0.00  0.00    +0.000 A 
ATOM     16  C   UNL     1       7.310   5.048  16.212  0.00  0.00    +0.000 A 
ATOM     17  C   UNL     1       6.691   4.926  17.463  0.00  0.00    +0.000 A 
ATOM     18  C   UNL     1       5.392   4.414  17.569  0.00  0.00    +0.000 A 
ATOM     19  C   UNL     1       4.707   4.056  16.400  0.00  0.00    +0.000 A 
ATOM     20  C   UNL     1       5.328   4.178  15.151  0.00  0.00    +0.000 A 
ENDBRANCH  12  18
ENDBRANCH   1  12
TORSDOF 4
ENDMDL
MODEL 6
REMARK VINA RESULT:      -7.1      3.571      7.908
REMARK  Name = 
REMARK  5 active torsions:
REMARK  status: ('A' for Active; 'I' for Inactive)
REMARK    1  A    between atoms: C_1  and  C_2
REMARK    2  A    between atoms: C_5  and  C_6
REMARK    3  A    between atoms: C_6  and  C_8
REMARK    4  A    between atoms: C_9  and  C_10
REMARK    5  A    between atoms: C_13  and  N_14
REMARK                            x       y       z     vdW  Elec       q    Type
REMARK                         _______ _______ _______ _____ _____    ______ ____
ROOT
ATOM      1  C   UNL     1       2.960   6.642  19.151  0.00  0.00    +0.000 C 
ATOM      2  C   UNL     1       2.970   5.548  18.369  0.00  0.00    +0.000 C 
ENDROOT
BRANCH   2   3
ATOM      3  C   UNL     1       3.962   5.338  17.299  0.00  0.00    +0.000 A 
ATOM      4  C   UNL     1       4.554   6.444  16.671  0.00  0.00    +0.000 A 
ATOM      5  C   UNL     1       5.498   6.271  15.647  0.00  0.00    +0.000 A 
ATOM      6  C   UNL     1       5.865   4.977  15.256  0.00  0.00    +0.000 A 
ATOM      7  C   UNL     1       5.304   3.864  15.887  0.00  0.00    +0.000 A 
ATOM      8  C   UNL     1       4.366   4.050  16.907  0.00  0.00    +0.000 A 
BRANCH   6   9
ATOM      9  N   UNL     1       6.845   4.781  14.180  0.00  0.00    +0.000 N 
ATOM     10  O   UNL     1       6.563   3.973  13.283  0.00  0.00    +0.000 OA
ATOM     11  O   UNL     1       7.897   5.431  14.233  0.00  0.00    +0.000 OA
ENDBRANCH   6   9
ENDBRANCH   2   3
BRANCH   1  12
ATOM     12  C   UNL     1       1.962   6.827  20.245  0.00  0.00    +0.000 C 
ATOM     13  O   UNL     1       1.614   5.898  20.966  0.00  0.00    +0.000 OA
BRANCH  12  18
ATOM     14  C   UNL     1      -0.135  12.206  20.977  0.00  0.00    +0.000 C 
ATOM     15  C   UNL     1       0.418  10.823  20.791  0.00  0.00    +0.000 A 
ATOM     16  C   UNL     1       0.825  10.368  19.531  0.00  0.00    +0.000 A 
ATOM     17  C   UNL     1       1.334   9.071  19.375  0.00  0.00    +0.000 A 
ATOM     18  C   UNL     1       1.432   8.208  20.474  0.00  0.00    +0.000 A 
ATOM     19  C   UNL     1       1.045   8.671  21.738  0.00  0.00    +0.000 A 
ATOM     20  C   UNL     1       0.536   9.967  21.891  0.00  0.00    +0.000 A 
ENDBRANCH  12  18
ENDBRANCH   1  12
TORSDOF 4
ENDMDL
MODEL 7
REMARK VINA RESULT:      -7.1      3.326      8.444
REMARK  Name = 
REMARK  5 active torsions:
REMARK  status: ('A' for Active; 'I' for Inactive)
REMARK    1  A    between atoms: C_1  and  C_2
REMARK    2  A    between atoms: C_5  and  C_6
REMARK    3  A    between atoms: C_6  and  C_8
REMARK    4  A    between atoms: C_9  and  C_10
REMARK    5  A    between atoms: C_13  and  N_14
REMARK                            x       y       z     vdW  Elec       q    Type
REMARK                         _______ _______ _______ _____ _____    ______ ____
ROOT
ATOM      1  C   UNL     1       1.270   9.541  18.906  0.00  0.00    +0.000 C 
ATOM      2  C   UNL     1       2.073   8.961  17.997  0.00  0.00    +0.000 C 
ENDROOT
BRANCH   2   3
ATOM      3  C   UNL     1       2.722   7.655  18.218  0.00  0.00    +0.000 A 
ATOM      4  C   UNL     1       3.705   7.205  17.323  0.00  0.00    +0.000 A 
ATOM      5  C   UNL     1       4.334   5.965  17.509  0.00  0.00    +0.000 A 
ATOM      6  C   UNL     1       3.987   5.171  18.609  0.00  0.00    +0.000 A 
ATOM      7  C   UNL     1       3.029   5.614  19.524  0.00  0.00    +0.000 A 
ATOM      8  C   UNL     1       2.410   6.853  19.329  0.00  0.00    +0.000 A 
BRANCH   6   9
ATOM      9  N   UNL     1       4.632   3.867  18.812  0.00  0.00    +0.000 N 
ATOM     10  O   UNL     1       5.724   3.849  19.400  0.00  0.00    +0.000 OA
ATOM     11  O   UNL     1       4.050   2.863  18.383  0.00  0.00    +0.000 OA
ENDBRANCH   6   9
ENDBRANCH   2   3
BRANCH   1  12
ATOM     12  C   UNL     1       0.604  10.852  18.656  0.00  0.00    +0.000 C 
ATOM     13  O   UNL     1       1.236  11.903  18.626  0.00  0.00    +0.000 OA
BRANCH  12  18
ATOM     14  C   UNL     1      -5.128  10.959  17.655  0.00  0.00    +0.000 C 
ATOM     15  C   UNL     1      -3.651  10.923  17.923  0.00  0.00    +0.000 A 
ATOM     16  C   UNL     1      -3.056  11.808  18.829  0.00  0.00    +0.000 A 
ATOM     17  C   UNL     1      -1.675  11.763  19.063  0.00  0.00    +0.000 A 
ATOM     18  C   UNL     1      -0.868  10.840  18.385  0.00  0.00    +0.000 A 
ATOM     19  C   UNL     1      -1.467   9.940  17.494  0.00  0.00    +0.000 A 
ATOM     20  C   UNL     1      -2.847   9.988  17.262  0.00  0.00    +0.000 A 
ENDBRANCH  12  18
ENDBRANCH   1  12
TORSDOF 4
ENDMDL
MODEL 8
REMARK VINA RESULT:      -7.1      5.984      7.167
REMARK  Name = 
REMARK  5 active torsions:
REMARK  status: ('A' for Active; 'I' for Inactive)
REMARK    1  A    between atoms: C_1  and  C_2
REMARK    2  A    between atoms: C_5  and  C_6
REMARK    3  A    between atoms: C_6  and  C_8
REMARK    4  A    between atoms: C_9  and  C_10
REMARK    5  A    between atoms: C_13  and  N_14
REMARK                            x       y       z     vdW  Elec       q    Type
REMARK                         _______ _______ _______ _____ _____    ______ ____
ROOT
ATOM      1  C   UNL     1       7.932   7.658  18.035  0.00  0.00    +0.000 C 
ATOM      2  C   UNL     1       7.790   8.917  17.585  0.00  0.00    +0.000 C 
ENDROOT
BRANCH   2   3
ATOM      3  C   UNL     1       8.495  10.066  18.184  0.00  0.00    +0.000 A 
ATOM      4  C   UNL     1       9.310   9.873  19.310  0.00  0.00    +0.000 A 
ATOM      5  C   UNL     1       9.988  10.950  19.901  0.00  0.00    +0.000 A 
ATOM      6  C   UNL     1       9.861  12.232  19.353  0.00  0.00    +0.000 A 
ATOM      7  C   UNL     1       9.075  12.439  18.216  0.00  0.00    +0.000 A 
ATOM      8  C   UNL     1       8.405  11.356  17.635  0.00  0.00    +0.000 A 
BRANCH   6   9
ATOM      9  N   UNL     1      10.559  13.370  19.965  0.00  0.00    +0.000 N 
ATOM     10  O   UNL     1      11.791  13.295  20.084  0.00  0.00    +0.000 OA
ATOM     11  O   UNL     1       9.876  14.336  20.330  0.00  0.00    +0.000 OA
ENDBRANCH   6   9
ENDBRANCH   2   3
BRANCH   1  12
ATOM     12  C   UNL     1       7.228   6.505  17.402  0.00  0.00    +0.000 C 
ATOM     13  O   UNL     1       7.732   5.866  16.483  0.00  0.00    +0.000 OA
BRANCH  12  18
ATOM     14  C   UNL     1       1.986   5.015  19.443  0.00  0.00    +0.000 C 
ATOM     15  C   UNL     1       3.339   5.410  18.925  0.00  0.00    +0.000 A 
ATOM     16  C   UNL     1       3.474   6.294  17.848  0.00  0.00    +0.000 A 
ATOM     17  C   UNL     1       4.745   6.646  17.375  0.00  0.00    +0.000 A 
ATOM     18  C   UNL     1       5.898   6.111  17.963  0.00  0.00    +0.000 A 
ATOM     19  C   UNL     1       5.762   5.243  19.054  0.00  0.00    +0.000 A 
ATOM     20  C   UNL     1       4.491   4.892  19.525  0.00  0.00    +0.000 A 
ENDBRANCH  12  18
ENDBRANCH   1  12
TORSDOF 4
ENDMDL
MODEL 9
REMARK VINA RESULT:      -7.1      3.305      8.356
REMARK  Name = 
REMARK  5 active torsions:
REMARK  status: ('A' for Active; 'I' for Inactive)
REMARK    1  A    between atoms: C_1  and  C_2
REMARK    2  A    between atoms: C_5  and  C_6
REMARK    3  A    between atoms: C_6  and  C_8
REMARK    4  A    between atoms: C_9  and  C_10
REMARK    5  A    between atoms: C_13  and  N_14
REMARK                            x       y       z     vdW  Elec       q    Type
REMARK                         _______ _______ _______ _____ _____    ______ ____
ROOT
ATOM      1  C   UNL     1       1.282   9.279  18.867  0.00  0.00    +0.000 C 
ATOM      2  C   UNL     1       2.296   8.794  18.128  0.00  0.00    +0.000 C 
ENDROOT
BRANCH   2   3
ATOM      3  C   UNL     1       2.829   7.429  18.297  0.00  0.00    +0.000 A 
ATOM      4  C   UNL     1       3.797   6.944  17.405  0.00  0.00    +0.000 A 
ATOM      5  C   UNL     1       4.317   5.648  17.541  0.00  0.00    +0.000 A 
ATOM      6  C   UNL     1       3.874   4.832  18.589  0.00  0.00    +0.000 A 
ATOM      7  C   UNL     1       2.929   5.307  19.501  0.00  0.00    +0.000 A 
ATOM      8  C   UNL     1       2.420   6.601  19.356  0.00  0.00    +0.000 A 
BRANCH   6   9
ATOM      9  N   UNL     1       4.404   3.471  18.739  0.00  0.00    +0.000 N 
ATOM     10  O   UNL     1       3.910   2.578  18.033  0.00  0.00    +0.000 OA
ATOM     11  O   UNL     1       5.311   3.292  19.562  0.00  0.00    +0.000 OA
ENDBRANCH   6   9
ENDBRANCH   2   3
BRANCH   1  12
ATOM     12  C   UNL     1       0.741  10.655  18.666  0.00  0.00    +0.000 C 
ATOM     13  O   UNL     1       1.472  11.640  18.646  0.00  0.00    +0.000 OA
BRANCH  12  18
ATOM     14  C   UNL     1      -4.986  11.042  17.710  0.00  0.00    +0.000 C 
ATOM     15  C   UNL     1      -3.507  10.951  17.947  0.00  0.00    +0.000 A 
ATOM     16  C   UNL     1      -2.719  10.012  17.269  0.00  0.00    +0.000 A 
ATOM     17  C   UNL     1      -1.341   9.939  17.508  0.00  0.00    +0.000 A 
ATOM     18  C   UNL     1      -0.731  10.793  18.435  0.00  0.00    +0.000 A 
ATOM     19  C   UNL     1      -1.516  11.746  19.097  0.00  0.00    +0.000 A 
ATOM     20  C   UNL     1      -2.894  11.817  18.858  0.00  0.00    +0.000 A 
ENDBRANCH  12  18
ENDBRANCH   1  12
TORSDOF 4
ENDMDL
