MODEL 1
REMARK VINA RESULT:      -7.9      0.000      0.000
REMARK  Name = 
REMARK  5 active torsions:
REMARK  status: ('A' for Active; 'I' for Inactive)
REMARK    1  A    between atoms: C_1  and  O_2
REMARK    2  A    between atoms: O_2  and  C_3
REMARK    3  A    between atoms: C_9  and  O_10
REMARK    4  A    between atoms: C_11  and  N_12
REMARK    5  A    between atoms: C_15  and  C_16
REMARK                            x       y       z     vdW  Elec       q    Type
REMARK                         _______ _______ _______ _____ _____    ______ ____
ROOT
ATOM      1  N   UNL     1       2.254   5.009  18.508  0.00  0.00    +0.000 NA
ATOM      2  C   UNL     1       2.706   6.247  17.851  0.00  0.00    +0.000 C 
ATOM      3  C   UNL     1       3.217   7.341  18.788  0.00  0.00    +0.000 C 
ATOM      4  C   UNL     1       2.301   7.632  19.983  0.00  0.00    +0.000 C 
ATOM      5  C   UNL     1       1.749   6.340  20.599  0.00  0.00    +0.000 C 
ATOM      6  C   UNL     1       1.278   5.323  19.563  0.00  0.00    +0.000 C 
ENDROOT
BRANCH   4   7
ATOM      7  C   UNL     1       1.225   8.678  19.688  0.00  0.00    +0.000 A 
ATOM      8  C   UNL     1       0.898   9.058  18.373  0.00  0.00    +0.000 A 
ATOM      9  C   UNL     1      -0.089  10.011  18.106  0.00  0.00    +0.000 A 
ATOM     10  C   UNL     1      -0.767  10.617  19.153  0.00  0.00    +0.000 A 
ATOM     11  C   UNL     1      -0.455  10.276  20.465  0.00  0.00    +0.000 A 
ATOM     12  C   UNL     1       0.518   9.298  20.737  0.00  0.00    +0.000 A 
ATOM     13  O   UNL     1       0.824   8.920  22.023  0.00  0.00    +0.000 OA
ATOM     14  C   UNL     1      -0.146   9.368  22.973  0.00  0.00    +0.000 C 
ATOM     15  C   UNL     1      -0.513  10.816  22.712  0.00  0.00    +0.000 C 
ATOM     16  O   UNL     1      -1.152  10.943  21.441  0.00  0.00    +0.000 OA
ENDBRANCH   4   7
BRANCH   1  24
ATOM     17  C   UNL     1       6.416   4.521  15.355  0.00  0.00    +0.000 A 
ATOM     18  C   UNL     1       6.875   5.579  16.160  0.00  0.00    +0.000 A 
ATOM     19  C   UNL     1       6.380   5.770  17.453  0.00  0.00    +0.000 A 
ATOM     20  C   UNL     1       5.404   4.903  17.913  0.00  0.00    +0.000 A 
ATOM     21  C   UNL     1       4.949   3.850  17.122  0.00  0.00    +0.000 A 
ATOM     22  C   UNL     1       5.457   3.633  15.849  0.00  0.00    +0.000 A 
ATOM     23  C   UNL     1       3.863   3.087  17.825  0.00  0.00    +0.000 C 
ATOM     24  C   UNL     1       3.373   4.110  18.920  0.00  0.00    +0.000 C 
ATOM     25  C   UNL     1       4.686   4.919  19.226  0.00  0.00    +0.000 C 
BRANCH  17  27
ATOM     26  C   UNL     1       6.254   3.738  13.120  0.00  0.00    +0.000 C 
ATOM     27  O   UNL     1       6.973   4.472  14.104  0.00  0.00    +0.000 OA
ENDBRANCH  17  27
BRANCH  23  28
ATOM     28  O   UNL     1       4.369   1.909  18.450  0.00  0.00    +0.000 OA
ATOM     29  H   UNL     1       4.634   1.292  17.744  0.00  0.00    +0.000 HD
ENDBRANCH  23  28
ENDBRANCH   1  24
TORSDOF 4
ENDMDL
MODEL 2
REMARK VINA RESULT:      -7.9      2.184      3.165
REMARK  Name = 
REMARK  5 active torsions:
REMARK  status: ('A' for Active; 'I' for Inactive)
REMARK    1  A    between atoms: C_1  and  O_2
REMARK    2  A    between atoms: O_2  and  C_3
REMARK    3  A    between atoms: C_9  and  O_10
REMARK    4  A    between atoms: C_11  and  N_12
REMARK    5  A    between atoms: C_15  and  C_16
REMARK                            x       y       z     vdW  Elec       q    Type
REMARK                         _______ _______ _______ _____ _____    ______ ____
ROOT
ATOM      1  N   UNL     1       2.554   7.814  19.399  0.00  0.00    +0.000 NA
ATOM      2  C   UNL     1       1.824   8.498  20.480  0.00  0.00    +0.000 C 
ATOM      3  C   UNL     1       0.399   8.931  20.141  0.00  0.00    +0.000 C 
ATOM      4  C   UNL     1       0.260   9.669  18.803  0.00  0.00    +0.000 C 
ATOM      5  C   UNL     1       1.107   9.011  17.705  0.00  0.00    +0.000 C 
ATOM      6  C   UNL     1       2.507   8.617  18.169  0.00  0.00    +0.000 C 
ENDROOT
BRANCH   4   7
ATOM      7  C   UNL     1       0.470  11.179  18.915  0.00  0.00    +0.000 A 
ATOM      8  C   UNL     1       1.697  11.787  18.592  0.00  0.00    +0.000 A 
ATOM      9  C   UNL     1       1.883  13.168  18.691  0.00  0.00    +0.000 A 
ATOM     10  C   UNL     1       0.846  13.977  19.130  0.00  0.00    +0.000 A 
ATOM     11  C   UNL     1      -0.375  13.406  19.473  0.00  0.00    +0.000 A 
ATOM     12  C   UNL     1      -0.576  12.019  19.349  0.00  0.00    +0.000 A 
ATOM     13  O   UNL     1      -1.781  11.433  19.653  0.00  0.00    +0.000 OA
ATOM     14  C   UNL     1      -2.840  12.385  19.778  0.00  0.00    +0.000 C 
ATOM     15  C   UNL     1      -2.387  13.575  20.600  0.00  0.00    +0.000 C 
ATOM     16  O   UNL     1      -1.338  14.273  19.925  0.00  0.00    +0.000 OA
ENDBRANCH   4   7
BRANCH   1  24
ATOM     17  C   UNL     1       5.817   4.586  16.859  0.00  0.00    +0.000 A 
ATOM     18  C   UNL     1       6.292   4.391  18.169  0.00  0.00    +0.000 A 
ATOM     19  C   UNL     1       5.470   4.621  19.277  0.00  0.00    +0.000 A 
ATOM     20  C   UNL     1       4.181   5.071  19.052  0.00  0.00    +0.000 A 
ATOM     21  C   UNL     1       3.703   5.262  17.757  0.00  0.00    +0.000 A 
ATOM     22  C   UNL     1       4.501   5.007  16.650  0.00  0.00    +0.000 A 
ATOM     23  C   UNL     1       2.300   5.797  17.781  0.00  0.00    +0.000 C 
ATOM     24  C   UNL     1       2.175   6.378  19.241  0.00  0.00    +0.000 C 
ATOM     25  C   UNL     1       3.131   5.431  20.056  0.00  0.00    +0.000 C 
BRANCH  17  27
ATOM     26  C   UNL     1       6.223   3.988  14.599  0.00  0.00    +0.000 C 
ATOM     27  O   UNL     1       6.739   4.346  15.876  0.00  0.00    +0.000 OA
ENDBRANCH  17  27
BRANCH  23  28
ATOM     28  O   UNL     1       1.340   4.762  17.583  0.00  0.00    +0.000 OA
ATOM     29  H   UNL     1       1.658   4.201  16.854  0.00  0.00    +0.000 HD
ENDBRANCH  23  28
ENDBRANCH   1  24
TORSDOF 4
ENDMDL
MODEL 3
REMARK VINA RESULT:      -7.9      2.892      9.643
REMARK  Name = 
REMARK  5 active torsions:
REMARK  status: ('A' for Active; 'I' for Inactive)
REMARK    1  A    between atoms: C_1  and  O_2
REMARK    2  A    between atoms: O_2  and  C_3
REMARK    3  A    between atoms: C_9  and  O_10
REMARK    4  A    between atoms: C_11  and  N_12
REMARK    5  A    between atoms: C_15  and  C_16
REMARK                            x       y       z     vdW  Elec       q    Type
REMARK                         _______ _______ _______ _____ _____    ______ ____
ROOT
ATOM      1  N   UNL     1      -0.542   9.983  19.750  0.00  0.00    +0.000 NA
ATOM      2  C   UNL     1      -0.168   9.229  20.959  0.00  0.00    +0.000 C 
ATOM      3  C   UNL     1       1.331   9.017  21.166  0.00  0.00    +0.000 C 
ATOM      4  C   UNL     1       2.078   8.511  19.926  0.00  0.00    +0.000 C 
ATOM      5  C   UNL     1       1.609   9.228  18.653  0.00  0.00    +0.000 C 
ATOM      6  C   UNL     1       0.093   9.386  18.565  0.00  0.00    +0.000 C 
ENDROOT
BRANCH   4   7
ATOM      7  C   UNL     1       2.091   6.987  19.801  0.00  0.00    +0.000 A 
ATOM      8  C   UNL     1       1.268   6.168  20.595  0.00  0.00    +0.000 A 
ATOM      9  C   UNL     1       1.280   4.776  20.475  0.00  0.00    +0.000 A 
ATOM     10  C   UNL     1       2.127   4.166  19.562  0.00  0.00    +0.000 A 
ATOM     11  C   UNL     1       2.965   4.947  18.773  0.00  0.00    +0.000 A 
ATOM     12  C   UNL     1       2.938   6.350  18.871  0.00  0.00    +0.000 A 
ATOM     13  O   UNL     1       3.734   7.146  18.083  0.00  0.00    +0.000 OA
ATOM     14  C   UNL     1       4.308   6.434  16.985  0.00  0.00    +0.000 C 
ATOM     15  C   UNL     1       4.854   5.098  17.448  0.00  0.00    +0.000 C 
ATOM     16  O   UNL     1       3.792   4.264  17.917  0.00  0.00    +0.000 OA
ENDBRANCH   4   7
BRANCH   1  24
ATOM     17  C   UNL     1      -4.352  12.780  22.024  0.00  0.00    +0.000 A 
ATOM     18  C   UNL     1      -3.571  12.508  23.162  0.00  0.00    +0.000 A 
ATOM     19  C   UNL     1      -2.206  12.228  23.052  0.00  0.00    +0.000 A 
ATOM     20  C   UNL     1      -1.645  12.201  21.787  0.00  0.00    +0.000 A 
ATOM     21  C   UNL     1      -2.412  12.475  20.656  0.00  0.00    +0.000 A 
ATOM     22  C   UNL     1      -3.761  12.785  20.758  0.00  0.00    +0.000 A 
ATOM     23  C   UNL     1      -1.587  12.337  19.408  0.00  0.00    +0.000 C 
ATOM     24  C   UNL     1      -0.370  11.460  19.892  0.00  0.00    +0.000 C 
ATOM     25  C   UNL     1      -0.234  11.887  21.399  0.00  0.00    +0.000 C 
BRANCH  17  27
ATOM     26  C   UNL     1      -6.608  12.424  21.382  0.00  0.00    +0.000 C 
ATOM     27  O   UNL     1      -5.676  13.012  22.282  0.00  0.00    +0.000 OA
ENDBRANCH  17  27
BRANCH  23  28
ATOM     28  O   UNL     1      -1.123  13.602  18.943  0.00  0.00    +0.000 OA
ATOM     29  H   UNL     1      -0.548  13.977  19.634  0.00  0.00    +0.000 HD
ENDBRANCH  23  28
ENDBRANCH   1  24
TORSDOF 4
ENDMDL
MODEL 4
REMARK VINA RESULT:      -7.7      2.385      9.244
REMARK  Name = 
REMARK  5 active torsions:
REMARK  status: ('A' for Active; 'I' for Inactive)
REMARK    1  A    between atoms: C_1  and  O_2
REMARK    2  A    between atoms: O_2  and  C_3
REMARK    3  A    between atoms: C_9  and  O_10
REMARK    4  A    between atoms: C_11  and  N_12
REMARK    5  A    between atoms: C_15  and  C_16
REMARK                            x       y       z     vdW  Elec       q    Type
REMARK                         _______ _______ _______ _____ _____    ______ ____
ROOT
ATOM      1  N   UNL     1       0.385   9.527  19.180  0.00  0.00    +0.000 NA
ATOM      2  C   UNL     1       0.731   8.548  20.224  0.00  0.00    +0.000 C 
ATOM      3  C   UNL     1       2.201   8.134  20.278  0.00  0.00    +0.000 C 
ATOM      4  C   UNL     1       2.805   7.757  18.920  0.00  0.00    +0.000 C 
ATOM      5  C   UNL     1       2.356   8.721  17.814  0.00  0.00    +0.000 C 
ATOM      6  C   UNL     1       0.869   9.065  17.871  0.00  0.00    +0.000 C 
ENDROOT
BRANCH   4   7
ATOM      7  C   UNL     1       2.620   6.282  18.558  0.00  0.00    +0.000 A 
ATOM      8  C   UNL     1       1.557   5.517  19.074  0.00  0.00    +0.000 A 
ATOM      9  C   UNL     1       1.388   4.172  18.738  0.00  0.00    +0.000 A 
ATOM     10  C   UNL     1       2.289   3.553  17.883  0.00  0.00    +0.000 A 
ATOM     11  C   UNL     1       3.359   4.277  17.370  0.00  0.00    +0.000 A 
ATOM     12  C   UNL     1       3.518   5.639  17.683  0.00  0.00    +0.000 A 
ATOM     13  O   UNL     1       4.550   6.385  17.166  0.00  0.00    +0.000 OA
ATOM     14  C   UNL     1       5.202   5.736  16.072  0.00  0.00    +0.000 C 
ATOM     15  C   UNL     1       5.457   4.278  16.398  0.00  0.00    +0.000 C 
ATOM     16  O   UNL     1       4.219   3.582  16.556  0.00  0.00    +0.000 OA
ENDBRANCH   4   7
BRANCH   1  24
ATOM     17  C   UNL     1      -3.050  12.441  21.867  0.00  0.00    +0.000 A 
ATOM     18  C   UNL     1      -2.327  11.904  22.948  0.00  0.00    +0.000 A 
ATOM     19  C   UNL     1      -1.009  11.465  22.788  0.00  0.00    +0.000 A 
ATOM     20  C   UNL     1      -0.441  11.549  21.529  0.00  0.00    +0.000 A 
ATOM     21  C   UNL     1      -1.150  12.086  20.456  0.00  0.00    +0.000 A 
ATOM     22  C   UNL     1      -2.448  12.553  20.611  0.00  0.00    +0.000 A 
ATOM     23  C   UNL     1      -0.336  12.024  19.196  0.00  0.00    +0.000 C 
ATOM     24  C   UNL     1       0.748  10.931  19.537  0.00  0.00    +0.000 C 
ATOM     25  C   UNL     1       0.921  11.111  21.089  0.00  0.00    +0.000 C 
BRANCH  17  27
ATOM     26  C   UNL     1      -5.308  12.581  21.152  0.00  0.00    +0.000 C 
ATOM     27  O   UNL     1      -4.336  12.806  22.166  0.00  0.00    +0.000 OA
ENDBRANCH  17  27
BRANCH  23  28
ATOM     28  O   UNL     1       0.298  13.270  18.918  0.00  0.00    +0.000 OA
ATOM     29  H   UNL     1      -0.239  13.971  19.328  0.00  0.00    +0.000 HD
ENDBRANCH  23  28
ENDBRANCH   1  24
TORSDOF 4
ENDMDL
MODEL 5
REMARK VINA RESULT:      -7.5      1.987      2.923
REMARK  Name = 
REMARK  5 active torsions:
REMARK  status: ('A' for Active; 'I' for Inactive)
REMARK    1  A    between atoms: C_1  and  O_2
REMARK    2  A    between atoms: O_2  and  C_3
REMARK    3  A    between atoms: C_9  and  O_10
REMARK    4  A    between atoms: C_11  and  N_12
REMARK    5  A    between atoms: C_15  and  C_16
REMARK                            x       y       z     vdW  Elec       q    Type
REMARK                         _______ _______ _______ _____ _____    ______ ____
ROOT
ATOM      1  N   UNL     1       2.445   7.794  19.517  0.00  0.00    +0.000 NA
ATOM      2  C   UNL     1       1.882   8.355  20.757  0.00  0.00    +0.000 C 
ATOM      3  C   UNL     1       0.420   8.790  20.679  0.00  0.00    +0.000 C 
ATOM      4  C   UNL     1       0.078   9.652  19.458  0.00  0.00    +0.000 C 
ATOM      5  C   UNL     1       0.753   9.123  18.186  0.00  0.00    +0.000 C 
ATOM      6  C   UNL     1       2.209   8.713  18.393  0.00  0.00    +0.000 C 
ENDROOT
BRANCH   4   7
ATOM      7  C   UNL     1       0.294  11.149  19.688  0.00  0.00    +0.000 A 
ATOM      8  C   UNL     1       1.124  11.918  18.851  0.00  0.00    +0.000 A 
ATOM      9  C   UNL     1       1.317  13.286  19.062  0.00  0.00    +0.000 A 
ATOM     10  C   UNL     1       0.689  13.918  20.125  0.00  0.00    +0.000 A 
ATOM     11  C   UNL     1      -0.125  13.182  20.980  0.00  0.00    +0.000 A 
ATOM     12  C   UNL     1      -0.343  11.811  20.757  0.00  0.00    +0.000 A 
ATOM     13  O   UNL     1      -1.166  11.067  21.568  0.00  0.00    +0.000 OA
ATOM     14  C   UNL     1      -1.987  11.880  22.410  0.00  0.00    +0.000 C 
ATOM     15  C   UNL     1      -1.168  12.992  23.034  0.00  0.00    +0.000 C 
ATOM     16  O   UNL     1      -0.684  13.878  22.023  0.00  0.00    +0.000 OA
ENDBRANCH   4   7
BRANCH   1  24
ATOM     17  C   UNL     1       5.755   4.647  16.938  0.00  0.00    +0.000 A 
ATOM     18  C   UNL     1       6.180   4.381  18.253  0.00  0.00    +0.000 A 
ATOM     19  C   UNL     1       5.322   4.568  19.341  0.00  0.00    +0.000 A 
ATOM     20  C   UNL     1       4.048   5.049  19.092  0.00  0.00    +0.000 A 
ATOM     21  C   UNL     1       3.620   5.309  17.792  0.00  0.00    +0.000 A 
ATOM     22  C   UNL     1       4.453   5.097  16.703  0.00  0.00    +0.000 A 
ATOM     23  C   UNL     1       2.224   5.863  17.793  0.00  0.00    +0.000 C 
ATOM     24  C   UNL     1       2.053   6.373  19.274  0.00  0.00    +0.000 C 
ATOM     25  C   UNL     1       2.966   5.374  20.075  0.00  0.00    +0.000 C 
BRANCH  17  27
ATOM     26  C   UNL     1       6.251   4.388  14.632  0.00  0.00    +0.000 C 
ATOM     27  O   UNL     1       6.710   4.442  15.978  0.00  0.00    +0.000 OA
ENDBRANCH  17  27
BRANCH  23  28
ATOM     28  O   UNL     1       1.258   4.853  17.511  0.00  0.00    +0.000 OA
ATOM     29  H   UNL     1       0.376   5.257  17.595  0.00  0.00    +0.000 HD
ENDBRANCH  23  28
ENDBRANCH   1  24
TORSDOF 4
ENDMDL
MODEL 6
REMARK VINA RESULT:      -7.4      3.489      9.020
REMARK  Name = 
REMARK  5 active torsions:
REMARK  status: ('A' for Active; 'I' for Inactive)
REMARK    1  A    between atoms: C_1  and  O_2
REMARK    2  A    between atoms: O_2  and  C_3
REMARK    3  A    between atoms: C_9  and  O_10
REMARK    4  A    between atoms: C_11  and  N_12
REMARK    5  A    between atoms: C_15  and  C_16
REMARK                            x       y       z     vdW  Elec       q    Type
REMARK                         _______ _______ _______ _____ _____    ______ ____
ROOT
ATOM      1  N   UNL     1       0.383   9.388  19.630  0.00  0.00    +0.000 NA
ATOM      2  C   UNL     1       0.324   8.292  20.612  0.00  0.00    +0.000 C 
ATOM      3  C   UNL     1       1.650   7.589  20.897  0.00  0.00    +0.000 C 
ATOM      4  C   UNL     1       2.438   7.188  19.643  0.00  0.00    +0.000 C 
ATOM      5  C   UNL     1       2.409   8.294  18.581  0.00  0.00    +0.000 C 
ATOM      6  C   UNL     1       1.031   8.925  18.394  0.00  0.00    +0.000 C 
ENDROOT
BRANCH   4   7
ATOM      7  C   UNL     1       2.063   5.809  19.101  0.00  0.00    +0.000 A 
ATOM      8  C   UNL     1       1.792   5.593  17.737  0.00  0.00    +0.000 A 
ATOM      9  C   UNL     1       1.453   4.331  17.244  0.00  0.00    +0.000 A 
ATOM     10  C   UNL     1       1.366   3.250  18.110  0.00  0.00    +0.000 A 
ATOM     11  C   UNL     1       1.611   3.433  19.467  0.00  0.00    +0.000 A 
ATOM     12  C   UNL     1       1.979   4.696  19.963  0.00  0.00    +0.000 A 
ATOM     13  O   UNL     1       2.256   4.898  21.294  0.00  0.00    +0.000 OA
ATOM     14  C   UNL     1       2.444   3.674  22.008  0.00  0.00    +0.000 C 
ATOM     15  C   UNL     1       1.367   2.674  21.637  0.00  0.00    +0.000 C 
ATOM     16  O   UNL     1       1.475   2.319  20.257  0.00  0.00    +0.000 OA
ENDBRANCH   4   7
BRANCH   1  24
ATOM     17  C   UNL     1      -2.946  12.794  21.826  0.00  0.00    +0.000 A 
ATOM     18  C   UNL     1      -2.598  12.058  22.973  0.00  0.00    +0.000 A 
ATOM     19  C   UNL     1      -1.386  11.365  23.047  0.00  0.00    +0.000 A 
ATOM     20  C   UNL     1      -0.546  11.401  21.948  0.00  0.00    +0.000 A 
ATOM     21  C   UNL     1      -0.882  12.133  20.810  0.00  0.00    +0.000 A 
ATOM     22  C   UNL     1      -2.069  12.849  20.740  0.00  0.00    +0.000 A 
ATOM     23  C   UNL     1       0.166  11.974  19.747  0.00  0.00    +0.000 C 
ATOM     24  C   UNL     1       0.918  10.663  20.193  0.00  0.00    +0.000 C 
ATOM     25  C   UNL     1       0.771  10.715  21.758  0.00  0.00    +0.000 C 
BRANCH  17  27
ATOM     26  C   UNL     1      -4.505  14.031  23.118  0.00  0.00    +0.000 C 
ATOM     27  O   UNL     1      -4.172  13.400  21.887  0.00  0.00    +0.000 OA
ENDBRANCH  17  27
BRANCH  23  28
ATOM     28  O   UNL     1       1.071  13.076  19.733  0.00  0.00    +0.000 OA
ATOM     29  H   UNL     1       0.540  13.893  19.738  0.00  0.00    +0.000 HD
ENDBRANCH  23  28
ENDBRANCH   1  24
TORSDOF 4
ENDMDL
MODEL 7
REMARK VINA RESULT:      -7.3      1.103      1.287
REMARK  Name = 
REMARK  5 active torsions:
REMARK  status: ('A' for Active; 'I' for Inactive)
REMARK    1  A    between atoms: C_1  and  O_2
REMARK    2  A    between atoms: O_2  and  C_3
REMARK    3  A    between atoms: C_9  and  O_10
REMARK    4  A    between atoms: C_11  and  N_12
REMARK    5  A    between atoms: C_15  and  C_16
REMARK                            x       y       z     vdW  Elec       q    Type
REMARK                         _______ _______ _______ _____ _____    ______ ____
ROOT
ATOM      1  N   UNL     1       2.284   5.848  18.935  0.00  0.00    +0.000 NA
ATOM      2  C   UNL     1       2.313   6.816  17.826  0.00  0.00    +0.000 C 
ATOM      3  C   UNL     1       2.709   8.242  18.206  0.00  0.00    +0.000 C 
ATOM      4  C   UNL     1       1.973   8.800  19.430  0.00  0.00    +0.000 C 
ATOM      5  C   UNL     1       1.854   7.752  20.544  0.00  0.00    +0.000 C 
ATOM      6  C   UNL     1       1.461   6.366  20.038  0.00  0.00    +0.000 C 
ENDROOT
BRANCH   4   7
ATOM      7  C   UNL     1       0.648   9.483  19.088  0.00  0.00    +0.000 A 
ATOM      8  C   UNL     1       0.028   9.317  17.836  0.00  0.00    +0.000 A 
ATOM      9  C   UNL     1      -1.185   9.939  17.527  0.00  0.00    +0.000 A 
ATOM     10  C   UNL     1      -1.803  10.754  18.464  0.00  0.00    +0.000 A 
ATOM     11  C   UNL     1      -1.207  10.951  19.705  0.00  0.00    +0.000 A 
ATOM     12  C   UNL     1      -0.000  10.306  20.030  0.00  0.00    +0.000 A 
ATOM     13  O   UNL     1       0.594  10.460  21.259  0.00  0.00    +0.000 OA
ATOM     14  C   UNL     1      -0.282  11.047  22.224  0.00  0.00    +0.000 C 
ATOM     15  C   UNL     1      -1.016  12.229  21.623  0.00  0.00    +0.000 C 
ATOM     16  O   UNL     1      -1.870  11.794  20.562  0.00  0.00    +0.000 OA
ENDBRANCH   4   7
BRANCH   1  24
ATOM     17  C   UNL     1       5.555   4.166  15.195  0.00  0.00    +0.000 A 
ATOM     18  C   UNL     1       5.957   5.513  15.248  0.00  0.00    +0.000 A 
ATOM     19  C   UNL     1       5.763   6.280  16.401  0.00  0.00    +0.000 A 
ATOM     20  C   UNL     1       5.140   5.685  17.484  0.00  0.00    +0.000 A 
ATOM     21  C   UNL     1       4.743   4.350  17.440  0.00  0.00    +0.000 A 
ATOM     22  C   UNL     1       4.960   3.571  16.311  0.00  0.00    +0.000 A 
ATOM     23  C   UNL     1       4.052   3.957  18.714  0.00  0.00    +0.000 C 
ATOM     24  C   UNL     1       3.636   5.349  19.326  0.00  0.00    +0.000 C 
ATOM     25  C   UNL     1       4.778   6.295  18.802  0.00  0.00    +0.000 C 
BRANCH  17  27
ATOM     26  C   UNL     1       6.731   4.173  13.134  0.00  0.00    +0.000 C 
ATOM     27  O   UNL     1       5.786   3.548  13.995  0.00  0.00    +0.000 OA
ENDBRANCH  17  27
BRANCH  23  28
ATOM     28  O   UNL     1       4.936   3.278  19.603  0.00  0.00    +0.000 OA
ATOM     29  H   UNL     1       4.597   3.402  20.507  0.00  0.00    +0.000 HD
ENDBRANCH  23  28
ENDBRANCH   1  24
TORSDOF 4
ENDMDL
MODEL 8
REMARK VINA RESULT:      -7.3      2.707      9.187
REMARK  Name = 
REMARK  5 active torsions:
REMARK  status: ('A' for Active; 'I' for Inactive)
REMARK    1  A    between atoms: C_1  and  O_2
REMARK    2  A    between atoms: O_2  and  C_3
REMARK    3  A    between atoms: C_9  and  O_10
REMARK    4  A    between atoms: C_11  and  N_12
REMARK    5  A    between atoms: C_15  and  C_16
REMARK                            x       y       z     vdW  Elec       q    Type
REMARK                         _______ _______ _______ _____ _____    ______ ____
ROOT
ATOM      1  N   UNL     1       0.385   9.566  19.152  0.00  0.00    +0.000 NA
ATOM      2  C   UNL     1       0.684   8.539  20.164  0.00  0.00    +0.000 C 
ATOM      3  C   UNL     1       2.138   8.074  20.220  0.00  0.00    +0.000 C 
ATOM      4  C   UNL     1       2.746   7.725  18.856  0.00  0.00    +0.000 C 
ATOM      5  C   UNL     1       2.344   8.742  17.781  0.00  0.00    +0.000 C 
ATOM      6  C   UNL     1       0.869   9.134  17.832  0.00  0.00    +0.000 C 
ENDROOT
BRANCH   4   7
ATOM      7  C   UNL     1       2.516   6.271  18.439  0.00  0.00    +0.000 A 
ATOM      8  C   UNL     1       1.321   5.853  17.825  0.00  0.00    +0.000 A 
ATOM      9  C   UNL     1       1.115   4.525  17.443  0.00  0.00    +0.000 A 
ATOM     10  C   UNL     1       2.100   3.577  17.676  0.00  0.00    +0.000 A 
ATOM     11  C   UNL     1       3.286   3.955  18.296  0.00  0.00    +0.000 A 
ATOM     12  C   UNL     1       3.509   5.295  18.658  0.00  0.00    +0.000 A 
ATOM     13  O   UNL     1       4.684   5.700  19.245  0.00  0.00    +0.000 OA
ATOM     14  C   UNL     1       5.718   4.720  19.137  0.00  0.00    +0.000 C 
ATOM     15  C   UNL     1       5.180   3.343  19.473  0.00  0.00    +0.000 C 
ATOM     16  O   UNL     1       4.195   2.950  18.515  0.00  0.00    +0.000 OA
ENDBRANCH   4   7
BRANCH   1  24
ATOM     17  C   UNL     1      -3.000  12.516  21.863  0.00  0.00    +0.000 A 
ATOM     18  C   UNL     1      -2.321  11.917  22.940  0.00  0.00    +0.000 A 
ATOM     19  C   UNL     1      -1.017  11.435  22.793  0.00  0.00    +0.000 A 
ATOM     20  C   UNL     1      -0.419  11.540  21.549  0.00  0.00    +0.000 A 
ATOM     21  C   UNL     1      -1.084  12.137  20.480  0.00  0.00    +0.000 A 
ATOM     22  C   UNL     1      -2.367  12.646  20.625  0.00  0.00    +0.000 A 
ATOM     23  C   UNL     1      -0.246  12.086  19.236  0.00  0.00    +0.000 C 
ATOM     24  C   UNL     1       0.791  10.944  19.562  0.00  0.00    +0.000 C 
ATOM     25  C   UNL     1       0.936  11.066  21.123  0.00  0.00    +0.000 C 
BRANCH  17  27
ATOM     26  C   UNL     1      -4.617  13.021  23.526  0.00  0.00    +0.000 C 
ATOM     27  O   UNL     1      -4.278  12.918  22.148  0.00  0.00    +0.000 OA
ENDBRANCH  17  27
BRANCH  23  28
ATOM     28  O   UNL     1       0.439  13.316  19.013  0.00  0.00    +0.000 OA
ATOM     29  H   UNL     1      -0.159  14.038  19.278  0.00  0.00    +0.000 HD
ENDBRANCH  23  28
ENDBRANCH   1  24
TORSDOF 4
ENDMDL
MODEL 9
REMARK VINA RESULT:      -7.2      7.263      9.004
REMARK  Name = 
REMARK  5 active torsions:
REMARK  status: ('A' for Active; 'I' for Inactive)
REMARK    1  A    between atoms: C_1  and  O_2
REMARK    2  A    between atoms: O_2  and  C_3
REMARK    3  A    between atoms: C_9  and  O_10
REMARK    4  A    between atoms: C_11  and  N_12
REMARK    5  A    between atoms: C_15  and  C_16
REMARK                            x       y       z     vdW  Elec       q    Type
REMARK                         _______ _______ _______ _____ _____    ______ ____
ROOT
ATOM      1  N   UNL     1       1.702  13.609  19.761  0.00  0.00    +0.000 NA
ATOM      2  C   UNL     1       0.612  14.155  18.935  0.00  0.00    +0.000 C 
ATOM      3  C   UNL     1      -0.785  14.066  19.545  0.00  0.00    +0.000 C 
ATOM      4  C   UNL     1      -1.141  12.689  20.120  0.00  0.00    +0.000 C 
ATOM      5  C   UNL     1       0.036  12.079  20.893  0.00  0.00    +0.000 C 
ATOM      6  C   UNL     1       1.379  12.238  20.184  0.00  0.00    +0.000 C 
ENDROOT
BRANCH   4   7
ATOM      7  C   UNL     1      -1.757  11.739  19.093  0.00  0.00    +0.000 A 
ATOM      8  C   UNL     1      -0.975  10.829  18.358  0.00  0.00    +0.000 A 
ATOM      9  C   UNL     1      -1.541   9.960  17.422  0.00  0.00    +0.000 A 
ATOM     10  C   UNL     1      -2.909   9.988  17.190  0.00  0.00    +0.000 A 
ATOM     11  C   UNL     1      -3.707  10.887  17.888  0.00  0.00    +0.000 A 
ATOM     12  C   UNL     1      -3.145  11.746  18.850  0.00  0.00    +0.000 A 
ATOM     13  O   UNL     1      -3.916  12.623  19.575  0.00  0.00    +0.000 OA
ATOM     14  C   UNL     1      -5.313  12.335  19.481  0.00  0.00    +0.000 C 
ATOM     15  C   UNL     1      -5.698  12.053  18.042  0.00  0.00    +0.000 C 
ATOM     16  O   UNL     1      -5.044  10.870  17.578  0.00  0.00    +0.000 OA
ENDBRANCH   4   7
BRANCH   1  24
ATOM     17  C   UNL     1       6.470  15.780  19.499  0.00  0.00    +0.000 A 
ATOM     18  C   UNL     1       5.735  16.787  18.847  0.00  0.00    +0.000 A 
ATOM     19  C   UNL     1       4.366  16.949  19.082  0.00  0.00    +0.000 A 
ATOM     20  C   UNL     1       3.746  16.074  19.956  0.00  0.00    +0.000 A 
ATOM     21  C   UNL     1       4.469  15.077  20.609  0.00  0.00    +0.000 A 
ATOM     22  C   UNL     1       5.834  14.928  20.406  0.00  0.00    +0.000 A 
ATOM     23  C   UNL     1       3.564  14.235  21.461  0.00  0.00    +0.000 C 
ATOM     24  C   UNL     1       2.141  14.529  20.853  0.00  0.00    +0.000 C 
ATOM     25  C   UNL     1       2.300  16.007  20.338  0.00  0.00    +0.000 C 
BRANCH  17  27
ATOM     26  C   UNL     1       8.306  14.441  18.814  0.00  0.00    +0.000 C 
ATOM     27  O   UNL     1       7.794  15.725  19.153  0.00  0.00    +0.000 OA
ENDBRANCH  17  27
BRANCH  23  28
ATOM     28  O   UNL     1       3.604  14.640  22.828  0.00  0.00    +0.000 OA
ATOM     29  H   UNL     1       4.487  15.013  22.999  0.00  0.00    +0.000 HD
ENDBRANCH  23  28
ENDBRANCH   1  24
TORSDOF 4
ENDMDL
