MODEL 1
REMARK VINA RESULT:      -7.9      0.000      0.000
REMARK  Name = 
REMARK  11 active torsions:
REMARK  status: ('A' for Active; 'I' for Inactive)
REMARK    1  A    between atoms: C_1  and  C_2
REMARK    2  A    between atoms: C_2  and  O_4
REMARK    3  A    between atoms: O_4  and  C_5
REMARK    4  A    between atoms: C_10  and  C_11
REMARK    5  A    between atoms: C_14  and  C_15
REMARK    6  A    between atoms: C_19  and  O_20
REMARK    7  A    between atoms: O_20  and  C_21
REMARK    8  A    between atoms: C_21  and  C_22
REMARK    9  A    between atoms: C_24  and  O_25
REMARK   10  A    between atoms: O_25  and  C_26
REMARK   11  A    between atoms: C_26  and  C_27
REMARK                            x       y       z     vdW  Elec       q    Type
REMARK                         _______ _______ _______ _____ _____    ______ ____
ROOT
ATOM      1  C   UNL     1       2.361   7.282  19.438  0.00  0.00    +0.000 A 
ATOM      2  C   UNL     1       2.149   6.160  20.209  0.00  0.00    +0.000 A 
ATOM      3  N   UNL     1       3.187   5.274  20.074  0.00  0.00    +0.000 NA
ATOM      4  C   UNL     1       3.988   5.848  19.196  0.00  0.00    +0.000 A 
ATOM      5  O   UNL     1       3.556   7.090  18.779  0.00  0.00    +0.000 OA
ENDROOT
BRANCH   1  11
ATOM      6  C   UNL     1       1.062   9.279  20.255  0.00  0.00    +0.000 A 
ATOM      7  C   UNL     1       0.479  10.536  20.027  0.00  0.00    +0.000 A 
ATOM      8  C   UNL     1       0.421  11.052  18.739  0.00  0.00    +0.000 A 
ATOM      9  C   UNL     1       0.954  10.320  17.683  0.00  0.00    +0.000 A 
ATOM     10  C   UNL     1       1.555   9.074  17.914  0.00  0.00    +0.000 A 
ATOM     11  C   UNL     1       1.638   8.533  19.209  0.00  0.00    +0.000 A 
BRANCH   6  12
ATOM     12  O   UNL     1       1.176   8.837  21.590  0.00  0.00    +0.000 OA
BRANCH  12  14
ATOM     13  C   UNL     1       0.054   9.542  23.540  0.00  0.00    +0.000 C 
ATOM     14  C   UNL     1      -0.010   8.692  22.309  0.00  0.00    +0.000 C 
ATOM     15  O   UNL     1      -0.968   7.994  22.002  0.00  0.00    +0.000 OA
ENDBRANCH  12  14
ENDBRANCH   6  12
ENDBRANCH   1  11
BRANCH   4  16
ATOM     16  C   UNL     1       5.191   5.304  18.556  0.00  0.00    +0.000 A 
ATOM     17  C   UNL     1       6.442   5.511  19.154  0.00  0.00    +0.000 A 
ATOM     18  C   UNL     1       7.613   5.116  18.511  0.00  0.00    +0.000 A 
ATOM     19  C   UNL     1       7.557   4.513  17.254  0.00  0.00    +0.000 A 
ATOM     20  C   UNL     1       6.328   4.275  16.635  0.00  0.00    +0.000 A 
ATOM     21  C   UNL     1       5.147   4.650  17.299  0.00  0.00    +0.000 A 
BRANCH  20  22
ATOM     22  O   UNL     1       6.247   3.681  15.350  0.00  0.00    +0.000 OA
BRANCH  22  23
ATOM     23  C   UNL     1       6.554   4.276  14.120  0.00  0.00    +0.000 C 
ATOM     24  C   UNL     1       5.944   3.480  13.000  0.00  0.00    +0.000 C 
ATOM     25  O   UNL     1       7.236   5.274  13.931  0.00  0.00    +0.000 OA
ENDBRANCH  22  23
ENDBRANCH  20  22
BRANCH  21  26
ATOM     26  O   UNL     1       3.821   4.358  16.831  0.00  0.00    +0.000 OA
BRANCH  26  27
ATOM     27  C   UNL     1       2.742   3.543  17.202  0.00  0.00    +0.000 C 
ATOM     28  C   UNL     1       3.303   2.228  17.664  0.00  0.00    +0.000 C 
ATOM     29  O   UNL     1       1.554   3.811  17.139  0.00  0.00    +0.000 OA
ENDBRANCH  26  27
ENDBRANCH  21  26
ENDBRANCH   4  16
TORSDOF 8
ENDMDL
MODEL 2
REMARK VINA RESULT:      -7.7      2.523      4.082
REMARK  Name = 
REMARK  11 active torsions:
REMARK  status: ('A' for Active; 'I' for Inactive)
REMARK    1  A    between atoms: C_1  and  C_2
REMARK    2  A    between atoms: C_2  and  O_4
REMARK    3  A    between atoms: O_4  and  C_5
REMARK    4  A    between atoms: C_10  and  C_11
REMARK    5  A    between atoms: C_14  and  C_15
REMARK    6  A    between atoms: C_19  and  O_20
REMARK    7  A    between atoms: O_20  and  C_21
REMARK    8  A    between atoms: C_21  and  C_22
REMARK    9  A    between atoms: C_24  and  O_25
REMARK   10  A    between atoms: O_25  and  C_26
REMARK   11  A    between atoms: C_26  and  C_27
REMARK                            x       y       z     vdW  Elec       q    Type
REMARK                         _______ _______ _______ _____ _____    ______ ____
ROOT
ATOM      1  C   UNL     1       1.471   9.221  19.328  0.00  0.00    +0.000 A 
ATOM      2  C   UNL     1       1.663   9.790  18.087  0.00  0.00    +0.000 A 
ATOM      3  N   UNL     1       2.335   8.930  17.257  0.00  0.00    +0.000 NA
ATOM      4  C   UNL     1       2.576   7.875  18.013  0.00  0.00    +0.000 A 
ATOM      5  O   UNL     1       2.057   7.975  19.287  0.00  0.00    +0.000 OA
ENDROOT
BRANCH   1  11
ATOM      6  C   UNL     1      -0.079  10.723  20.625  0.00  0.00    +0.000 A 
ATOM      7  C   UNL     1      -0.789  11.029  21.797  0.00  0.00    +0.000 A 
ATOM      8  C   UNL     1      -0.584  10.281  22.950  0.00  0.00    +0.000 A 
ATOM      9  C   UNL     1       0.320   9.224  22.928  0.00  0.00    +0.000 A 
ATOM     10  C   UNL     1       1.013   8.905  21.751  0.00  0.00    +0.000 A 
ATOM     11  C   UNL     1       0.816   9.637  20.567  0.00  0.00    +0.000 A 
BRANCH   6  12
ATOM     12  O   UNL     1      -0.387  11.454  19.458  0.00  0.00    +0.000 OA
BRANCH  12  14
ATOM     13  C   UNL     1      -1.986  10.263  18.200  0.00  0.00    +0.000 C 
ATOM     14  C   UNL     1      -1.722  11.463  19.056  0.00  0.00    +0.000 C 
ATOM     15  O   UNL     1      -2.566  12.302  19.346  0.00  0.00    +0.000 OA
ENDBRANCH  12  14
ENDBRANCH   6  12
ENDBRANCH   1  11
BRANCH   4  16
ATOM     16  C   UNL     1       3.385   6.689  17.707  0.00  0.00    +0.000 A 
ATOM     17  C   UNL     1       4.567   6.835  16.967  0.00  0.00    +0.000 A 
ATOM     18  C   UNL     1       5.291   5.719  16.555  0.00  0.00    +0.000 A 
ATOM     19  C   UNL     1       4.845   4.434  16.867  0.00  0.00    +0.000 A 
ATOM     20  C   UNL     1       3.680   4.251  17.618  0.00  0.00    +0.000 A 
ATOM     21  C   UNL     1       2.967   5.380  18.055  0.00  0.00    +0.000 A 
BRANCH  20  22
ATOM     22  O   UNL     1       3.197   2.956  17.932  0.00  0.00    +0.000 OA
BRANCH  22  23
ATOM     23  C   UNL     1       3.835   1.978  18.706  0.00  0.00    +0.000 C 
ATOM     24  C   UNL     1       4.326   2.584  19.991  0.00  0.00    +0.000 C 
ATOM     25  O   UNL     1       4.015   0.804  18.413  0.00  0.00    +0.000 OA
ENDBRANCH  22  23
ENDBRANCH  20  22
BRANCH  21  26
ATOM     26  O   UNL     1       1.828   5.336  18.928  0.00  0.00    +0.000 OA
BRANCH  26  27
ATOM     27  C   UNL     1       1.522   4.881  20.219  0.00  0.00    +0.000 C 
ATOM     28  C   UNL     1       0.724   3.615  20.076  0.00  0.00    +0.000 C 
ATOM     29  O   UNL     1       1.805   5.411  21.280  0.00  0.00    +0.000 OA
ENDBRANCH  26  27
ENDBRANCH  21  26
ENDBRANCH   4  16
TORSDOF 8
ENDMDL
MODEL 3
REMARK VINA RESULT:      -7.7      2.404      4.075
REMARK  Name = 
REMARK  11 active torsions:
REMARK  status: ('A' for Active; 'I' for Inactive)
REMARK    1  A    between atoms: C_1  and  C_2
REMARK    2  A    between atoms: C_2  and  O_4
REMARK    3  A    between atoms: O_4  and  C_5
REMARK    4  A    between atoms: C_10  and  C_11
REMARK    5  A    between atoms: C_14  and  C_15
REMARK    6  A    between atoms: C_19  and  O_20
REMARK    7  A    between atoms: O_20  and  C_21
REMARK    8  A    between atoms: C_21  and  C_22
REMARK    9  A    between atoms: C_24  and  O_25
REMARK   10  A    between atoms: O_25  and  C_26
REMARK   11  A    between atoms: C_26  and  C_27
REMARK                            x       y       z     vdW  Elec       q    Type
REMARK                         _______ _______ _______ _____ _____    ______ ____
ROOT
ATOM      1  C   UNL     1       1.128   9.253  19.430  0.00  0.00    +0.000 A 
ATOM      2  C   UNL     1       1.033   9.625  18.107  0.00  0.00    +0.000 A 
ATOM      3  N   UNL     1       1.805   8.813  17.317  0.00  0.00    +0.000 NA
ATOM      4  C   UNL     1       2.387   7.992  18.171  0.00  0.00    +0.000 A 
ATOM      5  O   UNL     1       2.002   8.189  19.480  0.00  0.00    +0.000 OA
ENDROOT
BRANCH   1  11
ATOM      6  C   UNL     1       0.243  11.071  20.932  0.00  0.00    +0.000 A 
ATOM      7  C   UNL     1      -0.443  11.477  22.087  0.00  0.00    +0.000 A 
ATOM      8  C   UNL     1      -0.818  10.538  23.039  0.00  0.00    +0.000 A 
ATOM      9  C   UNL     1      -0.519   9.196  22.832  0.00  0.00    +0.000 A 
ATOM     10  C   UNL     1       0.148   8.788  21.667  0.00  0.00    +0.000 A 
ATOM     11  C   UNL     1       0.528   9.715  20.682  0.00  0.00    +0.000 A 
BRANCH   6  12
ATOM     12  O   UNL     1       0.524  12.049  19.953  0.00  0.00    +0.000 OA
BRANCH  12  14
ATOM     13  C   UNL     1       2.255  13.085  18.734  0.00  0.00    +0.000 C 
ATOM     14  C   UNL     1       1.720  12.752  20.092  0.00  0.00    +0.000 C 
ATOM     15  O   UNL     1       2.263  13.067  21.144  0.00  0.00    +0.000 OA
ENDBRANCH  12  14
ENDBRANCH   6  12
ENDBRANCH   1  11
BRANCH   4  16
ATOM     16  C   UNL     1       3.431   6.992  17.919  0.00  0.00    +0.000 A 
ATOM     17  C   UNL     1       4.683   7.409  17.444  0.00  0.00    +0.000 A 
ATOM     18  C   UNL     1       5.653   6.478  17.080  0.00  0.00    +0.000 A 
ATOM     19  C   UNL     1       5.388   5.111  17.175  0.00  0.00    +0.000 A 
ATOM     20  C   UNL     1       4.158   4.659  17.660  0.00  0.00    +0.000 A 
ATOM     21  C   UNL     1       3.193   5.601  18.053  0.00  0.00    +0.000 A 
BRANCH  20  22
ATOM     22  O   UNL     1       3.860   3.276  17.749  0.00  0.00    +0.000 OA
BRANCH  22  23
ATOM     23  C   UNL     1       3.954   2.459  18.884  0.00  0.00    +0.000 C 
ATOM     24  C   UNL     1       2.782   1.521  18.937  0.00  0.00    +0.000 C 
ATOM     25  O   UNL     1       4.823   2.487  19.744  0.00  0.00    +0.000 OA
ENDBRANCH  22  23
ENDBRANCH  20  22
BRANCH  21  26
ATOM     26  O   UNL     1       1.941   5.274  18.677  0.00  0.00    +0.000 OA
BRANCH  26  27
ATOM     27  C   UNL     1       1.494   4.675  19.863  0.00  0.00    +0.000 C 
ATOM     28  C   UNL     1       2.446   5.069  20.958  0.00  0.00    +0.000 C 
ATOM     29  O   UNL     1       0.534   3.936  20.006  0.00  0.00    +0.000 OA
ENDBRANCH  26  27
ENDBRANCH  21  26
ENDBRANCH   4  16
TORSDOF 8
ENDMDL
MODEL 4
REMARK VINA RESULT:      -7.7      2.376      3.961
REMARK  Name = 
REMARK  11 active torsions:
REMARK  status: ('A' for Active; 'I' for Inactive)
REMARK    1  A    between atoms: C_1  and  C_2
REMARK    2  A    between atoms: C_2  and  O_4
REMARK    3  A    between atoms: O_4  and  C_5
REMARK    4  A    between atoms: C_10  and  C_11
REMARK    5  A    between atoms: C_14  and  C_15
REMARK    6  A    between atoms: C_19  and  O_20
REMARK    7  A    between atoms: O_20  and  C_21
REMARK    8  A    between atoms: C_21  and  C_22
REMARK    9  A    between atoms: C_24  and  O_25
REMARK   10  A    between atoms: O_25  and  C_26
REMARK   11  A    between atoms: C_26  and  C_27
REMARK                            x       y       z     vdW  Elec       q    Type
REMARK                         _______ _______ _______ _____ _____    ______ ____
ROOT
ATOM      1  C   UNL     1       1.284   9.172  19.359  0.00  0.00    +0.000 A 
ATOM      2  C   UNL     1       1.245   9.592  18.047  0.00  0.00    +0.000 A 
ATOM      3  N   UNL     1       1.988   8.761  17.248  0.00  0.00    +0.000 NA
ATOM      4  C   UNL     1       2.498   7.879  18.087  0.00  0.00    +0.000 A 
ATOM      5  O   UNL     1       2.092   8.057  19.393  0.00  0.00    +0.000 OA
ENDROOT
BRANCH   1  11
ATOM      6  C   UNL     1       0.372  10.981  20.855  0.00  0.00    +0.000 A 
ATOM      7  C   UNL     1      -0.316  11.380  22.012  0.00  0.00    +0.000 A 
ATOM      8  C   UNL     1      -0.671  10.439  22.970  0.00  0.00    +0.000 A 
ATOM      9  C   UNL     1      -0.349   9.101  22.767  0.00  0.00    +0.000 A 
ATOM     10  C   UNL     1       0.321   8.699  21.601  0.00  0.00    +0.000 A 
ATOM     11  C   UNL     1       0.681   9.629  20.610  0.00  0.00    +0.000 A 
BRANCH   6  12
ATOM     12  O   UNL     1       0.632  11.959  19.872  0.00  0.00    +0.000 OA
BRANCH  12  14
ATOM     13  C   UNL     1      -0.389  14.034  19.411  0.00  0.00    +0.000 C 
ATOM     14  C   UNL     1      -0.475  12.546  19.261  0.00  0.00    +0.000 C 
ATOM     15  O   UNL     1      -1.384  11.963  18.682  0.00  0.00    +0.000 OA
ENDBRANCH  12  14
ENDBRANCH   6  12
ENDBRANCH   1  11
BRANCH   4  16
ATOM     16  C   UNL     1       3.487   6.827  17.827  0.00  0.00    +0.000 A 
ATOM     17  C   UNL     1       4.777   7.183  17.410  0.00  0.00    +0.000 A 
ATOM     18  C   UNL     1       5.700   6.208  17.038  0.00  0.00    +0.000 A 
ATOM     19  C   UNL     1       5.348   4.858  17.066  0.00  0.00    +0.000 A 
ATOM     20  C   UNL     1       4.077   4.465  17.492  0.00  0.00    +0.000 A 
ATOM     21  C   UNL     1       3.159   5.449  17.894  0.00  0.00    +0.000 A 
BRANCH  20  22
ATOM     22  O   UNL     1       3.692   3.100  17.513  0.00  0.00    +0.000 OA
BRANCH  22  23
ATOM     23  C   UNL     1       3.906   2.175  18.542  0.00  0.00    +0.000 C 
ATOM     24  C   UNL     1       4.509   2.864  19.733  0.00  0.00    +0.000 C 
ATOM     25  O   UNL     1       3.679   0.973  18.514  0.00  0.00    +0.000 OA
ENDBRANCH  22  23
ENDBRANCH  20  22
BRANCH  21  26
ATOM     26  O   UNL     1       1.869   5.176  18.463  0.00  0.00    +0.000 OA
BRANCH  26  27
ATOM     27  C   UNL     1       1.335   4.430  19.523  0.00  0.00    +0.000 C 
ATOM     28  C   UNL     1       1.758   5.094  20.804  0.00  0.00    +0.000 C 
ATOM     29  O   UNL     1       0.675   3.406  19.453  0.00  0.00    +0.000 OA
ENDBRANCH  26  27
ENDBRANCH  21  26
ENDBRANCH   4  16
TORSDOF 8
ENDMDL
MODEL 5
REMARK VINA RESULT:      -7.6      2.397      3.911
REMARK  Name = 
REMARK  11 active torsions:
REMARK  status: ('A' for Active; 'I' for Inactive)
REMARK    1  A    between atoms: C_1  and  C_2
REMARK    2  A    between atoms: C_2  and  O_4
REMARK    3  A    between atoms: O_4  and  C_5
REMARK    4  A    between atoms: C_10  and  C_11
REMARK    5  A    between atoms: C_14  and  C_15
REMARK    6  A    between atoms: C_19  and  O_20
REMARK    7  A    between atoms: O_20  and  C_21
REMARK    8  A    between atoms: C_21  and  C_22
REMARK    9  A    between atoms: C_24  and  O_25
REMARK   10  A    between atoms: O_25  and  C_26
REMARK   11  A    between atoms: C_26  and  C_27
REMARK                            x       y       z     vdW  Elec       q    Type
REMARK                         _______ _______ _______ _____ _____    ______ ____
ROOT
ATOM      1  C   UNL     1       1.257   9.251  19.401  0.00  0.00    +0.000 A 
ATOM      2  C   UNL     1       1.222   9.687  18.095  0.00  0.00    +0.000 A 
ATOM      3  N   UNL     1       1.991   8.885  17.292  0.00  0.00    +0.000 NA
ATOM      4  C   UNL     1       2.513   8.003  18.125  0.00  0.00    +0.000 A 
ATOM      5  O   UNL     1       2.090   8.154  19.429  0.00  0.00    +0.000 OA
ENDROOT
BRANCH   1  11
ATOM      6  C   UNL     1      -0.286  10.742  20.719  0.00  0.00    +0.000 A 
ATOM      7  C   UNL     1      -0.966  11.055  21.907  0.00  0.00    +0.000 A 
ATOM      8  C   UNL     1      -0.707  10.335  23.066  0.00  0.00    +0.000 A 
ATOM      9  C   UNL     1       0.220   9.299  23.036  0.00  0.00    +0.000 A 
ATOM     10  C   UNL     1       0.884   8.973  21.843  0.00  0.00    +0.000 A 
ATOM     11  C   UNL     1       0.632   9.676  20.653  0.00  0.00    +0.000 A 
BRANCH   6  12
ATOM     12  O   UNL     1      -0.648  11.442  19.547  0.00  0.00    +0.000 OA
BRANCH  12  14
ATOM     13  C   UNL     1      -2.852  12.249  19.329  0.00  0.00    +0.000 C 
ATOM     14  C   UNL     1      -1.894  11.146  18.998  0.00  0.00    +0.000 C 
ATOM     15  O   UNL     1      -2.186  10.154  18.340  0.00  0.00    +0.000 OA
ENDBRANCH  12  14
ENDBRANCH   6  12
ENDBRANCH   1  11
BRANCH   4  16
ATOM     16  C   UNL     1       3.528   6.977  17.860  0.00  0.00    +0.000 A 
ATOM     17  C   UNL     1       4.779   7.361  17.356  0.00  0.00    +0.000 A 
ATOM     18  C   UNL     1       5.719   6.405  16.979  0.00  0.00    +0.000 A 
ATOM     19  C   UNL     1       5.425   5.045  17.092  0.00  0.00    +0.000 A 
ATOM     20  C   UNL     1       4.195   4.625  17.606  0.00  0.00    +0.000 A 
ATOM     21  C   UNL     1       3.261   5.594  18.011  0.00  0.00    +0.000 A 
BRANCH  20  22
ATOM     22  O   UNL     1       3.867   3.250  17.713  0.00  0.00    +0.000 OA
BRANCH  22  23
ATOM     23  C   UNL     1       4.067   2.415  18.819  0.00  0.00    +0.000 C 
ATOM     24  C   UNL     1       3.159   1.221  18.729  0.00  0.00    +0.000 C 
ATOM     25  O   UNL     1       4.832   2.598  19.756  0.00  0.00    +0.000 OA
ENDBRANCH  22  23
ENDBRANCH  20  22
BRANCH  21  26
ATOM     26  O   UNL     1       2.015   5.300  18.663  0.00  0.00    +0.000 OA
BRANCH  26  27
ATOM     27  C   UNL     1       1.565   4.553  19.761  0.00  0.00    +0.000 C 
ATOM     28  C   UNL     1       2.328   5.018  20.970  0.00  0.00    +0.000 C 
ATOM     29  O   UNL     1       0.734   3.660  19.761  0.00  0.00    +0.000 OA
ENDBRANCH  26  27
ENDBRANCH  21  26
ENDBRANCH   4  16
TORSDOF 8
ENDMDL
MODEL 6
REMARK VINA RESULT:      -7.5      2.601      8.732
REMARK  Name = 
REMARK  11 active torsions:
REMARK  status: ('A' for Active; 'I' for Inactive)
REMARK    1  A    between atoms: C_1  and  C_2
REMARK    2  A    between atoms: C_2  and  O_4
REMARK    3  A    between atoms: O_4  and  C_5
REMARK    4  A    between atoms: C_10  and  C_11
REMARK    5  A    between atoms: C_14  and  C_15
REMARK    6  A    between atoms: C_19  and  O_20
REMARK    7  A    between atoms: O_20  and  C_21
REMARK    8  A    between atoms: C_21  and  C_22
REMARK    9  A    between atoms: C_24  and  O_25
REMARK   10  A    between atoms: O_25  and  C_26
REMARK   11  A    between atoms: C_26  and  C_27
REMARK                            x       y       z     vdW  Elec       q    Type
REMARK                         _______ _______ _______ _____ _____    ______ ____
ROOT
ATOM      1  C   UNL     1       2.432   7.105  18.311  0.00  0.00    +0.000 A 
ATOM      2  C   UNL     1       2.471   8.290  17.610  0.00  0.00    +0.000 A 
ATOM      3  N   UNL     1       2.010   9.327  18.380  0.00  0.00    +0.000 NA
ATOM      4  C   UNL     1       1.661   8.753  19.516  0.00  0.00    +0.000 A 
ATOM      5  O   UNL     1       1.911   7.397  19.553  0.00  0.00    +0.000 OA
ENDROOT
BRANCH   1  11
ATOM      6  C   UNL     1       4.154   5.305  17.941  0.00  0.00    +0.000 A 
ATOM      7  C   UNL     1       4.496   3.952  17.790  0.00  0.00    +0.000 A 
ATOM      8  C   UNL     1       3.499   2.991  17.677  0.00  0.00    +0.000 A 
ATOM      9  C   UNL     1       2.165   3.380  17.727  0.00  0.00    +0.000 A 
ATOM     10  C   UNL     1       1.823   4.730  17.900  0.00  0.00    +0.000 A 
ATOM     11  C   UNL     1       2.811   5.721  18.028  0.00  0.00    +0.000 A 
BRANCH   6  12
ATOM     12  O   UNL     1       5.200   6.232  18.140  0.00  0.00    +0.000 OA
BRANCH  12  14
ATOM     13  C   UNL     1       7.310   6.955  17.378  0.00  0.00    +0.000 C 
ATOM     14  C   UNL     1       5.891   6.652  17.005  0.00  0.00    +0.000 C 
ATOM     15  O   UNL     1       5.439   6.760  15.872  0.00  0.00    +0.000 OA
ENDBRANCH  12  14
ENDBRANCH   6  12
ENDBRANCH   1  11
BRANCH   4  16
ATOM     16  C   UNL     1       0.973   9.342  20.670  0.00  0.00    +0.000 A 
ATOM     17  C   UNL     1       1.253   8.861  21.957  0.00  0.00    +0.000 A 
ATOM     18  C   UNL     1       0.530   9.312  23.059  0.00  0.00    +0.000 A 
ATOM     19  C   UNL     1      -0.494  10.247  22.896  0.00  0.00    +0.000 A 
ATOM     20  C   UNL     1      -0.789  10.761  21.631  0.00  0.00    +0.000 A 
ATOM     21  C   UNL     1      -0.039  10.324  20.526  0.00  0.00    +0.000 A 
BRANCH  20  22
ATOM     22  O   UNL     1      -1.836  11.697  21.437  0.00  0.00    +0.000 OA
BRANCH  22  23
ATOM     23  C   UNL     1      -1.824  13.060  21.759  0.00  0.00    +0.000 C 
ATOM     24  C   UNL     1      -2.822  13.337  22.849  0.00  0.00    +0.000 C 
ATOM     25  O   UNL     1      -1.145  13.937  21.242  0.00  0.00    +0.000 OA
ENDBRANCH  22  23
ENDBRANCH  20  22
BRANCH  21  26
ATOM     26  O   UNL     1      -0.159  10.857  19.198  0.00  0.00    +0.000 OA
BRANCH  26  27
ATOM     27  C   UNL     1      -1.058  10.783  18.123  0.00  0.00    +0.000 C 
ATOM     28  C   UNL     1      -1.702  12.134  17.977  0.00  0.00    +0.000 C 
ATOM     29  O   UNL     1      -1.317   9.809  17.438  0.00  0.00    +0.000 OA
ENDBRANCH  26  27
ENDBRANCH  21  26
ENDBRANCH   4  16
TORSDOF 8
ENDMDL
MODEL 7
REMARK VINA RESULT:      -7.5      2.142      3.883
REMARK  Name = 
REMARK  11 active torsions:
REMARK  status: ('A' for Active; 'I' for Inactive)
REMARK    1  A    between atoms: C_1  and  C_2
REMARK    2  A    between atoms: C_2  and  O_4
REMARK    3  A    between atoms: O_4  and  C_5
REMARK    4  A    between atoms: C_10  and  C_11
REMARK    5  A    between atoms: C_14  and  C_15
REMARK    6  A    between atoms: C_19  and  O_20
REMARK    7  A    between atoms: O_20  and  C_21
REMARK    8  A    between atoms: C_21  and  C_22
REMARK    9  A    between atoms: C_24  and  O_25
REMARK   10  A    between atoms: O_25  and  C_26
REMARK   11  A    between atoms: C_26  and  C_27
REMARK                            x       y       z     vdW  Elec       q    Type
REMARK                         _______ _______ _______ _____ _____    ______ ____
ROOT
ATOM      1  C   UNL     1       1.473   8.862  19.485  0.00  0.00    +0.000 A 
ATOM      2  C   UNL     1       1.986   9.305  18.285  0.00  0.00    +0.000 A 
ATOM      3  N   UNL     1       2.463   8.256  17.542  0.00  0.00    +0.000 NA
ATOM      4  C   UNL     1       2.273   7.203  18.314  0.00  0.00    +0.000 A 
ATOM      5  O   UNL     1       1.651   7.496  19.510  0.00  0.00    +0.000 OA
ENDROOT
BRANCH   1  11
ATOM      6  C   UNL     1       0.056  10.671  20.514  0.00  0.00    +0.000 A 
ATOM      7  C   UNL     1      -0.658  11.195  21.604  0.00  0.00    +0.000 A 
ATOM      8  C   UNL     1      -0.583  10.577  22.845  0.00  0.00    +0.000 A 
ATOM      9  C   UNL     1       0.194   9.433  22.995  0.00  0.00    +0.000 A 
ATOM     10  C   UNL     1       0.891   8.899  21.901  0.00  0.00    +0.000 A 
ATOM     11  C   UNL     1       0.823   9.496  20.631  0.00  0.00    +0.000 A 
BRANCH   6  12
ATOM     12  O   UNL     1      -0.122  11.282  19.254  0.00  0.00    +0.000 OA
BRANCH  12  14
ATOM     13  C   UNL     1      -1.679  10.128  17.911  0.00  0.00    +0.000 C 
ATOM     14  C   UNL     1      -1.425  11.335  18.760  0.00  0.00    +0.000 C 
ATOM     15  O   UNL     1      -2.252  12.213  18.975  0.00  0.00    +0.000 OA
ENDBRANCH  12  14
ENDBRANCH   6  12
ENDBRANCH   1  11
BRANCH   4  16
ATOM     16  C   UNL     1       2.714   5.819  18.107  0.00  0.00    +0.000 A 
ATOM     17  C   UNL     1       1.769   4.784  18.131  0.00  0.00    +0.000 A 
ATOM     18  C   UNL     1       2.169   3.451  18.060  0.00  0.00    +0.000 A 
ATOM     19  C   UNL     1       3.523   3.126  17.971  0.00  0.00    +0.000 A 
ATOM     20  C   UNL     1       4.492   4.131  17.928  0.00  0.00    +0.000 A 
ATOM     21  C   UNL     1       4.083   5.475  17.971  0.00  0.00    +0.000 A 
BRANCH  20  22
ATOM     22  O   UNL     1       5.875   3.825  17.856  0.00  0.00    +0.000 OA
BRANCH  22  23
ATOM     23  C   UNL     1       6.738   4.049  16.777  0.00  0.00    +0.000 C 
ATOM     24  C   UNL     1       6.022   3.777  15.484  0.00  0.00    +0.000 C 
ATOM     25  O   UNL     1       7.912   4.388  16.827  0.00  0.00    +0.000 OA
ENDBRANCH  22  23
ENDBRANCH  20  22
BRANCH  21  26
ATOM     26  O   UNL     1       4.962   6.599  17.815  0.00  0.00    +0.000 OA
BRANCH  26  27
ATOM     27  C   UNL     1       5.751   7.173  16.808  0.00  0.00    +0.000 C 
ATOM     28  C   UNL     1       6.985   7.730  17.460  0.00  0.00    +0.000 C 
ATOM     29  O   UNL     1       5.494   7.253  15.618  0.00  0.00    +0.000 OA
ENDBRANCH  26  27
ENDBRANCH  21  26
ENDBRANCH   4  16
TORSDOF 8
ENDMDL
MODEL 8
REMARK VINA RESULT:      -7.4      2.743      8.680
REMARK  Name = 
REMARK  11 active torsions:
REMARK  status: ('A' for Active; 'I' for Inactive)
REMARK    1  A    between atoms: C_1  and  C_2
REMARK    2  A    between atoms: C_2  and  O_4
REMARK    3  A    between atoms: O_4  and  C_5
REMARK    4  A    between atoms: C_10  and  C_11
REMARK    5  A    between atoms: C_14  and  C_15
REMARK    6  A    between atoms: C_19  and  O_20
REMARK    7  A    between atoms: O_20  and  C_21
REMARK    8  A    between atoms: C_21  and  C_22
REMARK    9  A    between atoms: C_24  and  O_25
REMARK   10  A    between atoms: O_25  and  C_26
REMARK   11  A    between atoms: C_26  and  C_27
REMARK                            x       y       z     vdW  Elec       q    Type
REMARK                         _______ _______ _______ _____ _____    ______ ____
ROOT
ATOM      1  C   UNL     1       2.505   7.510  18.212  0.00  0.00    +0.000 A 
ATOM      2  C   UNL     1       1.881   8.441  17.410  0.00  0.00    +0.000 A 
ATOM      3  N   UNL     1       1.200   9.358  18.169  0.00  0.00    +0.000 NA
ATOM      4  C   UNL     1       1.384   8.948  19.410  0.00  0.00    +0.000 A 
ATOM      5  O   UNL     1       2.192   7.835  19.513  0.00  0.00    +0.000 OA
ENDROOT
BRANCH   1  11
ATOM      6  C   UNL     1       2.893   5.029  18.018  0.00  0.00    +0.000 A 
ATOM      7  C   UNL     1       3.711   3.942  17.670  0.00  0.00    +0.000 A 
ATOM      8  C   UNL     1       5.037   4.155  17.316  0.00  0.00    +0.000 A 
ATOM      9  C   UNL     1       5.541   5.452  17.298  0.00  0.00    +0.000 A 
ATOM     10  C   UNL     1       4.718   6.539  17.626  0.00  0.00    +0.000 A 
ATOM     11  C   UNL     1       3.369   6.354  17.976  0.00  0.00    +0.000 A 
BRANCH   6  12
ATOM     12  O   UNL     1       1.531   4.772  18.284  0.00  0.00    +0.000 OA
BRANCH  12  14
ATOM     13  C   UNL     1       1.430   4.603  20.633  0.00  0.00    +0.000 C 
ATOM     14  C   UNL     1       1.250   3.891  19.328  0.00  0.00    +0.000 C 
ATOM     15  O   UNL     1       0.903   2.721  19.223  0.00  0.00    +0.000 OA
ENDBRANCH  12  14
ENDBRANCH   6  12
ENDBRANCH   1  11
BRANCH   4  16
ATOM     16  C   UNL     1       0.777   9.456  20.646  0.00  0.00    +0.000 A 
ATOM     17  C   UNL     1       0.169   8.557  21.534  0.00  0.00    +0.000 A 
ATOM     18  C   UNL     1      -0.522   9.018  22.653  0.00  0.00    +0.000 A 
ATOM     19  C   UNL     1      -0.626  10.388  22.901  0.00  0.00    +0.000 A 
ATOM     20  C   UNL     1      -0.018  11.312  22.048  0.00  0.00    +0.000 A 
ATOM     21  C   UNL     1       0.701  10.841  20.936  0.00  0.00    +0.000 A 
BRANCH  20  22
ATOM     22  O   UNL     1      -0.125  12.708  22.270  0.00  0.00    +0.000 OA
BRANCH  22  23
ATOM     23  C   UNL     1      -1.243  13.408  22.741  0.00  0.00    +0.000 C 
ATOM     24  C   UNL     1      -2.267  13.532  21.649  0.00  0.00    +0.000 C 
ATOM     25  O   UNL     1      -1.398  13.890  23.855  0.00  0.00    +0.000 OA
ENDBRANCH  22  23
ENDBRANCH  20  22
BRANCH  21  26
ATOM     26  O   UNL     1       1.469  11.673  20.052  0.00  0.00    +0.000 OA
BRANCH  26  27
ATOM     27  C   UNL     1       1.234  12.668  19.091  0.00  0.00    +0.000 C 
ATOM     28  C   UNL     1       2.489  12.821  18.280  0.00  0.00    +0.000 C 
ATOM     29  O   UNL     1       0.221  13.330  18.941  0.00  0.00    +0.000 OA
ENDBRANCH  26  27
ENDBRANCH  21  26
ENDBRANCH   4  16
TORSDOF 8
ENDMDL
MODEL 9
REMARK VINA RESULT:      -7.4      2.616      3.687
REMARK  Name = 
REMARK  11 active torsions:
REMARK  status: ('A' for Active; 'I' for Inactive)
REMARK    1  A    between atoms: C_1  and  C_2
REMARK    2  A    between atoms: C_2  and  O_4
REMARK    3  A    between atoms: O_4  and  C_5
REMARK    4  A    between atoms: C_10  and  C_11
REMARK    5  A    between atoms: C_14  and  C_15
REMARK    6  A    between atoms: C_19  and  O_20
REMARK    7  A    between atoms: O_20  and  C_21
REMARK    8  A    between atoms: C_21  and  C_22
REMARK    9  A    between atoms: C_24  and  O_25
REMARK   10  A    between atoms: O_25  and  C_26
REMARK   11  A    between atoms: C_26  and  C_27
REMARK                            x       y       z     vdW  Elec       q    Type
REMARK                         _______ _______ _______ _____ _____    ______ ____
ROOT
ATOM      1  C   UNL     1       0.571   9.134  19.866  0.00  0.00    +0.000 A 
ATOM      2  C   UNL     1       0.825   8.511  21.069  0.00  0.00    +0.000 A 
ATOM      3  N   UNL     1       1.838   7.597  20.940  0.00  0.00    +0.000 NA
ATOM      4  C   UNL     1       2.155   7.647  19.660  0.00  0.00    +0.000 A 
ATOM      5  O   UNL     1       1.435   8.582  18.946  0.00  0.00    +0.000 OA
ENDROOT
BRANCH   1  11
ATOM      6  C   UNL     1      -0.548  11.373  20.137  0.00  0.00    +0.000 A 
ATOM      7  C   UNL     1      -1.337  12.417  19.625  0.00  0.00    +0.000 A 
ATOM      8  C   UNL     1      -1.974  12.270  18.400  0.00  0.00    +0.000 A 
ATOM      9  C   UNL     1      -1.815  11.089  17.682  0.00  0.00    +0.000 A 
ATOM     10  C   UNL     1      -1.010  10.055  18.184  0.00  0.00    +0.000 A 
ATOM     11  C   UNL     1      -0.344  10.182  19.415  0.00  0.00    +0.000 A 
BRANCH   6  12
ATOM     12  O   UNL     1       0.149  11.603  21.342  0.00  0.00    +0.000 OA
BRANCH  12  14
ATOM     13  C   UNL     1      -1.202  10.765  23.082  0.00  0.00    +0.000 C 
ATOM     14  C   UNL     1      -0.612  11.985  22.446  0.00  0.00    +0.000 C 
ATOM     15  O   UNL     1      -0.782  13.127  22.856  0.00  0.00    +0.000 OA
ENDBRANCH  12  14
ENDBRANCH   6  12
ENDBRANCH   1  11
BRANCH   4  16
ATOM     16  C   UNL     1       3.080   6.792  18.907  0.00  0.00    +0.000 A 
ATOM     17  C   UNL     1       3.668   7.281  17.732  0.00  0.00    +0.000 A 
ATOM     18  C   UNL     1       4.453   6.455  16.931  0.00  0.00    +0.000 A 
ATOM     19  C   UNL     1       4.658   5.120  17.283  0.00  0.00    +0.000 A 
ATOM     20  C   UNL     1       4.101   4.602  18.456  0.00  0.00    +0.000 A 
ATOM     21  C   UNL     1       3.334   5.447  19.276  0.00  0.00    +0.000 A 
BRANCH  20  22
ATOM     22  O   UNL     1       4.281   3.245  18.825  0.00  0.00    +0.000 OA
BRANCH  22  23
ATOM     23  C   UNL     1       3.596   2.132  18.323  0.00  0.00    +0.000 C 
ATOM     24  C   UNL     1       2.449   2.583  17.463  0.00  0.00    +0.000 C 
ATOM     25  O   UNL     1       3.837   0.953  18.544  0.00  0.00    +0.000 OA
ENDBRANCH  22  23
ENDBRANCH  20  22
BRANCH  21  26
ATOM     26  O   UNL     1       2.808   5.077  20.560  0.00  0.00    +0.000 OA
BRANCH  26  27
ATOM     27  C   UNL     1       2.043   4.039  21.112  0.00  0.00    +0.000 C 
ATOM     28  C   UNL     1       0.778   3.930  20.309  0.00  0.00    +0.000 C 
ATOM     29  O   UNL     1       2.311   3.357  22.087  0.00  0.00    +0.000 OA
ENDBRANCH  26  27
ENDBRANCH  21  26
ENDBRANCH   4  16
TORSDOF 8
ENDMDL
