MODEL 1
REMARK VINA RESULT:      -7.9      0.000      0.000
REMARK  Name = 
REMARK  9 active torsions:
REMARK  status: ('A' for Active; 'I' for Inactive)
REMARK    1  A    between atoms: C_1  and  C_2
REMARK    2  A    between atoms: C_2  and  O_3
REMARK    3  A    between atoms: O_3  and  C_4
REMARK    4  A    between atoms: C_4  and  C_6
REMARK    5  A    between atoms: C_6  and  C_7
REMARK    6  A    between atoms: C_14  and  C_15
REMARK    7  A    between atoms: C_15  and  N_16
REMARK    8  A    between atoms: C_19  and  O_20
REMARK    9  A    between atoms: C_19  and  C_21
REMARK                            x       y       z     vdW  Elec       q    Type
REMARK                         _______ _______ _______ _____ _____    ______ ____
ROOT
ATOM      1  C   UNL     1       2.944   6.922  19.841  0.00  0.00    +0.000 C 
ENDROOT
BRANCH   1   2
ATOM      2  N   UNL     1       1.766   7.743  19.504  0.00  0.00    +0.000 NA
ATOM      3  C   UNL     1       2.096   8.601  18.347  0.00  0.00    +0.000 C 
ATOM      4  C   UNL     1       0.842   9.300  17.830  0.00  0.00    +0.000 C 
ATOM      5  C   UNL     1       0.138  10.131  18.923  0.00  0.00    +0.000 C 
ATOM      6  C   UNL     1       0.025   9.337  20.235  0.00  0.00    +0.000 C 
ATOM      7  C   UNL     1       1.335   8.624  20.605  0.00  0.00    +0.000 C 
BRANCH   5   8
ATOM      8  C   UNL     1      -1.235  10.598  18.414  0.00  0.00    +0.000 A 
ATOM      9  C   UNL     1      -1.980  11.537  19.158  0.00  0.00    +0.000 A 
ATOM     10  C   UNL     1      -3.276  11.902  18.785  0.00  0.00    +0.000 A 
ATOM     11  C   UNL     1      -3.847  11.343  17.647  0.00  0.00    +0.000 A 
ATOM     12 CL   UNL     1      -5.460  11.757  17.212  0.00  0.00    +0.000 Cl
ATOM     13  C   UNL     1      -3.124  10.447  16.868  0.00  0.00    +0.000 A 
ATOM     14  C   UNL     1      -1.825  10.084  17.242  0.00  0.00    +0.000 A 
ENDBRANCH   5   8
BRANCH   5  15
ATOM     15  O   UNL     1       0.974  11.269  19.201  0.00  0.00    +0.000 OA
ATOM     16  H   UNL     1       1.871  10.932  19.370  0.00  0.00    +0.000 HD
ENDBRANCH   5  15
ENDBRANCH   1   2
BRANCH   1  19
ATOM     17  C   UNL     1       4.183   4.858  18.543  0.00  0.00    +0.000 C 
ATOM     18  C   UNL     1       3.740   4.513  19.966  0.00  0.00    +0.000 C 
ATOM     19  C   UNL     1       2.975   5.555  19.202  0.00  0.00    +0.000 C 
BRANCH  17  20
ATOM     20  C   UNL     1       5.527   5.568  18.375  0.00  0.00    +0.000 A 
ATOM     21  C   UNL     1       5.691   6.572  17.400  0.00  0.00    +0.000 A 
ATOM     22  C   UNL     1       6.879   7.301  17.290  0.00  0.00    +0.000 A 
ATOM     23  C   UNL     1       7.934   7.039  18.154  0.00  0.00    +0.000 A 
ATOM     24  C   UNL     1       7.803   6.054  19.128  0.00  0.00    +0.000 A 
ATOM     25  C   UNL     1       6.609   5.335  19.241  0.00  0.00    +0.000 A 
ENDBRANCH  17  20
BRANCH  17  26
ATOM     26  C   UNL     1       3.967   3.749  17.536  0.00  0.00    +0.000 C 
ATOM     27  O   UNL     1       3.991   3.967  16.330  0.00  0.00    +0.000 OA
BRANCH  26  28
ATOM     28  O   UNL     1       3.609   2.575  18.123  0.00  0.00    +0.000 OA
BRANCH  28  30
ATOM     29  C   UNL     1       1.223   2.320  18.611  0.00  0.00    +0.000 C 
ATOM     30  C   UNL     1       2.364   2.029  17.657  0.00  0.00    +0.000 C 
ENDBRANCH  28  30
ENDBRANCH  26  28
ENDBRANCH  17  26
ENDBRANCH   1  19
TORSDOF 8
ENDMDL
MODEL 2
REMARK VINA RESULT:      -7.9      0.906      1.926
REMARK  Name = 
REMARK  9 active torsions:
REMARK  status: ('A' for Active; 'I' for Inactive)
REMARK    1  A    between atoms: C_1  and  C_2
REMARK    2  A    between atoms: C_2  and  O_3
REMARK    3  A    between atoms: O_3  and  C_4
REMARK    4  A    between atoms: C_4  and  C_6
REMARK    5  A    between atoms: C_6  and  C_7
REMARK    6  A    between atoms: C_14  and  C_15
REMARK    7  A    between atoms: C_15  and  N_16
REMARK    8  A    between atoms: C_19  and  O_20
REMARK    9  A    between atoms: C_19  and  C_21
REMARK                            x       y       z     vdW  Elec       q    Type
REMARK                         _______ _______ _______ _____ _____    ______ ____
ROOT
ATOM      1  C   UNL     1       2.884   6.620  19.924  0.00  0.00    +0.000 C 
ENDROOT
BRANCH   1   2
ATOM      2  N   UNL     1       1.762   7.510  19.573  0.00  0.00    +0.000 NA
ATOM      3  C   UNL     1       2.156   8.345  18.420  0.00  0.00    +0.000 C 
ATOM      4  C   UNL     1       0.953   9.118  17.888  0.00  0.00    +0.000 C 
ATOM      5  C   UNL     1       0.287   9.991  18.972  0.00  0.00    +0.000 C 
ATOM      6  C   UNL     1       0.111   9.206  20.283  0.00  0.00    +0.000 C 
ATOM      7  C   UNL     1       1.371   8.417  20.668  0.00  0.00    +0.000 C 
BRANCH   5   8
ATOM      8  C   UNL     1      -1.049  10.539  18.447  0.00  0.00    +0.000 A 
ATOM      9  C   UNL     1      -1.741  11.526  19.178  0.00  0.00    +0.000 A 
ATOM     10  C   UNL     1      -3.009  11.969  18.789  0.00  0.00    +0.000 A 
ATOM     11  C   UNL     1      -3.602  11.440  17.649  0.00  0.00    +0.000 A 
ATOM     12 CL   UNL     1      -5.182  11.950  17.195  0.00  0.00    +0.000 Cl
ATOM     13  C   UNL     1      -2.929  10.496  16.882  0.00  0.00    +0.000 A 
ATOM     14  C   UNL     1      -1.658  10.056  17.271  0.00  0.00    +0.000 A 
ENDBRANCH   5   8
BRANCH   5  15
ATOM     15  O   UNL     1       1.187  11.077  19.260  0.00  0.00    +0.000 OA
ATOM     16  H   UNL     1       2.044  10.854  18.857  0.00  0.00    +0.000 HD
ENDBRANCH   5  15
ENDBRANCH   1   2
BRANCH   1  19
ATOM     17  C   UNL     1       4.286   4.914  18.310  0.00  0.00    +0.000 C 
ATOM     18  C   UNL     1       3.861   4.292  19.642  0.00  0.00    +0.000 C 
ATOM     19  C   UNL     1       3.023   5.393  19.057  0.00  0.00    +0.000 C 
BRANCH  17  20
ATOM     20  C   UNL     1       5.572   5.741  18.295  0.00  0.00    +0.000 A 
ATOM     21  C   UNL     1       6.683   5.354  19.071  0.00  0.00    +0.000 A 
ATOM     22  C   UNL     1       7.900   6.037  19.002  0.00  0.00    +0.000 A 
ATOM     23  C   UNL     1       8.032   7.131  18.156  0.00  0.00    +0.000 A 
ATOM     24  C   UNL     1       6.953   7.538  17.378  0.00  0.00    +0.000 A 
ATOM     25  C   UNL     1       5.741   6.844  17.442  0.00  0.00    +0.000 A 
ENDBRANCH  17  20
BRANCH  17  26
ATOM     26  C   UNL     1       4.160   3.987  17.120  0.00  0.00    +0.000 C 
ATOM     27  O   UNL     1       3.681   2.864  17.231  0.00  0.00    +0.000 OA
BRANCH  26  28
ATOM     28  O   UNL     1       4.760   4.487  16.006  0.00  0.00    +0.000 OA
BRANCH  28  30
ATOM     29  C   UNL     1       6.849   4.552  14.729  0.00  0.00    +0.000 C 
ATOM     30  C   UNL     1       5.873   3.713  15.528  0.00  0.00    +0.000 C 
ENDBRANCH  28  30
ENDBRANCH  26  28
ENDBRANCH  17  26
ENDBRANCH   1  19
TORSDOF 8
ENDMDL
MODEL 3
REMARK VINA RESULT:      -7.9      1.369      1.699
REMARK  Name = 
REMARK  9 active torsions:
REMARK  status: ('A' for Active; 'I' for Inactive)
REMARK    1  A    between atoms: C_1  and  C_2
REMARK    2  A    between atoms: C_2  and  O_3
REMARK    3  A    between atoms: O_3  and  C_4
REMARK    4  A    between atoms: C_4  and  C_6
REMARK    5  A    between atoms: C_6  and  C_7
REMARK    6  A    between atoms: C_14  and  C_15
REMARK    7  A    between atoms: C_15  and  N_16
REMARK    8  A    between atoms: C_19  and  O_20
REMARK    9  A    between atoms: C_19  and  C_21
REMARK                            x       y       z     vdW  Elec       q    Type
REMARK                         _______ _______ _______ _____ _____    ______ ____
ROOT
ATOM      1  C   UNL     1       3.243   6.774  18.611  0.00  0.00    +0.000 C 
ENDROOT
BRANCH   1   2
ATOM      2  N   UNL     1       2.078   7.674  18.702  0.00  0.00    +0.000 NA
ATOM      3  C   UNL     1       2.277   8.811  17.780  0.00  0.00    +0.000 C 
ATOM      4  C   UNL     1       1.003   9.643  17.679  0.00  0.00    +0.000 C 
ATOM      5  C   UNL     1       0.522  10.153  19.054  0.00  0.00    +0.000 C 
ATOM      6  C   UNL     1       0.563   9.032  20.106  0.00  0.00    +0.000 C 
ATOM      7  C   UNL     1       1.871   8.226  20.054  0.00  0.00    +0.000 C 
BRANCH   5   8
ATOM      8  C   UNL     1      -0.882  10.762  18.919  0.00  0.00    +0.000 A 
ATOM      9  C   UNL     1      -1.288  11.797  19.787  0.00  0.00    +0.000 A 
ATOM     10  C   UNL     1      -2.592  12.299  19.766  0.00  0.00    +0.000 A 
ATOM     11  C   UNL     1      -3.513  11.782  18.863  0.00  0.00    +0.000 A 
ATOM     12 CL   UNL     1      -5.132  12.367  18.867  0.00  0.00    +0.000 Cl
ATOM     13  C   UNL     1      -3.134  10.791  17.964  0.00  0.00    +0.000 A 
ATOM     14  C   UNL     1      -1.827  10.291  17.985  0.00  0.00    +0.000 A 
ENDBRANCH   5   8
BRANCH   5  15
ATOM     15  O   UNL     1       1.456  11.159  19.488  0.00  0.00    +0.000 OA
ATOM     16  H   UNL     1       2.309  10.959  19.067  0.00  0.00    +0.000 HD
ENDBRANCH   5  15
ENDBRANCH   1   2
BRANCH   1  19
ATOM     17  C   UNL     1       3.731   4.104  18.280  0.00  0.00    +0.000 C 
ATOM     18  C   UNL     1       3.903   4.588  19.721  0.00  0.00    +0.000 C 
ATOM     19  C   UNL     1       2.940   5.311  18.825  0.00  0.00    +0.000 C 
BRANCH  17  20
ATOM     20  C   UNL     1       4.915   4.282  17.329  0.00  0.00    +0.000 A 
ATOM     21  C   UNL     1       4.717   4.314  15.935  0.00  0.00    +0.000 A 
ATOM     22  C   UNL     1       5.768   4.570  15.049  0.00  0.00    +0.000 A 
ATOM     23  C   UNL     1       7.047   4.796  15.542  0.00  0.00    +0.000 A 
ATOM     24  C   UNL     1       7.275   4.771  16.914  0.00  0.00    +0.000 A 
ATOM     25  C   UNL     1       6.217   4.525  17.795  0.00  0.00    +0.000 A 
ENDBRANCH  17  20
BRANCH  17  26
ATOM     26  C   UNL     1       3.062   2.752  18.152  0.00  0.00    +0.000 C 
ATOM     27  O   UNL     1       3.703   1.710  18.237  0.00  0.00    +0.000 OA
BRANCH  26  28
ATOM     28  O   UNL     1       1.753   2.851  17.795  0.00  0.00    +0.000 OA
BRANCH  28  30
ATOM     29  C   UNL     1       0.677   2.981  19.991  0.00  0.00    +0.000 C 
ATOM     30  C   UNL     1       0.838   2.208  18.698  0.00  0.00    +0.000 C 
ENDBRANCH  28  30
ENDBRANCH  26  28
ENDBRANCH  17  26
ENDBRANCH   1  19
TORSDOF 8
ENDMDL
MODEL 4
REMARK VINA RESULT:      -7.8      2.361      2.999
REMARK  Name = 
REMARK  9 active torsions:
REMARK  status: ('A' for Active; 'I' for Inactive)
REMARK    1  A    between atoms: C_1  and  C_2
REMARK    2  A    between atoms: C_2  and  O_3
REMARK    3  A    between atoms: O_3  and  C_4
REMARK    4  A    between atoms: C_4  and  C_6
REMARK    5  A    between atoms: C_6  and  C_7
REMARK    6  A    between atoms: C_14  and  C_15
REMARK    7  A    between atoms: C_15  and  N_16
REMARK    8  A    between atoms: C_19  and  O_20
REMARK    9  A    between atoms: C_19  and  C_21
REMARK                            x       y       z     vdW  Elec       q    Type
REMARK                         _______ _______ _______ _____ _____    ______ ____
ROOT
ATOM      1  C   UNL     1       2.073   7.476  20.564  0.00  0.00    +0.000 C 
ENDROOT
BRANCH   1   2
ATOM      2  N   UNL     1       1.025   8.442  20.941  0.00  0.00    +0.000 NA
ATOM      3  C   UNL     1       0.985   9.523  19.936  0.00  0.00    +0.000 C 
ATOM      4  C   UNL     1      -0.228  10.419  20.166  0.00  0.00    +0.000 C 
ATOM      5  C   UNL     1      -0.257  11.017  21.589  0.00  0.00    +0.000 C 
ATOM      6  C   UNL     1       0.051   9.944  22.646  0.00  0.00    +0.000 C 
ATOM      7  C   UNL     1       1.251   9.065  22.259  0.00  0.00    +0.000 C 
BRANCH   5   8
ATOM      8  C   UNL     1      -1.613  11.696  21.838  0.00  0.00    +0.000 A 
ATOM      9  C   UNL     1      -2.295  12.318  20.772  0.00  0.00    +0.000 A 
ATOM     10  C   UNL     1      -3.474  13.039  20.980  0.00  0.00    +0.000 A 
ATOM     11  C   UNL     1      -4.001  13.139  22.262  0.00  0.00    +0.000 A 
ATOM     12 CL   UNL     1      -5.428  14.064  22.529  0.00  0.00    +0.000 Cl
ATOM     13  C   UNL     1      -3.376  12.502  23.329  0.00  0.00    +0.000 A 
ATOM     14  C   UNL     1      -2.197  11.778  23.118  0.00  0.00    +0.000 A 
ENDBRANCH   5   8
BRANCH   5  15
ATOM     15  O   UNL     1       0.803  11.988  21.667  0.00  0.00    +0.000 OA
ATOM     16  H   UNL     1       0.604  12.570  22.420  0.00  0.00    +0.000 HD
ENDBRANCH   5  15
ENDBRANCH   1   2
BRANCH   1  19
ATOM     17  C   UNL     1       2.354   5.187  19.094  0.00  0.00    +0.000 C 
ATOM     18  C   UNL     1       2.143   4.937  20.588  0.00  0.00    +0.000 C 
ATOM     19  C   UNL     1       1.569   6.182  19.974  0.00  0.00    +0.000 C 
BRANCH  17  20
ATOM     20  C   UNL     1       3.779   5.483  18.622  0.00  0.00    +0.000 A 
ATOM     21  C   UNL     1       4.007   6.308  17.503  0.00  0.00    +0.000 A 
ATOM     22  C   UNL     1       5.299   6.670  17.110  0.00  0.00    +0.000 A 
ATOM     23  C   UNL     1       6.395   6.209  17.828  0.00  0.00    +0.000 A 
ATOM     24  C   UNL     1       6.202   5.393  18.937  0.00  0.00    +0.000 A 
ATOM     25  C   UNL     1       4.907   5.043  19.333  0.00  0.00    +0.000 A 
ENDBRANCH  17  20
BRANCH  17  26
ATOM     26  C   UNL     1       1.616   4.225  18.189  0.00  0.00    +0.000 C 
ATOM     27  O   UNL     1       0.950   4.622  17.239  0.00  0.00    +0.000 OA
BRANCH  26  28
ATOM     28  O   UNL     1       1.666   2.943  18.642  0.00  0.00    +0.000 OA
BRANCH  28  30
ATOM     29  C   UNL     1       3.685   1.557  18.626  0.00  0.00    +0.000 C 
ATOM     30  C   UNL     1       2.484   2.063  17.853  0.00  0.00    +0.000 C 
ENDBRANCH  28  30
ENDBRANCH  26  28
ENDBRANCH  17  26
ENDBRANCH   1  19
TORSDOF 8
ENDMDL
MODEL 5
REMARK VINA RESULT:      -7.8      2.392      2.954
REMARK  Name = 
REMARK  9 active torsions:
REMARK  status: ('A' for Active; 'I' for Inactive)
REMARK    1  A    between atoms: C_1  and  C_2
REMARK    2  A    between atoms: C_2  and  O_3
REMARK    3  A    between atoms: O_3  and  C_4
REMARK    4  A    between atoms: C_4  and  C_6
REMARK    5  A    between atoms: C_6  and  C_7
REMARK    6  A    between atoms: C_14  and  C_15
REMARK    7  A    between atoms: C_15  and  N_16
REMARK    8  A    between atoms: C_19  and  O_20
REMARK    9  A    between atoms: C_19  and  C_21
REMARK                            x       y       z     vdW  Elec       q    Type
REMARK                         _______ _______ _______ _____ _____    ______ ____
ROOT
ATOM      1  C   UNL     1       2.075   7.710  20.137  0.00  0.00    +0.000 C 
ENDROOT
BRANCH   1   2
ATOM      2  N   UNL     1       1.036   8.638  20.618  0.00  0.00    +0.000 NA
ATOM      3  C   UNL     1       0.990   9.812  19.722  0.00  0.00    +0.000 C 
ATOM      4  C   UNL     1      -0.216  10.685  20.052  0.00  0.00    +0.000 C 
ATOM      5  C   UNL     1      -0.226  11.143  21.526  0.00  0.00    +0.000 C 
ATOM      6  C   UNL     1       0.089   9.972  22.471  0.00  0.00    +0.000 C 
ATOM      7  C   UNL     1       1.280   9.131  21.986  0.00  0.00    +0.000 C 
BRANCH   5   8
ATOM      8  C   UNL     1      -1.576  11.800  21.855  0.00  0.00    +0.000 A 
ATOM      9  C   UNL     1      -2.065  11.781  23.178  0.00  0.00    +0.000 A 
ATOM     10  C   UNL     1      -3.335  12.270  23.494  0.00  0.00    +0.000 A 
ATOM     11  C   UNL     1      -4.137  12.802  22.492  0.00  0.00    +0.000 A 
ATOM     12 CL   UNL     1      -5.719  13.362  22.871  0.00  0.00    +0.000 Cl
ATOM     13  C   UNL     1      -3.669  12.874  21.184  0.00  0.00    +0.000 A 
ATOM     14  C   UNL     1      -2.395  12.387  20.869  0.00  0.00    +0.000 A 
ENDBRANCH   5   8
BRANCH   5  15
ATOM     15  O   UNL     1       0.839  12.099  21.684  0.00  0.00    +0.000 OA
ATOM     16  H   UNL     1       0.448  12.905  22.060  0.00  0.00    +0.000 HD
ENDBRANCH   5  15
ENDBRANCH   1   2
BRANCH   1  19
ATOM     17  C   UNL     1       2.391   5.180  19.148  0.00  0.00    +0.000 C 
ATOM     18  C   UNL     1       2.183   5.227  20.663  0.00  0.00    +0.000 C 
ATOM     19  C   UNL     1       1.591   6.317  19.816  0.00  0.00    +0.000 C 
BRANCH  17  20
ATOM     20  C   UNL     1       3.811   5.397  18.623  0.00  0.00    +0.000 A 
ATOM     21  C   UNL     1       4.028   5.993  17.365  0.00  0.00    +0.000 A 
ATOM     22  C   UNL     1       5.314   6.289  16.905  0.00  0.00    +0.000 A 
ATOM     23  C   UNL     1       6.417   5.990  17.694  0.00  0.00    +0.000 A 
ATOM     24  C   UNL     1       6.236   5.401  18.941  0.00  0.00    +0.000 A 
ATOM     25  C   UNL     1       4.946   5.118  19.402  0.00  0.00    +0.000 A 
ENDBRANCH  17  20
BRANCH  17  26
ATOM     26  C   UNL     1       1.667   4.046  18.453  0.00  0.00    +0.000 C 
ATOM     27  O   UNL     1       1.138   4.200  17.359  0.00  0.00    +0.000 OA
BRANCH  26  28
ATOM     28  O   UNL     1       1.561   2.939  19.237  0.00  0.00    +0.000 OA
BRANCH  28  30
ATOM     29  C   UNL     1       3.301   1.773  17.969  0.00  0.00    +0.000 C 
ATOM     30  C   UNL     1       2.763   2.157  19.332  0.00  0.00    +0.000 C 
ENDBRANCH  28  30
ENDBRANCH  26  28
ENDBRANCH  17  26
ENDBRANCH   1  19
TORSDOF 8
ENDMDL
MODEL 6
REMARK VINA RESULT:      -7.8      1.610      2.111
REMARK  Name = 
REMARK  9 active torsions:
REMARK  status: ('A' for Active; 'I' for Inactive)
REMARK    1  A    between atoms: C_1  and  C_2
REMARK    2  A    between atoms: C_2  and  O_3
REMARK    3  A    between atoms: O_3  and  C_4
REMARK    4  A    between atoms: C_4  and  C_6
REMARK    5  A    between atoms: C_6  and  C_7
REMARK    6  A    between atoms: C_14  and  C_15
REMARK    7  A    between atoms: C_15  and  N_16
REMARK    8  A    between atoms: C_19  and  O_20
REMARK    9  A    between atoms: C_19  and  C_21
REMARK                            x       y       z     vdW  Elec       q    Type
REMARK                         _______ _______ _______ _____ _____    ______ ____
ROOT
ATOM      1  C   UNL     1       2.868   7.199  18.294  0.00  0.00    +0.000 C 
ENDROOT
BRANCH   1   2
ATOM      2  N   UNL     1       1.776   8.134  18.624  0.00  0.00    +0.000 NA
ATOM      3  C   UNL     1       2.015   9.414  17.927  0.00  0.00    +0.000 C 
ATOM      4  C   UNL     1       0.800  10.327  18.064  0.00  0.00    +0.000 C 
ATOM      5  C   UNL     1       0.422  10.588  19.537  0.00  0.00    +0.000 C 
ATOM      6  C   UNL     1       0.430   9.283  20.350  0.00  0.00    +0.000 C 
ATOM      7  C   UNL     1       1.672   8.423  20.067  0.00  0.00    +0.000 C 
BRANCH   5   8
ATOM      8  C   UNL     1      -0.940  11.297  19.604  0.00  0.00    +0.000 A 
ATOM      9  C   UNL     1      -1.285  12.054  20.743  0.00  0.00    +0.000 A 
ATOM     10  C   UNL     1      -2.553  12.622  20.887  0.00  0.00    +0.000 A 
ATOM     11  C   UNL     1      -3.500  12.453  19.883  0.00  0.00    +0.000 A 
ATOM     12 CL   UNL     1      -5.078  13.112  20.079  0.00  0.00    +0.000 Cl
ATOM     13  C   UNL     1      -3.179  11.748  18.728  0.00  0.00    +0.000 A 
ATOM     14  C   UNL     1      -1.906  11.183  18.584  0.00  0.00    +0.000 A 
ENDBRANCH   5   8
BRANCH   5  15
ATOM     15  O   UNL     1       1.444  11.430  20.099  0.00  0.00    +0.000 OA
ATOM     16  H   UNL     1       1.685  11.053  20.962  0.00  0.00    +0.000 HD
ENDBRANCH   5  15
ENDBRANCH   1   2
BRANCH   1  19
ATOM     17  C   UNL     1       3.487   4.535  18.314  0.00  0.00    +0.000 C 
ATOM     18  C   UNL     1       3.499   5.180  19.701  0.00  0.00    +0.000 C 
ATOM     19  C   UNL     1       2.602   5.755  18.643  0.00  0.00    +0.000 C 
BRANCH  17  20
ATOM     20  C   UNL     1       4.751   4.666  17.463  0.00  0.00    +0.000 A 
ATOM     21  C   UNL     1       6.027   4.605  18.059  0.00  0.00    +0.000 A 
ATOM     22  C   UNL     1       7.196   4.627  17.294  0.00  0.00    +0.000 A 
ATOM     23  C   UNL     1       7.115   4.716  15.910  0.00  0.00    +0.000 A 
ATOM     24  C   UNL     1       5.871   4.777  15.292  0.00  0.00    +0.000 A 
ATOM     25  C   UNL     1       4.704   4.744  16.062  0.00  0.00    +0.000 A 
ENDBRANCH  17  20
BRANCH  17  26
ATOM     26  C   UNL     1       2.886   3.146  18.277  0.00  0.00    +0.000 C 
ATOM     27  O   UNL     1       2.345   2.710  17.268  0.00  0.00    +0.000 OA
BRANCH  26  28
ATOM     28  O   UNL     1       2.895   2.543  19.497  0.00  0.00    +0.000 OA
BRANCH  28  30
ATOM     29  C   UNL     1       1.593   2.658  21.568  0.00  0.00    +0.000 C 
ATOM     30  C   UNL     1       1.595   2.362  20.082  0.00  0.00    +0.000 C 
ENDBRANCH  28  30
ENDBRANCH  26  28
ENDBRANCH  17  26
ENDBRANCH   1  19
TORSDOF 8
ENDMDL
MODEL 7
REMARK VINA RESULT:      -7.7      2.700      3.410
REMARK  Name = 
REMARK  9 active torsions:
REMARK  status: ('A' for Active; 'I' for Inactive)
REMARK    1  A    between atoms: C_1  and  C_2
REMARK    2  A    between atoms: C_2  and  O_3
REMARK    3  A    between atoms: O_3  and  C_4
REMARK    4  A    between atoms: C_4  and  C_6
REMARK    5  A    between atoms: C_6  and  C_7
REMARK    6  A    between atoms: C_14  and  C_15
REMARK    7  A    between atoms: C_15  and  N_16
REMARK    8  A    between atoms: C_19  and  O_20
REMARK    9  A    between atoms: C_19  and  C_21
REMARK                            x       y       z     vdW  Elec       q    Type
REMARK                         _______ _______ _______ _____ _____    ______ ____
ROOT
ATOM      1  C   UNL     1       3.185   7.527  17.926  0.00  0.00    +0.000 C 
ENDROOT
BRANCH   1   2
ATOM      2  N   UNL     1       2.521   8.583  18.712  0.00  0.00    +0.000 NA
ATOM      3  C   UNL     1       1.502   7.962  19.583  0.00  0.00    +0.000 C 
ATOM      4  C   UNL     1       0.949   8.987  20.568  0.00  0.00    +0.000 C 
ATOM      5  C   UNL     1       0.359  10.226  19.862  0.00  0.00    +0.000 C 
ATOM      6  C   UNL     1       1.300  10.732  18.756  0.00  0.00    +0.000 C 
ATOM      7  C   UNL     1       1.841   9.592  17.878  0.00  0.00    +0.000 C 
BRANCH   5   8
ATOM      8  C   UNL     1       0.053  11.317  20.899  0.00  0.00    +0.000 A 
ATOM      9  C   UNL     1      -0.751  11.020  22.018  0.00  0.00    +0.000 A 
ATOM     10  C   UNL     1      -1.140  12.011  22.923  0.00  0.00    +0.000 A 
ATOM     11  C   UNL     1      -0.718  13.321  22.731  0.00  0.00    +0.000 A 
ATOM     12 CL   UNL     1      -1.235  14.552  23.818  0.00  0.00    +0.000 Cl
ATOM     13  C   UNL     1       0.111  13.641  21.661  0.00  0.00    +0.000 A 
ATOM     14  C   UNL     1       0.502  12.646  20.758  0.00  0.00    +0.000 A 
ENDBRANCH   5   8
BRANCH   5  15
ATOM     15  O   UNL     1      -0.855   9.809  19.211  0.00  0.00    +0.000 OA
ATOM     16  H   UNL     1      -0.700   9.859  18.253  0.00  0.00    +0.000 HD
ENDBRANCH   5  15
ENDBRANCH   1   2
BRANCH   1  19
ATOM     17  C   UNL     1       3.561   4.819  17.968  0.00  0.00    +0.000 C 
ATOM     18  C   UNL     1       3.626   5.471  19.351  0.00  0.00    +0.000 C 
ATOM     19  C   UNL     1       2.788   6.116  18.284  0.00  0.00    +0.000 C 
BRANCH  17  20
ATOM     20  C   UNL     1       4.835   4.828  17.122  0.00  0.00    +0.000 A 
ATOM     21  C   UNL     1       6.102   4.761  17.733  0.00  0.00    +0.000 A 
ATOM     22  C   UNL     1       7.276   4.672  16.980  0.00  0.00    +0.000 A 
ATOM     23  C   UNL     1       7.208   4.654  15.593  0.00  0.00    +0.000 A 
ATOM     24  C   UNL     1       5.971   4.719  14.960  0.00  0.00    +0.000 A 
ATOM     25  C   UNL     1       4.799   4.796  15.719  0.00  0.00    +0.000 A 
ENDBRANCH  17  20
BRANCH  17  26
ATOM     26  C   UNL     1       2.837   3.490  17.939  0.00  0.00    +0.000 C 
ATOM     27  O   UNL     1       2.090   3.188  17.015  0.00  0.00    +0.000 OA
BRANCH  26  28
ATOM     28  O   UNL     1       3.001   2.782  19.089  0.00  0.00    +0.000 OA
BRANCH  28  30
ATOM     29  C   UNL     1       1.013   3.201  20.456  0.00  0.00    +0.000 C 
ATOM     30  C   UNL     1       1.793   2.210  19.617  0.00  0.00    +0.000 C 
ENDBRANCH  28  30
ENDBRANCH  26  28
ENDBRANCH  17  26
ENDBRANCH   1  19
TORSDOF 8
ENDMDL
MODEL 8
REMARK VINA RESULT:      -7.7      0.237      1.285
REMARK  Name = 
REMARK  9 active torsions:
REMARK  status: ('A' for Active; 'I' for Inactive)
REMARK    1  A    between atoms: C_1  and  C_2
REMARK    2  A    between atoms: C_2  and  O_3
REMARK    3  A    between atoms: O_3  and  C_4
REMARK    4  A    between atoms: C_4  and  C_6
REMARK    5  A    between atoms: C_6  and  C_7
REMARK    6  A    between atoms: C_14  and  C_15
REMARK    7  A    between atoms: C_15  and  N_16
REMARK    8  A    between atoms: C_19  and  O_20
REMARK    9  A    between atoms: C_19  and  C_21
REMARK                            x       y       z     vdW  Elec       q    Type
REMARK                         _______ _______ _______ _____ _____    ______ ____
ROOT
ATOM      1  C   UNL     1       2.811   7.006  19.998  0.00  0.00    +0.000 C 
ENDROOT
BRANCH   1   2
ATOM      2  N   UNL     1       1.615   7.808  19.682  0.00  0.00    +0.000 NA
ATOM      3  C   UNL     1       1.901   8.650  18.503  0.00  0.00    +0.000 C 
ATOM      4  C   UNL     1       0.625   9.326  18.010  0.00  0.00    +0.000 C 
ATOM      5  C   UNL     1      -0.059  10.166  19.110  0.00  0.00    +0.000 C 
ATOM      6  C   UNL     1      -0.125   9.393  20.436  0.00  0.00    +0.000 C 
ATOM      7  C   UNL     1       1.203   8.702  20.780  0.00  0.00    +0.000 C 
BRANCH   5   8
ATOM      8  C   UNL     1      -1.451  10.609  18.632  0.00  0.00    +0.000 A 
ATOM      9  C   UNL     1      -2.002  10.056  17.458  0.00  0.00    +0.000 A 
ATOM     10  C   UNL     1      -3.215  10.512  16.935  0.00  0.00    +0.000 A 
ATOM     11  C   UNL     1      -3.907  11.525  17.587  0.00  0.00    +0.000 A 
ATOM     12 CL   UNL     1      -5.377  12.122  16.918  0.00  0.00    +0.000 Cl
ATOM     13  C   UNL     1      -3.413  12.064  18.770  0.00  0.00    +0.000 A 
ATOM     14  C   UNL     1      -2.200  11.603  19.294  0.00  0.00    +0.000 A 
ENDBRANCH   5   8
BRANCH   5  15
ATOM     15  O   UNL     1       0.771  11.318  19.346  0.00  0.00    +0.000 OA
ATOM     16  H   UNL     1       1.484  11.299  18.686  0.00  0.00    +0.000 HD
ENDBRANCH   5  15
ENDBRANCH   1   2
BRANCH   1  19
ATOM     17  C   UNL     1       4.054   4.943  18.703  0.00  0.00    +0.000 C 
ATOM     18  C   UNL     1       3.630   4.605  20.134  0.00  0.00    +0.000 C 
ATOM     19  C   UNL     1       2.847   5.634  19.370  0.00  0.00    +0.000 C 
BRANCH  17  20
ATOM     20  C   UNL     1       5.390   5.664  18.515  0.00  0.00    +0.000 A 
ATOM     21  C   UNL     1       6.496   5.350  19.330  0.00  0.00    +0.000 A 
ATOM     22  C   UNL     1       7.752   5.925  19.117  0.00  0.00    +0.000 A 
ATOM     23  C   UNL     1       7.928   6.835  18.082  0.00  0.00    +0.000 A 
ATOM     24  C   UNL     1       6.856   7.165  17.260  0.00  0.00    +0.000 A 
ATOM     25  C   UNL     1       5.605   6.578  17.471  0.00  0.00    +0.000 A 
ENDBRANCH  17  20
BRANCH  17  26
ATOM     26  C   UNL     1       3.836   3.824  17.707  0.00  0.00    +0.000 C 
ATOM     27  O   UNL     1       3.780   4.042  16.502  0.00  0.00    +0.000 OA
BRANCH  26  28
ATOM     28  O   UNL     1       3.575   2.633  18.311  0.00  0.00    +0.000 OA
BRANCH  28  30
ATOM     29  C   UNL     1       1.176   2.314  18.691  0.00  0.00    +0.000 C 
ATOM     30  C   UNL     1       2.386   1.975  17.843  0.00  0.00    +0.000 C 
ENDBRANCH  28  30
ENDBRANCH  26  28
ENDBRANCH  17  26
ENDBRANCH   1  19
TORSDOF 8
ENDMDL
MODEL 9
REMARK VINA RESULT:      -7.7      2.109      2.790
REMARK  Name = 
REMARK  9 active torsions:
REMARK  status: ('A' for Active; 'I' for Inactive)
REMARK    1  A    between atoms: C_1  and  C_2
REMARK    2  A    between atoms: C_2  and  O_3
REMARK    3  A    between atoms: O_3  and  C_4
REMARK    4  A    between atoms: C_4  and  C_6
REMARK    5  A    between atoms: C_6  and  C_7
REMARK    6  A    between atoms: C_14  and  C_15
REMARK    7  A    between atoms: C_15  and  N_16
REMARK    8  A    between atoms: C_19  and  O_20
REMARK    9  A    between atoms: C_19  and  C_21
REMARK                            x       y       z     vdW  Elec       q    Type
REMARK                         _______ _______ _______ _____ _____    ______ ____
ROOT
ATOM      1  C   UNL     1       1.986   7.252  20.969  0.00  0.00    +0.000 C 
ENDROOT
BRANCH   1   2
ATOM      2  N   UNL     1       0.962   8.302  21.121  0.00  0.00    +0.000 NA
ATOM      3  C   UNL     1       1.099   9.268  20.013  0.00  0.00    +0.000 C 
ATOM      4  C   UNL     1      -0.076  10.241  20.008  0.00  0.00    +0.000 C 
ATOM      5  C   UNL     1      -0.226  10.990  21.350  0.00  0.00    +0.000 C 
ATOM      6  C   UNL     1      -0.102  10.024  22.539  0.00  0.00    +0.000 C 
ATOM      7  C   UNL     1       1.079   9.052  22.386  0.00  0.00    +0.000 C 
BRANCH   5   8
ATOM      8  C   UNL     1      -1.558  11.757  21.368  0.00  0.00    +0.000 A 
ATOM      9  C   UNL     1      -2.231  11.968  22.589  0.00  0.00    +0.000 A 
ATOM     10  C   UNL     1      -3.495  12.563  22.633  0.00  0.00    +0.000 A 
ATOM     11  C   UNL     1      -4.104  12.972  21.452  0.00  0.00    +0.000 A 
ATOM     12 CL   UNL     1      -5.680  13.662  21.499  0.00  0.00    +0.000 Cl
ATOM     13  C   UNL     1      -3.449  12.816  20.235  0.00  0.00    +0.000 A 
ATOM     14  C   UNL     1      -2.182  12.222  20.194  0.00  0.00    +0.000 A 
ENDBRANCH   5   8
BRANCH   5  15
ATOM     15  O   UNL     1       0.875  11.912  21.451  0.00  0.00    +0.000 OA
ATOM     16  H   UNL     1       0.567  12.671  21.974  0.00  0.00    +0.000 HD
ENDBRANCH   5  15
ENDBRANCH   1   2
BRANCH   1  19
ATOM     17  C   UNL     1       2.331   5.162  19.239  0.00  0.00    +0.000 C 
ATOM     18  C   UNL     1       2.177   4.733  20.699  0.00  0.00    +0.000 C 
ATOM     19  C   UNL     1       1.527   6.009  20.247  0.00  0.00    +0.000 C 
BRANCH  17  20
ATOM     20  C   UNL     1       3.725   5.581  18.769  0.00  0.00    +0.000 A 
ATOM     21  C   UNL     1       4.878   5.023  19.357  0.00  0.00    +0.000 A 
ATOM     22  C   UNL     1       6.159   5.318  18.882  0.00  0.00    +0.000 A 
ATOM     23  C   UNL     1       6.316   6.185  17.809  0.00  0.00    +0.000 A 
ATOM     24  C   UNL     1       5.198   6.753  17.208  0.00  0.00    +0.000 A 
ATOM     25  C   UNL     1       3.917   6.445  17.679  0.00  0.00    +0.000 A 
ENDBRANCH  17  20
BRANCH  17  26
ATOM     26  C   UNL     1       1.612   4.272  18.247  0.00  0.00    +0.000 C 
ATOM     27  O   UNL     1       0.990   4.741  17.301  0.00  0.00    +0.000 OA
BRANCH  26  28
ATOM     28  O   UNL     1       1.624   2.964  18.619  0.00  0.00    +0.000 OA
BRANCH  28  30
ATOM     29  C   UNL     1       3.586   1.499  18.561  0.00  0.00    +0.000 C 
ATOM     30  C   UNL     1       2.436   2.115  17.790  0.00  0.00    +0.000 C 
ENDBRANCH  28  30
ENDBRANCH  26  28
ENDBRANCH  17  26
ENDBRANCH   1  19
TORSDOF 8
ENDMDL
