MODEL 1
REMARK VINA RESULT:      -8.3      0.000      0.000
REMARK  Name = 
REMARK  11 active torsions:
REMARK  status: ('A' for Active; 'I' for Inactive)
REMARK    1  A    between atoms: C_1  and  O_2
REMARK    2  A    between atoms: O_2  and  C_3
REMARK    3  A    between atoms: N_8  and  C_9
REMARK    4  A    between atoms: C_9  and  C_10
REMARK    5  A    between atoms: C_10  and  N_11
REMARK    6  A    between atoms: C_14  and  C_15
REMARK    7  A    between atoms: C_15  and  N_16
REMARK    8  A    between atoms: C_17  and  C_19
REMARK    9  A    between atoms: C_25  and  C_26
REMARK   10  A    between atoms: C_26  and  C_27
REMARK   11  A    between atoms: C_26  and  C_28
REMARK                            x       y       z     vdW  Elec       q    Type
REMARK                         _______ _______ _______ _____ _____    ______ ____
ROOT
ATOM      1  N   UNL     1       1.362   4.666  19.624  0.00  0.00    +0.000 NA
ATOM      2  C   UNL     1       2.101   4.677  18.349  0.00  0.00    +0.000 C 
ATOM      3  C   UNL     1       1.695   3.516  17.448  0.00  0.00    +0.000 C 
ATOM      4  C   UNL     1       1.919   2.165  18.131  0.00  0.00    +0.000 C 
ATOM      5  C   UNL     1       1.148   2.179  19.459  0.00  0.00    +0.000 C 
ATOM      6  C   UNL     1       1.522   3.385  20.335  0.00  0.00    +0.000 C 
ENDROOT
BRANCH   1   7
ATOM      7  C   UNL     1       1.781   5.800  20.489  0.00  0.00    +0.000 C 
BRANCH   7   8
ATOM      8  C   UNL     1       1.420   7.170  19.860  0.00  0.00    +0.000 C 
BRANCH   8  14
ATOM      9  C   UNL     1      -1.067  11.264  21.183  0.00  0.00    +0.000 C 
ATOM     10  O   UNL     1      -1.238  12.193  20.407  0.00  0.00    +0.000 OA
ATOM     11  N   UNL     1      -0.426  10.092  20.853  0.00  0.00    +0.000 N 
ATOM     12  C   UNL     1       0.174   9.947  19.529  0.00  0.00    +0.000 C 
ATOM     13  C   UNL     1       1.667   9.565  19.648  0.00  0.00    +0.000 C 
ATOM     14  N   UNL     1       1.931   8.387  20.523  0.00  0.00    +0.000 NA
ATOM     15  C   UNL     1       1.313   8.639  21.844  0.00  0.00    +0.000 C 
ATOM     16  C   UNL     1      -0.188   8.986  21.783  0.00  0.00    +0.000 C 
BRANCH   9  18
ATOM     17  C   UNL     1      -1.489  12.572  23.081  0.00  0.00    +0.000 C 
ATOM     18  O   UNL     1      -1.478  11.280  22.480  0.00  0.00    +0.000 OA
ENDBRANCH   9  18
ENDBRANCH   8  14
ENDBRANCH   7   8
ENDBRANCH   1   7
BRANCH   4  19
ATOM     19  C   UNL     1       3.406   1.845  18.368  0.00  0.00    +0.000 C 
BRANCH  19  20
ATOM     20  N   UNL     1       4.279   2.879  17.868  0.00  0.00    +0.000 N 
ATOM     21  C   UNL     1       5.177   3.558  18.664  0.00  0.00    +0.000 C 
ATOM     22  O   UNL     1       5.342   3.319  19.857  0.00  0.00    +0.000 OA
ATOM     23  H   UNL     1       4.235   3.130  16.879  0.00  0.00    +0.000 HD
BRANCH  21  24
ATOM     24  C   UNL     1       5.958   4.632  18.008  0.00  0.00    +0.000 A 
ATOM     25  C   UNL     1       6.455   5.704  18.775  0.00  0.00    +0.000 A 
ATOM     26  C   UNL     1       7.195   6.730  18.180  0.00  0.00    +0.000 A 
ATOM     27  C   UNL     1       7.466   6.724  16.805  0.00  0.00    +0.000 A 
ATOM     28  C   UNL     1       6.957   5.657  16.063  0.00  0.00    +0.000 A 
ATOM     29  N   UNL     1       7.028   5.342  14.728  0.00  0.00    +0.000 N 
ATOM     30  C   UNL     1       6.342   4.166  14.519  0.00  0.00    +0.000 A 
ATOM     31  N   UNL     1       5.842   3.712  15.651  0.00  0.00    +0.000 NA
ATOM     32  C   UNL     1       6.214   4.622  16.624  0.00  0.00    +0.000 A 
ATOM     33  H   UNL     1       7.514   5.873  14.026  0.00  0.00    +0.000 HD
BRANCH  30  34
ATOM     34  C   UNL     1       6.244   3.516  13.171  0.00  0.00    +0.000 C 
ATOM     35  C   UNL     1       4.817   3.634  12.633  0.00  0.00    +0.000 C 
ATOM     36  C   UNL     1       7.234   4.136  12.183  0.00  0.00    +0.000 C 
ENDBRANCH  30  34
ENDBRANCH  21  24
ENDBRANCH  19  20
ENDBRANCH   4  19
TORSDOF 8
ENDMDL
MODEL 2
REMARK VINA RESULT:      -8.1      2.433      5.550
REMARK  Name = 
REMARK  11 active torsions:
REMARK  status: ('A' for Active; 'I' for Inactive)
REMARK    1  A    between atoms: C_1  and  O_2
REMARK    2  A    between atoms: O_2  and  C_3
REMARK    3  A    between atoms: N_8  and  C_9
REMARK    4  A    between atoms: C_9  and  C_10
REMARK    5  A    between atoms: C_10  and  N_11
REMARK    6  A    between atoms: C_14  and  C_15
REMARK    7  A    between atoms: C_15  and  N_16
REMARK    8  A    between atoms: C_17  and  C_19
REMARK    9  A    between atoms: C_25  and  C_26
REMARK   10  A    between atoms: C_26  and  C_27
REMARK   11  A    between atoms: C_26  and  C_28
REMARK                            x       y       z     vdW  Elec       q    Type
REMARK                         _______ _______ _______ _____ _____    ______ ____
ROOT
ATOM      1  N   UNL     1      -0.318  11.431  19.157  0.00  0.00    +0.000 NA
ATOM      2  C   UNL     1       1.129  11.553  19.408  0.00  0.00    +0.000 C 
ATOM      3  C   UNL     1       1.954  11.003  18.250  0.00  0.00    +0.000 C 
ATOM      4  C   UNL     1       1.628   9.534  17.970  0.00  0.00    +0.000 C 
ATOM      5  C   UNL     1       0.116   9.430  17.720  0.00  0.00    +0.000 C 
ATOM      6  C   UNL     1      -0.705  10.039  18.867  0.00  0.00    +0.000 C 
ENDROOT
BRANCH   1   7
ATOM      7  C   UNL     1      -1.101  11.964  20.302  0.00  0.00    +0.000 C 
BRANCH   7   8
ATOM      8  C   UNL     1      -0.236  12.858  21.227  0.00  0.00    +0.000 C 
BRANCH   8  14
ATOM      9  C   UNL     1      -4.326  13.989  23.812  0.00  0.00    +0.000 C 
ATOM     10  O   UNL     1      -4.540  15.123  24.216  0.00  0.00    +0.000 OA
ATOM     11  N   UNL     1      -3.233  13.634  23.056  0.00  0.00    +0.000 N 
ATOM     12  C   UNL     1      -2.202  14.627  22.768  0.00  0.00    +0.000 C 
ATOM     13  C   UNL     1      -0.813  14.113  23.211  0.00  0.00    +0.000 C 
ATOM     14  N   UNL     1      -0.463  12.763  22.684  0.00  0.00    +0.000 NA
ATOM     15  C   UNL     1      -1.548  11.824  23.048  0.00  0.00    +0.000 C 
ATOM     16  C   UNL     1      -2.950  12.273  22.594  0.00  0.00    +0.000 C 
BRANCH   9  18
ATOM     17  C   UNL     1      -6.521  13.169  23.829  0.00  0.00    +0.000 C 
ATOM     18  O   UNL     1      -5.138  12.930  24.076  0.00  0.00    +0.000 OA
ENDBRANCH   9  18
ENDBRANCH   8  14
ENDBRANCH   7   8
ENDBRANCH   1   7
BRANCH   4  19
ATOM     19  C   UNL     1       2.057   8.591  19.108  0.00  0.00    +0.000 C 
BRANCH  19  20
ATOM     20  N   UNL     1       2.235   7.231  18.662  0.00  0.00    +0.000 N 
ATOM     21  C   UNL     1       2.076   6.139  19.488  0.00  0.00    +0.000 C 
ATOM     22  O   UNL     1       1.731   6.221  20.664  0.00  0.00    +0.000 OA
ATOM     23  H   UNL     1       2.496   7.058  17.689  0.00  0.00    +0.000 HD
BRANCH  21  24
ATOM     24  C   UNL     1       2.354   4.813  18.889  0.00  0.00    +0.000 A 
ATOM     25  C   UNL     1       1.376   3.800  18.945  0.00  0.00    +0.000 A 
ATOM     26  C   UNL     1       1.615   2.540  18.387  0.00  0.00    +0.000 A 
ATOM     27  C   UNL     1       2.830   2.247  17.755  0.00  0.00    +0.000 A 
ATOM     28  C   UNL     1       3.787   3.262  17.718  0.00  0.00    +0.000 A 
ATOM     29  N   UNL     1       5.055   3.319  17.193  0.00  0.00    +0.000 N 
ATOM     30  C   UNL     1       5.574   4.571  17.436  0.00  0.00    +0.000 A 
ATOM     31  N   UNL     1       4.702   5.318  18.083  0.00  0.00    +0.000 NA
ATOM     32  C   UNL     1       3.583   4.525  18.267  0.00  0.00    +0.000 A 
ATOM     33  H   UNL     1       5.519   2.574  16.700  0.00  0.00    +0.000 HD
BRANCH  30  34
ATOM     34  C   UNL     1       6.938   4.985  16.970  0.00  0.00    +0.000 C 
ATOM     35  C   UNL     1       6.992   4.990  15.441  0.00  0.00    +0.000 C 
ATOM     36  C   UNL     1       7.318   6.362  17.517  0.00  0.00    +0.000 C 
ENDBRANCH  30  34
ENDBRANCH  21  24
ENDBRANCH  19  20
ENDBRANCH   4  19
TORSDOF 8
ENDMDL
MODEL 3
REMARK VINA RESULT:      -8.0      1.420      1.685
REMARK  Name = 
REMARK  11 active torsions:
REMARK  status: ('A' for Active; 'I' for Inactive)
REMARK    1  A    between atoms: C_1  and  O_2
REMARK    2  A    between atoms: O_2  and  C_3
REMARK    3  A    between atoms: N_8  and  C_9
REMARK    4  A    between atoms: C_9  and  C_10
REMARK    5  A    between atoms: C_10  and  N_11
REMARK    6  A    between atoms: C_14  and  C_15
REMARK    7  A    between atoms: C_15  and  N_16
REMARK    8  A    between atoms: C_17  and  C_19
REMARK    9  A    between atoms: C_25  and  C_26
REMARK   10  A    between atoms: C_26  and  C_27
REMARK   11  A    between atoms: C_26  and  C_28
REMARK                            x       y       z     vdW  Elec       q    Type
REMARK                         _______ _______ _______ _____ _____    ______ ____
ROOT
ATOM      1  N   UNL     1       1.737   5.870  19.149  0.00  0.00    +0.000 NA
ATOM      2  C   UNL     1       2.081   5.337  17.819  0.00  0.00    +0.000 C 
ATOM      3  C   UNL     1       1.240   4.115  17.463  0.00  0.00    +0.000 C 
ATOM      4  C   UNL     1       1.401   2.997  18.496  0.00  0.00    +0.000 C 
ATOM      5  C   UNL     1       1.047   3.578  19.872  0.00  0.00    +0.000 C 
ATOM      6  C   UNL     1       1.859   4.841  20.197  0.00  0.00    +0.000 C 
ENDROOT
BRANCH   1   7
ATOM      7  C   UNL     1       2.575   7.053  19.478  0.00  0.00    +0.000 C 
BRANCH   7   8
ATOM      8  C   UNL     1       1.716   8.322  19.712  0.00  0.00    +0.000 C 
BRANCH   8  14
ATOM      9  C   UNL     1      -1.094  12.411  19.418  0.00  0.00    +0.000 C 
ATOM     10  O   UNL     1      -2.245  12.374  19.006  0.00  0.00    +0.000 OA
ATOM     11  N   UNL     1      -0.291  11.303  19.560  0.00  0.00    +0.000 N 
ATOM     12  C   UNL     1      -0.779   9.998  19.124  0.00  0.00    +0.000 C 
ATOM     13  C   UNL     1       0.209   9.353  18.126  0.00  0.00    +0.000 C 
ATOM     14  N   UNL     1       1.620   9.300  18.607  0.00  0.00    +0.000 NA
ATOM     15  C   UNL     1       2.032  10.667  18.997  0.00  0.00    +0.000 C 
ATOM     16  C   UNL     1       1.098  11.339  20.023  0.00  0.00    +0.000 C 
BRANCH   9  18
ATOM     17  C   UNL     1      -0.336  14.517  18.725  0.00  0.00    +0.000 C 
ATOM     18  O   UNL     1      -0.458  13.559  19.774  0.00  0.00    +0.000 OA
ENDBRANCH   9  18
ENDBRANCH   8  14
ENDBRANCH   7   8
ENDBRANCH   1   7
BRANCH   4  19
ATOM     19  C   UNL     1       2.814   2.386  18.510  0.00  0.00    +0.000 C 
BRANCH  19  20
ATOM     20  N   UNL     1       3.820   3.310  18.046  0.00  0.00    +0.000 N 
ATOM     21  C   UNL     1       4.984   3.567  18.738  0.00  0.00    +0.000 C 
ATOM     22  O   UNL     1       5.288   3.008  19.788  0.00  0.00    +0.000 OA
ATOM     23  H   UNL     1       3.671   3.805  17.165  0.00  0.00    +0.000 HD
BRANCH  21  24
ATOM     24  C   UNL     1       5.886   4.588  18.155  0.00  0.00    +0.000 A 
ATOM     25  C   UNL     1       6.438   5.588  18.980  0.00  0.00    +0.000 A 
ATOM     26  C   UNL     1       7.292   6.562  18.454  0.00  0.00    +0.000 A 
ATOM     27  C   UNL     1       7.625   6.574  17.093  0.00  0.00    +0.000 A 
ATOM     28  C   UNL     1       7.061   5.580  16.293  0.00  0.00    +0.000 A 
ATOM     29  N   UNL     1       7.167   5.300  14.952  0.00  0.00    +0.000 N 
ATOM     30  C   UNL     1       6.391   4.197  14.672  0.00  0.00    +0.000 A 
ATOM     31  N   UNL     1       5.802   3.755  15.764  0.00  0.00    +0.000 NA
ATOM     32  C   UNL     1       6.205   4.598  16.785  0.00  0.00    +0.000 A 
ATOM     33  H   UNL     1       7.730   5.808  14.290  0.00  0.00    +0.000 HD
BRANCH  30  34
ATOM     34  C   UNL     1       6.301   3.600  13.299  0.00  0.00    +0.000 C 
ATOM     35  C   UNL     1       4.859   3.665  12.792  0.00  0.00    +0.000 C 
ATOM     36  C   UNL     1       7.239   4.311  12.322  0.00  0.00    +0.000 C 
ENDBRANCH  30  34
ENDBRANCH  21  24
ENDBRANCH  19  20
ENDBRANCH   4  19
TORSDOF 8
ENDMDL
MODEL 4
REMARK VINA RESULT:      -7.9      1.065      1.299
REMARK  Name = 
REMARK  11 active torsions:
REMARK  status: ('A' for Active; 'I' for Inactive)
REMARK    1  A    between atoms: C_1  and  O_2
REMARK    2  A    between atoms: O_2  and  C_3
REMARK    3  A    between atoms: N_8  and  C_9
REMARK    4  A    between atoms: C_9  and  C_10
REMARK    5  A    between atoms: C_10  and  N_11
REMARK    6  A    between atoms: C_14  and  C_15
REMARK    7  A    between atoms: C_15  and  N_16
REMARK    8  A    between atoms: C_17  and  C_19
REMARK    9  A    between atoms: C_25  and  C_26
REMARK   10  A    between atoms: C_26  and  C_27
REMARK   11  A    between atoms: C_26  and  C_28
REMARK                            x       y       z     vdW  Elec       q    Type
REMARK                         _______ _______ _______ _____ _____    ______ ____
ROOT
ATOM      1  N   UNL     1       1.592   5.430  19.504  0.00  0.00    +0.000 NA
ATOM      2  C   UNL     1       2.176   5.234  18.165  0.00  0.00    +0.000 C 
ATOM      3  C   UNL     1       1.466   4.127  17.393  0.00  0.00    +0.000 C 
ATOM      4  C   UNL     1       1.508   2.795  18.145  0.00  0.00    +0.000 C 
ATOM      5  C   UNL     1       0.904   3.025  19.538  0.00  0.00    +0.000 C 
ATOM      6  C   UNL     1       1.589   4.180  20.285  0.00  0.00    +0.000 C 
ENDROOT
BRANCH   1   7
ATOM      7  C   UNL     1       2.306   6.505  20.240  0.00  0.00    +0.000 C 
BRANCH   7   8
ATOM      8  C   UNL     1       1.329   7.581  20.781  0.00  0.00    +0.000 C 
BRANCH   8  14
ATOM      9  C   UNL     1      -1.400  11.495  19.392  0.00  0.00    +0.000 C 
ATOM     10  O   UNL     1      -1.524  11.810  18.217  0.00  0.00    +0.000 OA
ATOM     11  N   UNL     1      -0.694  10.396  19.825  0.00  0.00    +0.000 N 
ATOM     12  C   UNL     1       0.036   9.582  18.858  0.00  0.00    +0.000 C 
ATOM     13  C   UNL     1       1.521   9.454  19.264  0.00  0.00    +0.000 C 
ATOM     14  N   UNL     1       1.736   8.998  20.668  0.00  0.00    +0.000 NA
ATOM     15  C   UNL     1       0.985   9.897  21.571  0.00  0.00    +0.000 C 
ATOM     16  C   UNL     1      -0.513  10.028  21.231  0.00  0.00    +0.000 C 
BRANCH   9  18
ATOM     17  C   UNL     1      -3.278  12.633  20.210  0.00  0.00    +0.000 C 
ATOM     18  O   UNL     1      -1.936  12.204  20.423  0.00  0.00    +0.000 OA
ENDBRANCH   9  18
ENDBRANCH   8  14
ENDBRANCH   7   8
ENDBRANCH   1   7
BRANCH   4  19
ATOM     19  C   UNL     1       2.927   2.209  18.257  0.00  0.00    +0.000 C 
BRANCH  19  20
ATOM     20  N   UNL     1       3.952   3.191  18.001  0.00  0.00    +0.000 N 
ATOM     21  C   UNL     1       5.003   3.427  18.862  0.00  0.00    +0.000 C 
ATOM     22  O   UNL     1       5.183   2.799  19.902  0.00  0.00    +0.000 OA
ATOM     23  H   UNL     1       3.904   3.747  17.146  0.00  0.00    +0.000 HD
BRANCH  21  24
ATOM     24  C   UNL     1       5.937   4.512  18.481  0.00  0.00    +0.000 A 
ATOM     25  C   UNL     1       6.548   5.294  19.481  0.00  0.00    +0.000 A 
ATOM     26  C   UNL     1       7.433   6.323  19.147  0.00  0.00    +0.000 A 
ATOM     27  C   UNL     1       7.740   6.608  17.810  0.00  0.00    +0.000 A 
ATOM     28  C   UNL     1       7.118   5.827  16.836  0.00  0.00    +0.000 A 
ATOM     29  N   UNL     1       7.187   5.831  15.464  0.00  0.00    +0.000 N 
ATOM     30  C   UNL     1       6.358   4.842  14.981  0.00  0.00    +0.000 A 
ATOM     31  N   UNL     1       5.771   4.203  15.972  0.00  0.00    +0.000 NA
ATOM     32  C   UNL     1       6.229   4.797  17.135  0.00  0.00    +0.000 A 
ATOM     33  H   UNL     1       7.759   6.444  14.908  0.00  0.00    +0.000 HD
BRANCH  30  34
ATOM     34  C   UNL     1       6.216   4.551  13.516  0.00  0.00    +0.000 C 
ATOM     35  C   UNL     1       7.522   4.872  12.787  0.00  0.00    +0.000 C 
ATOM     36  C   UNL     1       5.820   3.093  13.275  0.00  0.00    +0.000 C 
ENDBRANCH  30  34
ENDBRANCH  21  24
ENDBRANCH  19  20
ENDBRANCH   4  19
TORSDOF 8
ENDMDL
MODEL 5
REMARK VINA RESULT:      -7.8      1.412      1.915
REMARK  Name = 
REMARK  11 active torsions:
REMARK  status: ('A' for Active; 'I' for Inactive)
REMARK    1  A    between atoms: C_1  and  O_2
REMARK    2  A    between atoms: O_2  and  C_3
REMARK    3  A    between atoms: N_8  and  C_9
REMARK    4  A    between atoms: C_9  and  C_10
REMARK    5  A    between atoms: C_10  and  N_11
REMARK    6  A    between atoms: C_14  and  C_15
REMARK    7  A    between atoms: C_15  and  N_16
REMARK    8  A    between atoms: C_17  and  C_19
REMARK    9  A    between atoms: C_25  and  C_26
REMARK   10  A    between atoms: C_26  and  C_27
REMARK   11  A    between atoms: C_26  and  C_28
REMARK                            x       y       z     vdW  Elec       q    Type
REMARK                         _______ _______ _______ _____ _____    ______ ____
ROOT
ATOM      1  N   UNL     1       1.869   5.242  20.681  0.00  0.00    +0.000 NA
ATOM      2  C   UNL     1       0.908   4.579  19.782  0.00  0.00    +0.000 C 
ATOM      3  C   UNL     1       0.614   3.149  20.222  0.00  0.00    +0.000 C 
ATOM      4  C   UNL     1       1.888   2.303  20.286  0.00  0.00    +0.000 C 
ATOM      5  C   UNL     1       2.876   3.017  21.220  0.00  0.00    +0.000 C 
ATOM      6  C   UNL     1       3.121   4.475  20.801  0.00  0.00    +0.000 C 
ENDROOT
BRANCH   1   7
ATOM      7  C   UNL     1       2.147   6.630  20.227  0.00  0.00    +0.000 C 
BRANCH   7   8
ATOM      8  C   UNL     1       1.491   7.683  21.156  0.00  0.00    +0.000 C 
BRANCH   8  14
ATOM      9  C   UNL     1      -0.450  12.104  22.334  0.00  0.00    +0.000 C 
ATOM     10  O   UNL     1      -1.124  12.264  23.341  0.00  0.00    +0.000 OA
ATOM     11  N   UNL     1       0.145  10.913  21.987  0.00  0.00    +0.000 N 
ATOM     12  C   UNL     1      -0.088   9.726  22.803  0.00  0.00    +0.000 C 
ATOM     13  C   UNL     1      -0.622   8.565  21.934  0.00  0.00    +0.000 C 
ATOM     14  N   UNL     1       0.204   8.271  20.728  0.00  0.00    +0.000 NA
ATOM     15  C   UNL     1       0.360   9.523  19.953  0.00  0.00    +0.000 C 
ATOM     16  C   UNL     1       0.928  10.702  20.767  0.00  0.00    +0.000 C 
BRANCH   9  18
ATOM     17  C   UNL     1       0.484  14.215  21.929  0.00  0.00    +0.000 C 
ATOM     18  O   UNL     1      -0.218  13.084  21.419  0.00  0.00    +0.000 OA
ENDBRANCH   9  18
ENDBRANCH   8  14
ENDBRANCH   7   8
ENDBRANCH   1   7
BRANCH   4  19
ATOM     19  C   UNL     1       2.523   2.060  18.905  0.00  0.00    +0.000 C 
BRANCH  19  20
ATOM     20  N   UNL     1       3.639   2.937  18.648  0.00  0.00    +0.000 N 
ATOM     21  C   UNL     1       3.723   3.743  17.533  0.00  0.00    +0.000 C 
ATOM     22  O   UNL     1       2.843   3.818  16.681  0.00  0.00    +0.000 OA
ATOM     23  H   UNL     1       4.412   2.965  19.316  0.00  0.00    +0.000 HD
BRANCH  21  24
ATOM     24  C   UNL     1       4.964   4.539  17.388  0.00  0.00    +0.000 A 
ATOM     25  C   UNL     1       5.424   5.322  18.465  0.00  0.00    +0.000 A 
ATOM     26  C   UNL     1       6.592   6.082  18.353  0.00  0.00    +0.000 A 
ATOM     27  C   UNL     1       7.342   6.088  17.169  0.00  0.00    +0.000 A 
ATOM     28  C   UNL     1       6.864   5.311  16.112  0.00  0.00    +0.000 A 
ATOM     29  N   UNL     1       7.334   5.090  14.841  0.00  0.00    +0.000 N 
ATOM     30  C   UNL     1       6.470   4.231  14.198  0.00  0.00    +0.000 A 
ATOM     31  N   UNL     1       5.478   3.889  14.994  0.00  0.00    +0.000 NA
ATOM     32  C   UNL     1       5.703   4.547  16.190  0.00  0.00    +0.000 A 
ATOM     33  H   UNL     1       8.177   5.479  14.452  0.00  0.00    +0.000 HD
BRANCH  30  34
ATOM     34  C   UNL     1       6.700   3.754  12.794  0.00  0.00    +0.000 C 
ATOM     35  C   UNL     1       5.374   3.336  12.157  0.00  0.00    +0.000 C 
ATOM     36  C   UNL     1       7.378   4.832  11.946  0.00  0.00    +0.000 C 
ENDBRANCH  30  34
ENDBRANCH  21  24
ENDBRANCH  19  20
ENDBRANCH   4  19
TORSDOF 8
ENDMDL
MODEL 6
REMARK VINA RESULT:      -7.8      4.225      6.981
REMARK  Name = 
REMARK  11 active torsions:
REMARK  status: ('A' for Active; 'I' for Inactive)
REMARK    1  A    between atoms: C_1  and  O_2
REMARK    2  A    between atoms: O_2  and  C_3
REMARK    3  A    between atoms: N_8  and  C_9
REMARK    4  A    between atoms: C_9  and  C_10
REMARK    5  A    between atoms: C_10  and  N_11
REMARK    6  A    between atoms: C_14  and  C_15
REMARK    7  A    between atoms: C_15  and  N_16
REMARK    8  A    between atoms: C_17  and  C_19
REMARK    9  A    between atoms: C_25  and  C_26
REMARK   10  A    between atoms: C_26  and  C_27
REMARK   11  A    between atoms: C_26  and  C_28
REMARK                            x       y       z     vdW  Elec       q    Type
REMARK                         _______ _______ _______ _____ _____    ______ ____
ROOT
ATOM      1  N   UNL     1      -0.514  12.705  20.160  0.00  0.00    +0.000 NA
ATOM      2  C   UNL     1      -0.384  11.925  18.916  0.00  0.00    +0.000 C 
ATOM      3  C   UNL     1      -0.917  10.505  19.079  0.00  0.00    +0.000 C 
ATOM      4  C   UNL     1      -0.198   9.756  20.203  0.00  0.00    +0.000 C 
ATOM      5  C   UNL     1      -0.338  10.590  21.484  0.00  0.00    +0.000 C 
ATOM      6  C   UNL     1       0.148  12.035  21.294  0.00  0.00    +0.000 C 
ENDROOT
BRANCH   1   7
ATOM      7  C   UNL     1       0.021  14.080  19.981  0.00  0.00    +0.000 C 
BRANCH   7   8
ATOM      8  C   UNL     1       1.201  14.114  18.976  0.00  0.00    +0.000 C 
BRANCH   8  14
ATOM      9  C   UNL     1       5.965  15.190  19.894  0.00  0.00    +0.000 C 
ATOM     10  O   UNL     1       6.343  15.552  20.999  0.00  0.00    +0.000 OA
ATOM     11  N   UNL     1       4.668  14.839  19.600  0.00  0.00    +0.000 N 
ATOM     12  C   UNL     1       3.635  14.973  20.623  0.00  0.00    +0.000 C 
ATOM     13  C   UNL     1       2.465  15.839  20.105  0.00  0.00    +0.000 C 
ATOM     14  N   UNL     1       1.910  15.398  18.792  0.00  0.00    +0.000 NA
ATOM     15  C   UNL     1       3.021  15.320  17.818  0.00  0.00    +0.000 C 
ATOM     16  C   UNL     1       4.198  14.435  18.273  0.00  0.00    +0.000 C 
BRANCH   9  18
ATOM     17  C   UNL     1       7.515  16.295  18.527  0.00  0.00    +0.000 C 
ATOM     18  O   UNL     1       6.782  15.106  18.809  0.00  0.00    +0.000 OA
ENDBRANCH   9  18
ENDBRANCH   8  14
ENDBRANCH   7   8
ENDBRANCH   1   7
BRANCH   4  19
ATOM     19  C   UNL     1       1.284   9.479  19.893  0.00  0.00    +0.000 C 
BRANCH  19  20
ATOM     20  N   UNL     1       1.654   8.108  20.150  0.00  0.00    +0.000 N 
ATOM     21  C   UNL     1       2.286   7.311  19.220  0.00  0.00    +0.000 C 
ATOM     22  O   UNL     1       2.625   7.703  18.107  0.00  0.00    +0.000 OA
ATOM     23  H   UNL     1       1.438   7.698  21.060  0.00  0.00    +0.000 HD
BRANCH  21  24
ATOM     24  C   UNL     1       2.543   5.908  19.620  0.00  0.00    +0.000 A 
ATOM     25  C   UNL     1       1.553   5.185  20.317  0.00  0.00    +0.000 A 
ATOM     26  C   UNL     1       1.771   3.860  20.705  0.00  0.00    +0.000 A 
ATOM     27  C   UNL     1       2.977   3.210  20.414  0.00  0.00    +0.000 A 
ATOM     28  C   UNL     1       3.946   3.946  19.730  0.00  0.00    +0.000 A 
ATOM     29  N   UNL     1       5.210   3.631  19.294  0.00  0.00    +0.000 N 
ATOM     30  C   UNL     1       5.746   4.736  18.671  0.00  0.00    +0.000 A 
ATOM     31  N   UNL     1       4.889   5.736  18.681  0.00  0.00    +0.000 NA
ATOM     32  C   UNL     1       3.762   5.267  19.333  0.00  0.00    +0.000 A 
ATOM     33  H   UNL     1       5.661   2.737  19.400  0.00  0.00    +0.000 HD
BRANCH  30  34
ATOM     34  C   UNL     1       7.111   4.730  18.049  0.00  0.00    +0.000 C 
ATOM     35  C   UNL     1       7.002   4.473  16.545  0.00  0.00    +0.000 C 
ATOM     36  C   UNL     1       7.846   6.046  18.309  0.00  0.00    +0.000 C 
ENDBRANCH  30  34
ENDBRANCH  21  24
ENDBRANCH  19  20
ENDBRANCH   4  19
TORSDOF 8
ENDMDL
MODEL 7
REMARK VINA RESULT:      -7.8      1.366      1.852
REMARK  Name = 
REMARK  11 active torsions:
REMARK  status: ('A' for Active; 'I' for Inactive)
REMARK    1  A    between atoms: C_1  and  O_2
REMARK    2  A    between atoms: O_2  and  C_3
REMARK    3  A    between atoms: N_8  and  C_9
REMARK    4  A    between atoms: C_9  and  C_10
REMARK    5  A    between atoms: C_10  and  N_11
REMARK    6  A    between atoms: C_14  and  C_15
REMARK    7  A    between atoms: C_15  and  N_16
REMARK    8  A    between atoms: C_17  and  C_19
REMARK    9  A    between atoms: C_25  and  C_26
REMARK   10  A    between atoms: C_26  and  C_27
REMARK   11  A    between atoms: C_26  and  C_28
REMARK                            x       y       z     vdW  Elec       q    Type
REMARK                         _______ _______ _______ _____ _____    ______ ____
ROOT
ATOM      1  N   UNL     1       1.746   5.685  19.405  0.00  0.00    +0.000 NA
ATOM      2  C   UNL     1       2.199   5.372  18.038  0.00  0.00    +0.000 C 
ATOM      3  C   UNL     1       1.382   4.246  17.413  0.00  0.00    +0.000 C 
ATOM      4  C   UNL     1       1.444   2.969  18.253  0.00  0.00    +0.000 C 
ATOM      5  C   UNL     1       0.977   3.320  19.673  0.00  0.00    +0.000 C 
ATOM      6  C   UNL     1       1.768   4.493  20.271  0.00  0.00    +0.000 C 
ENDROOT
BRANCH   1   7
ATOM      7  C   UNL     1       2.562   6.777  19.996  0.00  0.00    +0.000 C 
BRANCH   7   8
ATOM      8  C   UNL     1       2.269   8.144  19.326  0.00  0.00    +0.000 C 
BRANCH   8  14
ATOM      9  C   UNL     1       0.472  12.517  20.856  0.00  0.00    +0.000 C 
ATOM     10  O   UNL     1       0.155  12.711  22.021  0.00  0.00    +0.000 OA
ATOM     11  N   UNL     1       1.015  11.341  20.391  0.00  0.00    +0.000 N 
ATOM     12  C   UNL     1       1.158  10.206  21.298  0.00  0.00    +0.000 C 
ATOM     13  C   UNL     1       0.464   8.954  20.715  0.00  0.00    +0.000 C 
ATOM     14  N   UNL     1       0.870   8.621  19.319  0.00  0.00    +0.000 NA
ATOM     15  C   UNL     1       0.663   9.818  18.475  0.00  0.00    +0.000 C 
ATOM     16  C   UNL     1       1.369  11.087  18.993  0.00  0.00    +0.000 C 
BRANCH   9  18
ATOM     17  C   UNL     1       1.120  14.605  20.010  0.00  0.00    +0.000 C 
ATOM     18  O   UNL     1       0.312  13.438  19.868  0.00  0.00    +0.000 OA
ENDBRANCH   9  18
ENDBRANCH   8  14
ENDBRANCH   7   8
ENDBRANCH   1   7
BRANCH   4  19
ATOM     19  C   UNL     1       2.845   2.332  18.283  0.00  0.00    +0.000 C 
BRANCH  19  20
ATOM     20  N   UNL     1       3.892   3.288  18.021  0.00  0.00    +0.000 N 
ATOM     21  C   UNL     1       4.966   3.480  18.864  0.00  0.00    +0.000 C 
ATOM     22  O   UNL     1       5.150   2.830  19.890  0.00  0.00    +0.000 OA
ATOM     23  H   UNL     1       3.843   3.859  17.176  0.00  0.00    +0.000 HD
BRANCH  21  24
ATOM     24  C   UNL     1       5.923   4.544  18.481  0.00  0.00    +0.000 A 
ATOM     25  C   UNL     1       6.549   5.316  19.480  0.00  0.00    +0.000 A 
ATOM     26  C   UNL     1       7.455   6.326  19.144  0.00  0.00    +0.000 A 
ATOM     27  C   UNL     1       7.771   6.601  17.806  0.00  0.00    +0.000 A 
ATOM     28  C   UNL     1       7.133   5.830  16.833  0.00  0.00    +0.000 A 
ATOM     29  N   UNL     1       7.203   5.829  15.462  0.00  0.00    +0.000 N 
ATOM     30  C   UNL     1       6.355   4.856  14.980  0.00  0.00    +0.000 A 
ATOM     31  N   UNL     1       5.754   4.233  15.973  0.00  0.00    +0.000 NA
ATOM     32  C   UNL     1       6.223   4.820  17.134  0.00  0.00    +0.000 A 
ATOM     33  H   UNL     1       7.789   6.429  14.904  0.00  0.00    +0.000 HD
BRANCH  30  34
ATOM     34  C   UNL     1       6.209   4.564  13.516  0.00  0.00    +0.000 C 
ATOM     35  C   UNL     1       7.493   4.938  12.775  0.00  0.00    +0.000 C 
ATOM     36  C   UNL     1       5.866   3.093  13.275  0.00  0.00    +0.000 C 
ENDBRANCH  30  34
ENDBRANCH  21  24
ENDBRANCH  19  20
ENDBRANCH   4  19
TORSDOF 8
ENDMDL
MODEL 8
REMARK VINA RESULT:      -7.8      2.634      5.664
REMARK  Name = 
REMARK  11 active torsions:
REMARK  status: ('A' for Active; 'I' for Inactive)
REMARK    1  A    between atoms: C_1  and  O_2
REMARK    2  A    between atoms: O_2  and  C_3
REMARK    3  A    between atoms: N_8  and  C_9
REMARK    4  A    between atoms: C_9  and  C_10
REMARK    5  A    between atoms: C_10  and  N_11
REMARK    6  A    between atoms: C_14  and  C_15
REMARK    7  A    between atoms: C_15  and  N_16
REMARK    8  A    between atoms: C_17  and  C_19
REMARK    9  A    between atoms: C_25  and  C_26
REMARK   10  A    between atoms: C_26  and  C_27
REMARK   11  A    between atoms: C_26  and  C_28
REMARK                            x       y       z     vdW  Elec       q    Type
REMARK                         _______ _______ _______ _____ _____    ______ ____
ROOT
ATOM      1  N   UNL     1       0.601  11.753  20.256  0.00  0.00    +0.000 NA
ATOM      2  C   UNL     1       1.143  11.492  18.911  0.00  0.00    +0.000 C 
ATOM      3  C   UNL     1       0.479  10.286  18.256  0.00  0.00    +0.000 C 
ATOM      4  C   UNL     1       0.642   9.021  19.103  0.00  0.00    +0.000 C 
ATOM      5  C   UNL     1       0.080   9.319  20.501  0.00  0.00    +0.000 C 
ATOM      6  C   UNL     1       0.714  10.570  21.128  0.00  0.00    +0.000 C 
ENDROOT
BRANCH   1   7
ATOM      7  C   UNL     1       1.269  12.926  20.878  0.00  0.00    +0.000 C 
BRANCH   7   8
ATOM      8  C   UNL     1       0.243  13.969  21.393  0.00  0.00    +0.000 C 
BRANCH   8  14
ATOM      9  C   UNL     1      -4.234  14.765  23.397  0.00  0.00    +0.000 C 
ATOM     10  O   UNL     1      -4.603  15.883  23.726  0.00  0.00    +0.000 OA
ATOM     11  N   UNL     1      -3.024  14.498  22.799  0.00  0.00    +0.000 N 
ATOM     12  C   UNL     1      -2.062  15.579  22.605  0.00  0.00    +0.000 C 
ATOM     13  C   UNL     1      -0.700  15.215  23.238  0.00  0.00    +0.000 C 
ATOM     14  N   UNL     1      -0.161  13.891  22.813  0.00  0.00    +0.000 NA
ATOM     15  C   UNL     1      -1.191  12.861  23.074  0.00  0.00    +0.000 C 
ATOM     16  C   UNL     1      -2.559  13.159  22.430  0.00  0.00    +0.000 C 
BRANCH   9  18
ATOM     17  C   UNL     1      -6.381  13.840  23.556  0.00  0.00    +0.000 C 
ATOM     18  O   UNL     1      -4.971  13.638  23.598  0.00  0.00    +0.000 OA
ENDBRANCH   9  18
ENDBRANCH   8  14
ENDBRANCH   7   8
ENDBRANCH   1   7
BRANCH   4  19
ATOM     19  C   UNL     1       2.101   8.539  19.195  0.00  0.00    +0.000 C 
BRANCH  19  20
ATOM     20  N   UNL     1       2.265   7.185  18.724  0.00  0.00    +0.000 N 
ATOM     21  C   UNL     1       2.113   6.080  19.535  0.00  0.00    +0.000 C 
ATOM     22  O   UNL     1       1.786   6.145  20.716  0.00  0.00    +0.000 OA
ATOM     23  H   UNL     1       2.512   7.027  17.745  0.00  0.00    +0.000 HD
BRANCH  21  24
ATOM     24  C   UNL     1       2.376   4.763  18.910  0.00  0.00    +0.000 A 
ATOM     25  C   UNL     1       1.403   3.746  18.985  0.00  0.00    +0.000 A 
ATOM     26  C   UNL     1       1.628   2.494  18.404  0.00  0.00    +0.000 A 
ATOM     27  C   UNL     1       2.823   2.213  17.729  0.00  0.00    +0.000 A 
ATOM     28  C   UNL     1       3.775   3.232  17.673  0.00  0.00    +0.000 A 
ATOM     29  N   UNL     1       5.026   3.300  17.109  0.00  0.00    +0.000 N 
ATOM     30  C   UNL     1       5.548   4.552  17.351  0.00  0.00    +0.000 A 
ATOM     31  N   UNL     1       4.695   5.286  18.035  0.00  0.00    +0.000 NA
ATOM     32  C   UNL     1       3.585   4.487  18.245  0.00  0.00    +0.000 A 
ATOM     33  H   UNL     1       5.476   2.564  16.591  0.00  0.00    +0.000 HD
BRANCH  30  34
ATOM     34  C   UNL     1       6.895   4.977  16.846  0.00  0.00    +0.000 C 
ATOM     35  C   UNL     1       6.962   4.813  15.327  0.00  0.00    +0.000 C 
ATOM     36  C   UNL     1       7.203   6.423  17.237  0.00  0.00    +0.000 C 
ENDBRANCH  30  34
ENDBRANCH  21  24
ENDBRANCH  19  20
ENDBRANCH   4  19
TORSDOF 8
ENDMDL
MODEL 9
REMARK VINA RESULT:      -7.8      4.021      6.682
REMARK  Name = 
REMARK  11 active torsions:
REMARK  status: ('A' for Active; 'I' for Inactive)
REMARK    1  A    between atoms: C_1  and  O_2
REMARK    2  A    between atoms: O_2  and  C_3
REMARK    3  A    between atoms: N_8  and  C_9
REMARK    4  A    between atoms: C_9  and  C_10
REMARK    5  A    between atoms: C_10  and  N_11
REMARK    6  A    between atoms: C_14  and  C_15
REMARK    7  A    between atoms: C_15  and  N_16
REMARK    8  A    between atoms: C_17  and  C_19
REMARK    9  A    between atoms: C_25  and  C_26
REMARK   10  A    between atoms: C_26  and  C_27
REMARK   11  A    between atoms: C_26  and  C_28
REMARK                            x       y       z     vdW  Elec       q    Type
REMARK                         _______ _______ _______ _____ _____    ______ ____
ROOT
ATOM      1  N   UNL     1      -0.691  12.344  20.178  0.00  0.00    +0.000 NA
ATOM      2  C   UNL     1      -0.273  11.419  19.110  0.00  0.00    +0.000 C 
ATOM      3  C   UNL     1      -0.749   9.994  19.375  0.00  0.00    +0.000 C 
ATOM      4  C   UNL     1      -0.228   9.464  20.713  0.00  0.00    +0.000 C 
ATOM      5  C   UNL     1      -0.666  10.447  21.808  0.00  0.00    +0.000 C 
ATOM      6  C   UNL     1      -0.232  11.889  21.502  0.00  0.00    +0.000 C 
ENDROOT
BRANCH   1   7
ATOM      7  C   UNL     1      -0.209  13.723  19.903  0.00  0.00    +0.000 C 
BRANCH   7   8
ATOM      8  C   UNL     1       0.996  13.729  18.928  0.00  0.00    +0.000 C 
BRANCH   8  14
ATOM      9  C   UNL     1       5.187  16.340  19.489  0.00  0.00    +0.000 C 
ATOM     10  O   UNL     1       5.996  16.463  18.581  0.00  0.00    +0.000 OA
ATOM     11  N   UNL     1       3.994  15.666  19.371  0.00  0.00    +0.000 N 
ATOM     12  C   UNL     1       3.677  14.972  18.126  0.00  0.00    +0.000 C 
ATOM     13  C   UNL     1       3.344  13.488  18.400  0.00  0.00    +0.000 C 
ATOM     14  N   UNL     1       2.304  13.277  19.448  0.00  0.00    +0.000 NA
ATOM     15  C   UNL     1       2.725  13.990  20.674  0.00  0.00    +0.000 C 
ATOM     16  C   UNL     1       3.032  15.485  20.461  0.00  0.00    +0.000 C 
BRANCH   9  18
ATOM     17  C   UNL     1       6.557  16.381  21.390  0.00  0.00    +0.000 C 
ATOM     18  O   UNL     1       5.376  16.843  20.739  0.00  0.00    +0.000 OA
ENDBRANCH   9  18
ENDBRANCH   8  14
ENDBRANCH   7   8
ENDBRANCH   1   7
BRANCH   4  19
ATOM     19  C   UNL     1       1.300   9.272  20.734  0.00  0.00    +0.000 C 
BRANCH  19  20
ATOM     20  N   UNL     1       1.680   7.885  20.847  0.00  0.00    +0.000 N 
ATOM     21  C   UNL     1       2.154   7.144  19.785  0.00  0.00    +0.000 C 
ATOM     22  O   UNL     1       2.332   7.605  18.661  0.00  0.00    +0.000 OA
ATOM     23  H   UNL     1       1.593   7.419  21.751  0.00  0.00    +0.000 HD
BRANCH  21  24
ATOM     24  C   UNL     1       2.442   5.716  20.054  0.00  0.00    +0.000 A 
ATOM     25  C   UNL     1       1.519   4.940  20.783  0.00  0.00    +0.000 A 
ATOM     26  C   UNL     1       1.768   3.591  21.050  0.00  0.00    +0.000 A 
ATOM     27  C   UNL     1       2.941   2.968  20.601  0.00  0.00    +0.000 A 
ATOM     28  C   UNL     1       3.845   3.757  19.888  0.00  0.00    +0.000 A 
ATOM     29  N   UNL     1       5.062   3.481  19.316  0.00  0.00    +0.000 N 
ATOM     30  C   UNL     1       5.542   4.632  18.731  0.00  0.00    +0.000 A 
ATOM     31  N   UNL     1       4.692   5.625  18.894  0.00  0.00    +0.000 NA
ATOM     32  C   UNL     1       3.629   5.104  19.609  0.00  0.00    +0.000 A 
ATOM     33  H   UNL     1       5.518   2.584  19.313  0.00  0.00    +0.000 HD
BRANCH  30  34
ATOM     34  C   UNL     1       6.844   4.678  17.987  0.00  0.00    +0.000 C 
ATOM     35  C   UNL     1       6.589   4.689  16.479  0.00  0.00    +0.000 C 
ATOM     36  C   UNL     1       7.672   5.898  18.393  0.00  0.00    +0.000 C 
ENDBRANCH  30  34
ENDBRANCH  21  24
ENDBRANCH  19  20
ENDBRANCH   4  19
TORSDOF 8
ENDMDL
