MODEL 1
REMARK VINA RESULT:      -7.1      0.000      0.000
REMARK  Name = 
REMARK  4 active torsions:
REMARK  status: ('A' for Active; 'I' for Inactive)
REMARK    1  A    between atoms: C_1  and  C_2
REMARK    2  A    between atoms: C_9  and  C_10
REMARK    3  A    between atoms: C_17  and  C_18
REMARK    4  A    between atoms: C_19  and  C_20
REMARK                            x       y       z     vdW  Elec       q    Type
REMARK                         _______ _______ _______ _____ _____    ______ ____
ROOT
ATOM      1  C   UNL     1       2.208  11.255  17.845  0.00  0.00    +0.000 C 
ATOM      2  C   UNL     1       2.280   9.798  18.246  0.00  0.00    +0.000 A 
ATOM      3  C   UNL     1       3.127   9.013  17.458  0.00  0.00    +0.000 A 
ATOM      4  C   UNL     1       3.264   7.649  17.693  0.00  0.00    +0.000 A 
ATOM      5  O   UNL     1       4.137   7.002  16.794  0.00  0.00    +0.000 OA
ATOM      6  C   UNL     1       4.387   5.648  16.877  0.00  0.00    +0.000 A 
ATOM      7  O   UNL     1       5.150   5.072  16.104  0.00  0.00    +0.000 OA
ATOM      8  C   UNL     1       3.685   4.931  17.929  0.00  0.00    +0.000 A 
ATOM      9  C   UNL     1       2.845   5.506  18.813  0.00  0.00    +0.000 A 
ATOM     10  C   UNL     1       2.598   6.983  18.725  0.00  0.00    +0.000 A 
ATOM     11  C   UNL     1       1.762   7.783  19.577  0.00  0.00    +0.000 A 
ATOM     12  C   UNL     1       1.040   7.152  20.748  0.00  0.00    +0.000 C 
ATOM     13  C   UNL     1       1.558   9.206  19.327  0.00  0.00    +0.000 A 
ENDROOT
BRANCH   9  14
ATOM     14  C   UNL     1       2.258   4.531  19.749  0.00  0.00    +0.000 A 
ATOM     15  C   UNL     1       1.189   3.717  19.343  0.00  0.00    +0.000 A 
ATOM     16  C   UNL     1       0.707   2.717  20.191  0.00  0.00    +0.000 A 
ATOM     17  C   UNL     1       1.270   2.548  21.457  0.00  0.00    +0.000 A 
ATOM     18  C   UNL     1       2.297   3.392  21.885  0.00  0.00    +0.000 A 
ATOM     19  C   UNL     1       2.787   4.389  21.038  0.00  0.00    +0.000 A 
ENDBRANCH   9  14
BRANCH  13  20
ATOM     20  C   UNL     1       0.603  10.032  20.149  0.00  0.00    +0.000 A 
ATOM     21  C   UNL     1       0.850  10.463  21.446  0.00  0.00    +0.000 A 
ATOM     22  N   UNL     1       0.036  11.245  22.199  0.00  0.00    +0.000 NA
ATOM     23  C   UNL     1      -1.130  11.575  21.640  0.00  0.00    +0.000 A 
ATOM     24  N   UNL     1      -1.530  11.208  20.420  0.00  0.00    +0.000 NA
ATOM     25  C   UNL     1      -0.641  10.472  19.707  0.00  0.00    +0.000 A 
ENDBRANCH  13  20
TORSDOF 2
ENDMDL
MODEL 2
REMARK VINA RESULT:      -7.0      5.441      8.096
REMARK  Name = 
REMARK  4 active torsions:
REMARK  status: ('A' for Active; 'I' for Inactive)
REMARK    1  A    between atoms: C_1  and  C_2
REMARK    2  A    between atoms: C_9  and  C_10
REMARK    3  A    between atoms: C_17  and  C_18
REMARK    4  A    between atoms: C_19  and  C_20
REMARK                            x       y       z     vdW  Elec       q    Type
REMARK                         _______ _______ _______ _____ _____    ______ ____
ROOT
ATOM      1  C   UNL     1      -7.736  13.049  18.494  0.00  0.00    +0.000 C 
ATOM      2  C   UNL     1      -6.280  12.642  18.489  0.00  0.00    +0.000 A 
ATOM      3  C   UNL     1      -5.847  12.022  17.313  0.00  0.00    +0.000 A 
ATOM      4  C   UNL     1      -4.539  11.566  17.183  0.00  0.00    +0.000 A 
ATOM      5  O   UNL     1      -4.273  10.945  15.946  0.00  0.00    +0.000 OA
ATOM      6  C   UNL     1      -3.029  10.430  15.647  0.00  0.00    +0.000 A 
ATOM      7  O   UNL     1      -2.782   9.891  14.570  0.00  0.00    +0.000 OA
ATOM      8  C   UNL     1      -2.021  10.548  16.688  0.00  0.00    +0.000 A 
ATOM      9  C   UNL     1      -2.226  11.137  17.883  0.00  0.00    +0.000 A 
ATOM     10  C   UNL     1      -3.578  11.712  18.188  0.00  0.00    +0.000 A 
ATOM     11  C   UNL     1      -3.991  12.392  19.384  0.00  0.00    +0.000 A 
ATOM     12  C   UNL     1      -3.002  12.635  20.504  0.00  0.00    +0.000 C 
ATOM     13  C   UNL     1      -5.368  12.837  19.571  0.00  0.00    +0.000 A 
ENDROOT
BRANCH   9  14
ATOM     14  C   UNL     1      -1.033  11.088  18.748  0.00  0.00    +0.000 A 
ATOM     15  C   UNL     1      -0.106  12.142  18.733  0.00  0.00    +0.000 A 
ATOM     16  C   UNL     1       0.963  12.148  19.632  0.00  0.00    +0.000 A 
ATOM     17  C   UNL     1       1.127  11.089  20.525  0.00  0.00    +0.000 A 
ATOM     18  C   UNL     1       0.238  10.012  20.504  0.00  0.00    +0.000 A 
ATOM     19  C   UNL     1      -0.836  10.004  19.612  0.00  0.00    +0.000 A 
ENDBRANCH   9  14
BRANCH  13  20
ATOM     20  C   UNL     1      -5.838  13.457  20.863  0.00  0.00    +0.000 A 
ATOM     21  C   UNL     1      -5.819  14.818  21.135  0.00  0.00    +0.000 A 
ATOM     22  N   UNL     1      -6.275  15.415  22.265  0.00  0.00    +0.000 NA
ATOM     23  C   UNL     1      -6.732  14.592  23.211  0.00  0.00    +0.000 A 
ATOM     24  N   UNL     1      -6.780  13.262  23.116  0.00  0.00    +0.000 NA
ATOM     25  C   UNL     1      -6.356  12.741  21.937  0.00  0.00    +0.000 A 
ENDBRANCH  13  20
TORSDOF 2
ENDMDL
MODEL 3
REMARK VINA RESULT:      -7.0      0.361      1.366
REMARK  Name = 
REMARK  4 active torsions:
REMARK  status: ('A' for Active; 'I' for Inactive)
REMARK    1  A    between atoms: C_1  and  C_2
REMARK    2  A    between atoms: C_9  and  C_10
REMARK    3  A    between atoms: C_17  and  C_18
REMARK    4  A    between atoms: C_19  and  C_20
REMARK                            x       y       z     vdW  Elec       q    Type
REMARK                         _______ _______ _______ _____ _____    ______ ____
ROOT
ATOM      1  C   UNL     1       2.214  11.078  17.990  0.00  0.00    +0.000 C 
ATOM      2  C   UNL     1       2.324   9.610  18.336  0.00  0.00    +0.000 A 
ATOM      3  C   UNL     1       3.144   8.865  17.483  0.00  0.00    +0.000 A 
ATOM      4  C   UNL     1       3.311   7.495  17.663  0.00  0.00    +0.000 A 
ATOM      5  O   UNL     1       4.149   6.893  16.703  0.00  0.00    +0.000 OA
ATOM      6  C   UNL     1       4.421   5.541  16.727  0.00  0.00    +0.000 A 
ATOM      7  O   UNL     1       5.155   5.004  15.900  0.00  0.00    +0.000 OA
ATOM      8  C   UNL     1       3.778   4.777  17.784  0.00  0.00    +0.000 A 
ATOM      9  C   UNL     1       2.973   5.309  18.725  0.00  0.00    +0.000 A 
ATOM     10  C   UNL     1       2.702   6.784  18.701  0.00  0.00    +0.000 A 
ATOM     11  C   UNL     1       1.896   7.542  19.619  0.00  0.00    +0.000 A 
ATOM     12  C   UNL     1       1.238   6.860  20.799  0.00  0.00    +0.000 C 
ATOM     13  C   UNL     1       1.662   8.969  19.428  0.00  0.00    +0.000 A 
ENDROOT
BRANCH   9  14
ATOM     14  C   UNL     1       2.444   4.294  19.653  0.00  0.00    +0.000 A 
ATOM     15  C   UNL     1       3.227   3.837  20.724  0.00  0.00    +0.000 A 
ATOM     16  C   UNL     1       2.685   2.959  21.666  0.00  0.00    +0.000 A 
ATOM     17  C   UNL     1       1.371   2.512  21.524  0.00  0.00    +0.000 A 
ATOM     18  C   UNL     1       0.607   2.921  20.429  0.00  0.00    +0.000 A 
ATOM     19  C   UNL     1       1.142   3.803  19.488  0.00  0.00    +0.000 A 
ENDBRANCH   9  14
BRANCH  13  20
ATOM     20  C   UNL     1       0.735   9.752  20.322  0.00  0.00    +0.000 A 
ATOM     21  C   UNL     1      -0.494  10.264  19.927  0.00  0.00    +0.000 A 
ATOM     22  N   UNL     1      -1.374  10.933  20.715  0.00  0.00    +0.000 NA
ATOM     23  C   UNL     1      -0.977  11.152  21.970  0.00  0.00    +0.000 A 
ATOM     24  N   UNL     1       0.189  10.759  22.488  0.00  0.00    +0.000 NA
ATOM     25  C   UNL     1       0.993  10.051  21.656  0.00  0.00    +0.000 A 
ENDBRANCH  13  20
TORSDOF 2
ENDMDL
MODEL 4
REMARK VINA RESULT:      -6.9      5.343      8.089
REMARK  Name = 
REMARK  4 active torsions:
REMARK  status: ('A' for Active; 'I' for Inactive)
REMARK    1  A    between atoms: C_1  and  C_2
REMARK    2  A    between atoms: C_9  and  C_10
REMARK    3  A    between atoms: C_17  and  C_18
REMARK    4  A    between atoms: C_19  and  C_20
REMARK                            x       y       z     vdW  Elec       q    Type
REMARK                         _______ _______ _______ _____ _____    ______ ____
ROOT
ATOM      1  C   UNL     1      -7.778  13.127  18.397  0.00  0.00    +0.000 C 
ATOM      2  C   UNL     1      -6.329  12.695  18.424  0.00  0.00    +0.000 A 
ATOM      3  C   UNL     1      -5.874  12.089  17.249  0.00  0.00    +0.000 A 
ATOM      4  C   UNL     1      -4.571  11.614  17.146  0.00  0.00    +0.000 A 
ATOM      5  O   UNL     1      -4.282  11.010  15.905  0.00  0.00    +0.000 OA
ATOM      6  C   UNL     1      -3.039  10.480  15.631  0.00  0.00    +0.000 A 
ATOM      7  O   UNL     1      -2.771   9.957  14.551  0.00  0.00    +0.000 OA
ATOM      8  C   UNL     1      -2.057  10.563  16.700  0.00  0.00    +0.000 A 
ATOM      9  C   UNL     1      -2.286  11.133  17.900  0.00  0.00    +0.000 A 
ATOM     10  C   UNL     1      -3.635  11.726  18.179  0.00  0.00    +0.000 A 
ATOM     11  C   UNL     1      -4.070  12.391  19.376  0.00  0.00    +0.000 A 
ATOM     12  C   UNL     1      -3.108  12.597  20.526  0.00  0.00    +0.000 C 
ATOM     13  C   UNL     1      -5.444  12.856  19.534  0.00  0.00    +0.000 A 
ENDROOT
BRANCH   9  14
ATOM     14  C   UNL     1      -1.118  11.049  18.796  0.00  0.00    +0.000 A 
ATOM     15  C   UNL     1      -0.958   9.944  19.647  0.00  0.00    +0.000 A 
ATOM     16  C   UNL     1       0.203   9.810  20.412  0.00  0.00    +0.000 A 
ATOM     17  C   UNL     1       1.192  10.793  20.352  0.00  0.00    +0.000 A 
ATOM     18  C   UNL     1       1.012  11.920  19.548  0.00  0.00    +0.000 A 
ATOM     19  C   UNL     1      -0.144  12.056  18.777  0.00  0.00    +0.000 A 
ENDBRANCH   9  14
BRANCH  13  20
ATOM     20  C   UNL     1      -5.939  13.460  20.823  0.00  0.00    +0.000 A 
ATOM     21  C   UNL     1      -6.494  12.736  21.869  0.00  0.00    +0.000 A 
ATOM     22  N   UNL     1      -6.908  13.238  23.060  0.00  0.00    +0.000 NA
ATOM     23  C   UNL     1      -6.810  14.562  23.196  0.00  0.00    +0.000 A 
ATOM     24  N   UNL     1      -6.335  15.398  22.269  0.00  0.00    +0.000 NA
ATOM     25  C   UNL     1      -5.893  14.817  21.126  0.00  0.00    +0.000 A 
ENDBRANCH  13  20
TORSDOF 2
ENDMDL
MODEL 5
REMARK VINA RESULT:      -6.7      2.320      4.420
REMARK  Name = 
REMARK  4 active torsions:
REMARK  status: ('A' for Active; 'I' for Inactive)
REMARK    1  A    between atoms: C_1  and  C_2
REMARK    2  A    between atoms: C_9  and  C_10
REMARK    3  A    between atoms: C_17  and  C_18
REMARK    4  A    between atoms: C_19  and  C_20
REMARK                            x       y       z     vdW  Elec       q    Type
REMARK                         _______ _______ _______ _____ _____    ______ ____
ROOT
ATOM      1  C   UNL     1      -0.383   8.606  21.671  0.00  0.00    +0.000 C 
ATOM      2  C   UNL     1       0.661   7.895  20.838  0.00  0.00    +0.000 A 
ATOM      3  C   UNL     1       0.970   6.600  21.265  0.00  0.00    +0.000 A 
ATOM      4  C   UNL     1       1.937   5.842  20.612  0.00  0.00    +0.000 A 
ATOM      5  O   UNL     1       2.144   4.569  21.183  0.00  0.00    +0.000 OA
ATOM      6  C   UNL     1       3.068   3.687  20.666  0.00  0.00    +0.000 A 
ATOM      7  O   UNL     1       3.255   2.572  21.150  0.00  0.00    +0.000 OA
ATOM      8  C   UNL     1       3.826   4.153  19.517  0.00  0.00    +0.000 A 
ATOM      9  C   UNL     1       3.661   5.358  18.934  0.00  0.00    +0.000 A 
ATOM     10  C   UNL     1       2.637   6.301  19.493  0.00  0.00    +0.000 A 
ATOM     11  C   UNL     1       2.296   7.610  19.009  0.00  0.00    +0.000 A 
ATOM     12  C   UNL     1       2.972   8.167  17.774  0.00  0.00    +0.000 C 
ATOM     13  C   UNL     1       1.324   8.449  19.701  0.00  0.00    +0.000 A 
ENDROOT
BRANCH   9  14
ATOM     14  C   UNL     1       4.584   5.568  17.805  0.00  0.00    +0.000 A 
ATOM     15  C   UNL     1       5.745   6.339  17.974  0.00  0.00    +0.000 A 
ATOM     16  C   UNL     1       6.674   6.446  16.936  0.00  0.00    +0.000 A 
ATOM     17  C   UNL     1       6.432   5.809  15.718  0.00  0.00    +0.000 A 
ATOM     18  C   UNL     1       5.252   5.087  15.528  0.00  0.00    +0.000 A 
ATOM     19  C   UNL     1       4.323   4.972  16.564  0.00  0.00    +0.000 A 
ENDBRANCH   9  14
BRANCH  13  20
ATOM     20  C   UNL     1       1.036   9.863  19.264  0.00  0.00    +0.000 A 
ATOM     21  C   UNL     1      -0.063  10.244  18.506  0.00  0.00    +0.000 A 
ATOM     22  N   UNL     1      -0.379  11.510  18.133  0.00  0.00    +0.000 NA
ATOM     23  C   UNL     1       0.490  12.455  18.498  0.00  0.00    +0.000 A 
ATOM     24  N   UNL     1       1.609  12.245  19.194  0.00  0.00    +0.000 NA
ATOM     25  C   UNL     1       1.831  10.961  19.575  0.00  0.00    +0.000 A 
ENDBRANCH  13  20
TORSDOF 2
ENDMDL
MODEL 6
REMARK VINA RESULT:      -6.6      5.373      8.211
REMARK  Name = 
REMARK  4 active torsions:
REMARK  status: ('A' for Active; 'I' for Inactive)
REMARK    1  A    between atoms: C_1  and  C_2
REMARK    2  A    between atoms: C_9  and  C_10
REMARK    3  A    between atoms: C_17  and  C_18
REMARK    4  A    between atoms: C_19  and  C_20
REMARK                            x       y       z     vdW  Elec       q    Type
REMARK                         _______ _______ _______ _____ _____    ______ ____
ROOT
ATOM      1  C   UNL     1      -7.780  13.546  18.875  0.00  0.00    +0.000 C 
ATOM      2  C   UNL     1      -6.357  13.035  18.832  0.00  0.00    +0.000 A 
ATOM      3  C   UNL     1      -5.976  12.461  17.615  0.00  0.00    +0.000 A 
ATOM      4  C   UNL     1      -4.705  11.921  17.445  0.00  0.00    +0.000 A 
ATOM      5  O   UNL     1      -4.491  11.361  16.168  0.00  0.00    +0.000 OA
ATOM      6  C   UNL     1      -3.289  10.778  15.827  0.00  0.00    +0.000 A 
ATOM      7  O   UNL     1      -3.087  10.291  14.716  0.00  0.00    +0.000 OA
ATOM      8  C   UNL     1      -2.270  10.756  16.864  0.00  0.00    +0.000 A 
ATOM      9  C   UNL     1      -2.427  11.281  18.095  0.00  0.00    +0.000 A 
ATOM     10  C   UNL     1      -3.732  11.932  18.448  0.00  0.00    +0.000 A 
ATOM     11  C   UNL     1      -4.089  12.564  19.688  0.00  0.00    +0.000 A 
ATOM     12  C   UNL     1      -3.079  12.662  20.812  0.00  0.00    +0.000 C 
ATOM     13  C   UNL     1      -5.428  13.094  19.915  0.00  0.00    +0.000 A 
ENDROOT
BRANCH   9  14
ATOM     14  C   UNL     1      -1.237  11.091  18.944  0.00  0.00    +0.000 A 
ATOM     15  C   UNL     1      -1.095   9.923  19.711  0.00  0.00    +0.000 A 
ATOM     16  C   UNL     1       0.083   9.693  20.426  0.00  0.00    +0.000 A 
ATOM     17  C   UNL     1       1.107  10.641  20.403  0.00  0.00    +0.000 A 
ATOM     18  C   UNL     1       0.946  11.829  19.686  0.00  0.00    +0.000 A 
ATOM     19  C   UNL     1      -0.227  12.060  18.964  0.00  0.00    +0.000 A 
ENDBRANCH   9  14
BRANCH  13  20
ATOM     20  C   UNL     1      -5.846  13.664  21.247  0.00  0.00    +0.000 A 
ATOM     21  C   UNL     1      -5.758  15.005  21.592  0.00  0.00    +0.000 A 
ATOM     22  N   UNL     1      -6.165  15.560  22.762  0.00  0.00    +0.000 NA
ATOM     23  C   UNL     1      -6.645  14.709  23.671  0.00  0.00    +0.000 A 
ATOM     24  N   UNL     1      -6.757  13.389  23.506  0.00  0.00    +0.000 NA
ATOM     25  C   UNL     1      -6.379  12.915  22.292  0.00  0.00    +0.000 A 
ENDBRANCH  13  20
TORSDOF 2
ENDMDL
MODEL 7
REMARK VINA RESULT:      -6.5      6.095      8.424
REMARK  Name = 
REMARK  4 active torsions:
REMARK  status: ('A' for Active; 'I' for Inactive)
REMARK    1  A    between atoms: C_1  and  C_2
REMARK    2  A    between atoms: C_9  and  C_10
REMARK    3  A    between atoms: C_17  and  C_18
REMARK    4  A    between atoms: C_19  and  C_20
REMARK                            x       y       z     vdW  Elec       q    Type
REMARK                         _______ _______ _______ _____ _____    ______ ____
ROOT
ATOM      1  C   UNL     1      -7.733  12.009  19.733  0.00  0.00    +0.000 C 
ATOM      2  C   UNL     1      -6.244  12.029  19.474  0.00  0.00    +0.000 A 
ATOM      3  C   UNL     1      -5.834  11.311  18.347  0.00  0.00    +0.000 A 
ATOM      4  C   UNL     1      -4.488  11.217  18.007  0.00  0.00    +0.000 A 
ATOM      5  O   UNL     1      -4.244  10.437  16.858  0.00  0.00    +0.000 OA
ATOM      6  C   UNL     1      -2.967  10.234  16.380  0.00  0.00    +0.000 A 
ATOM      7  O   UNL     1      -2.740   9.562  15.375  0.00  0.00    +0.000 OA
ATOM      8  C   UNL     1      -1.892  10.851  17.140  0.00  0.00    +0.000 A 
ATOM      9  C   UNL     1      -2.077  11.607  18.241  0.00  0.00    +0.000 A 
ATOM     10  C   UNL     1      -3.472  11.839  18.739  0.00  0.00    +0.000 A 
ATOM     11  C   UNL     1      -3.879  12.624  19.872  0.00  0.00    +0.000 A 
ATOM     12  C   UNL     1      -2.849  13.369  20.693  0.00  0.00    +0.000 C 
ATOM     13  C   UNL     1      -5.277  12.701  20.283  0.00  0.00    +0.000 A 
ENDROOT
BRANCH   9  14
ATOM     14  C   UNL     1      -0.806  12.080  18.818  0.00  0.00    +0.000 A 
ATOM     15  C   UNL     1      -0.153  11.326  19.806  0.00  0.00    +0.000 A 
ATOM     16  C   UNL     1       1.104  11.717  20.272  0.00  0.00    +0.000 A 
ATOM     17  C   UNL     1       1.700  12.877  19.774  0.00  0.00    +0.000 A 
ATOM     18  C   UNL     1       1.029  13.659  18.832  0.00  0.00    +0.000 A 
ATOM     19  C   UNL     1      -0.225  13.269  18.359  0.00  0.00    +0.000 A 
ENDBRANCH   9  14
BRANCH  13  20
ATOM     20  C   UNL     1      -5.703  13.434  21.530  0.00  0.00    +0.000 A 
ATOM     21  C   UNL     1      -6.052  14.777  21.572  0.00  0.00    +0.000 A 
ATOM     22  N   UNL     1      -6.483  15.459  22.664  0.00  0.00    +0.000 NA
ATOM     23  C   UNL     1      -6.516  14.765  23.803  0.00  0.00    +0.000 A 
ATOM     24  N   UNL     1      -6.176  13.481  23.934  0.00  0.00    +0.000 NA
ATOM     25  C   UNL     1      -5.805  12.853  22.789  0.00  0.00    +0.000 A 
ENDBRANCH  13  20
TORSDOF 2
ENDMDL
MODEL 8
REMARK VINA RESULT:      -6.3      2.310      4.236
REMARK  Name = 
REMARK  4 active torsions:
REMARK  status: ('A' for Active; 'I' for Inactive)
REMARK    1  A    between atoms: C_1  and  C_2
REMARK    2  A    between atoms: C_9  and  C_10
REMARK    3  A    between atoms: C_17  and  C_18
REMARK    4  A    between atoms: C_19  and  C_20
REMARK                            x       y       z     vdW  Elec       q    Type
REMARK                         _______ _______ _______ _____ _____    ______ ____
ROOT
ATOM      1  C   UNL     1      -0.275   8.791  21.676  0.00  0.00    +0.000 C 
ATOM      2  C   UNL     1       0.718   8.011  20.843  0.00  0.00    +0.000 A 
ATOM      3  C   UNL     1       0.986   6.719  21.306  0.00  0.00    +0.000 A 
ATOM      4  C   UNL     1       1.903   5.901  20.656  0.00  0.00    +0.000 A 
ATOM      5  O   UNL     1       2.074   4.640  21.265  0.00  0.00    +0.000 OA
ATOM      6  C   UNL     1       2.948   3.704  20.756  0.00  0.00    +0.000 A 
ATOM      7  O   UNL     1       3.102   2.599  21.273  0.00  0.00    +0.000 OA
ATOM      8  C   UNL     1       3.694   4.100  19.573  0.00  0.00    +0.000 A 
ATOM      9  C   UNL     1       3.563   5.291  18.954  0.00  0.00    +0.000 A 
ATOM     10  C   UNL     1       2.592   6.294  19.504  0.00  0.00    +0.000 A 
ATOM     11  C   UNL     1       2.292   7.599  18.985  0.00  0.00    +0.000 A 
ATOM     12  C   UNL     1       2.957   8.086  17.716  0.00  0.00    +0.000 C 
ATOM     13  C   UNL     1       1.372   8.500  19.672  0.00  0.00    +0.000 A 
ENDROOT
BRANCH   9  14
ATOM     14  C   UNL     1       4.463   5.426  17.795  0.00  0.00    +0.000 A 
ATOM     15  C   UNL     1       4.201   4.721  16.610  0.00  0.00    +0.000 A 
ATOM     16  C   UNL     1       4.989   4.935  15.477  0.00  0.00    +0.000 A 
ATOM     17  C   UNL     1       6.059   5.829  15.533  0.00  0.00    +0.000 A 
ATOM     18  C   UNL     1       6.357   6.491  16.727  0.00  0.00    +0.000 A 
ATOM     19  C   UNL     1       5.568   6.285  17.860  0.00  0.00    +0.000 A 
ENDBRANCH   9  14
BRANCH  13  20
ATOM     20  C   UNL     1       1.130   9.909  19.194  0.00  0.00    +0.000 A 
ATOM     21  C   UNL     1       2.095  10.907  19.164  0.00  0.00    +0.000 A 
ATOM     22  N   UNL     1       1.926  12.170  18.700  0.00  0.00    +0.000 NA
ATOM     23  C   UNL     1       0.695  12.476  18.287  0.00  0.00    +0.000 A 
ATOM     24  N   UNL     1      -0.347  11.642  18.289  0.00  0.00    +0.000 NA
ATOM     25  C   UNL     1      -0.089  10.381  18.718  0.00  0.00    +0.000 A 
ENDBRANCH  13  20
TORSDOF 2
ENDMDL
MODEL 9
REMARK VINA RESULT:      -6.3      7.011      8.759
REMARK  Name = 
REMARK  4 active torsions:
REMARK  status: ('A' for Active; 'I' for Inactive)
REMARK    1  A    between atoms: C_1  and  C_2
REMARK    2  A    between atoms: C_9  and  C_10
REMARK    3  A    between atoms: C_17  and  C_18
REMARK    4  A    between atoms: C_19  and  C_20
REMARK                            x       y       z     vdW  Elec       q    Type
REMARK                         _______ _______ _______ _____ _____    ______ ____
ROOT
ATOM      1  C   UNL     1      -1.632  14.916  23.004  0.00  0.00    +0.000 C 
ATOM      2  C   UNL     1      -2.170  14.109  21.843  0.00  0.00    +0.000 A 
ATOM      3  C   UNL     1      -3.526  13.780  21.935  0.00  0.00    +0.000 A 
ATOM      4  C   UNL     1      -4.145  13.013  20.953  0.00  0.00    +0.000 A 
ATOM      5  O   UNL     1      -5.507  12.752  21.209  0.00  0.00    +0.000 OA
ATOM      6  C   UNL     1      -6.275  12.003  20.342  0.00  0.00    +0.000 A 
ATOM      7  O   UNL     1      -7.464  11.773  20.550  0.00  0.00    +0.000 OA
ATOM      8  C   UNL     1      -5.594  11.486  19.167  0.00  0.00    +0.000 A 
ATOM      9  C   UNL     1      -4.297  11.712  18.878  0.00  0.00    +0.000 A 
ATOM     10  C   UNL     1      -3.477  12.546  19.817  0.00  0.00    +0.000 A 
ATOM     11  C   UNL     1      -2.096  12.918  19.681  0.00  0.00    +0.000 A 
ATOM     12  C   UNL     1      -1.309  12.494  18.459  0.00  0.00    +0.000 C 
ATOM     13  C   UNL     1      -1.405  13.678  20.717  0.00  0.00    +0.000 A 
ENDROOT
BRANCH   9  14
ATOM     14  C   UNL     1      -3.871  11.042  17.636  0.00  0.00    +0.000 A 
ATOM     15  C   UNL     1      -4.262  11.553  16.388  0.00  0.00    +0.000 A 
ATOM     16  C   UNL     1      -3.767  10.985  15.211  0.00  0.00    +0.000 A 
ATOM     17  C   UNL     1      -2.907   9.887  15.277  0.00  0.00    +0.000 A 
ATOM     18  C   UNL     1      -2.561   9.342  16.515  0.00  0.00    +0.000 A 
ATOM     19  C   UNL     1      -3.047   9.911  17.695  0.00  0.00    +0.000 A 
ENDBRANCH   9  14
BRANCH  13  20
ATOM     20  C   UNL     1       0.069  13.982  20.634  0.00  0.00    +0.000 A 
ATOM     21  C   UNL     1       0.604  15.134  20.074  0.00  0.00    +0.000 A 
ATOM     22  N   UNL     1       1.920  15.463  20.022  0.00  0.00    +0.000 NA
ATOM     23  C   UNL     1       2.764  14.556  20.517  0.00  0.00    +0.000 A 
ATOM     24  N   UNL     1       2.409  13.386  21.054  0.00  0.00    +0.000 NA
ATOM     25  C   UNL     1       1.074  13.150  21.117  0.00  0.00    +0.000 A 
ENDBRANCH  13  20
TORSDOF 2
ENDMDL
