MODEL 1
REMARK VINA RESULT:      -6.6      0.000      0.000
REMARK  Name = 
REMARK  10 active torsions:
REMARK  status: ('A' for Active; 'I' for Inactive)
REMARK    1  A    between atoms: C_1  and  C_2
REMARK    2  A    between atoms: C_2  and  C_3
REMARK    3  A    between atoms: C_3  and  C_4
REMARK    4  A    between atoms: C_4  and  C_5
REMARK    5  A    between atoms: N_7  and  C_8
REMARK    6  A    between atoms: C_8  and  N_10
REMARK    7  A    between atoms: N_10  and  N_11
REMARK    8  A    between atoms: C_12  and  C_14
REMARK    9  A    between atoms: C_17  and  O_18
REMARK   10  A    between atoms: O_18  and  C_19
REMARK                            x       y       z     vdW  Elec       q    Type
REMARK                         _______ _______ _______ _____ _____    ______ ____
ROOT
ATOM      1  N   UNL     1       3.659   5.517  20.063  0.00  0.00    +0.000 N 
ATOM      2  H   UNL     1       4.350   5.821  20.759  0.00  0.00    +0.000 HD
ENDROOT
BRANCH   1   3
ATOM      3  N   UNL     1       4.113   5.305  18.759  0.00  0.00    +0.000 N 
ATOM      4  C   UNL     1       5.348   4.733  18.526  0.00  0.00    +0.000 C 
ATOM      5  O   UNL     1       6.082   4.293  19.403  0.00  0.00    +0.000 OA
ATOM      6  H   UNL     1       3.476   5.571  18.014  0.00  0.00    +0.000 HD
BRANCH   4   7
ATOM      7  C   UNL     1       5.734   4.648  17.088  0.00  0.00    +0.000 A 
ATOM      8  C   UNL     1       4.849   4.142  16.128  0.00  0.00    +0.000 A 
ATOM      9  C   UNL     1       5.253   4.026  14.797  0.00  0.00    +0.000 A 
ATOM     10  C   UNL     1       6.527   4.440  14.401  0.00  0.00    +0.000 A 
ATOM     11  C   UNL     1       7.405   4.967  15.349  0.00  0.00    +0.000 A 
ATOM     12  C   UNL     1       7.008   5.077  16.690  0.00  0.00    +0.000 A 
BRANCH  10  13
ATOM     13  O   UNL     1       6.805   4.238  13.078  0.00  0.00    +0.000 OA
ATOM     14  C   UNL     1       5.915   3.381  12.374  0.00  0.00    +0.000 C 
ENDBRANCH  10  13
ENDBRANCH   4   7
ENDBRANCH   1   3
BRANCH   1  15
ATOM     15  C   UNL     1       2.319   5.490  20.363  0.00  0.00    +0.000 C 
ATOM     16  S   UNL     1       1.382   4.103  20.460  0.00  0.00    +0.000 S 
BRANCH  15  19
ATOM     17  C   UNL     1       1.817   7.877  19.930  0.00  0.00    +0.000 C 
ATOM     18  O   UNL     1       2.389   7.975  18.847  0.00  0.00    +0.000 OA
ATOM     19  N   UNL     1       1.719   6.696  20.645  0.00  0.00    +0.000 N 
ATOM     20  H   UNL     1       1.199   6.703  21.512  0.00  0.00    +0.000 HD
BRANCH  17  21
ATOM     21  C   UNL     1       1.117   9.061  20.570  0.00  0.00    +0.000 C 
BRANCH  21  22
ATOM     22  C   UNL     1       1.046   9.003  22.095  0.00  0.00    +0.000 C 
BRANCH  22  24
ATOM     23  C   UNL     1      -0.816  10.437  22.997  0.00  0.00    +0.000 C 
ATOM     24  C   UNL     1      -0.386   9.024  22.634  0.00  0.00    +0.000 C 
ENDBRANCH  22  24
ENDBRANCH  21  22
ENDBRANCH  17  21
ENDBRANCH  15  19
ENDBRANCH   1  15
TORSDOF 8
ENDMDL
MODEL 2
REMARK VINA RESULT:      -6.5      2.598      7.228
REMARK  Name = 
REMARK  10 active torsions:
REMARK  status: ('A' for Active; 'I' for Inactive)
REMARK    1  A    between atoms: C_1  and  C_2
REMARK    2  A    between atoms: C_2  and  C_3
REMARK    3  A    between atoms: C_3  and  C_4
REMARK    4  A    between atoms: C_4  and  C_5
REMARK    5  A    between atoms: N_7  and  C_8
REMARK    6  A    between atoms: C_8  and  N_10
REMARK    7  A    between atoms: N_10  and  N_11
REMARK    8  A    between atoms: C_12  and  C_14
REMARK    9  A    between atoms: C_17  and  O_18
REMARK   10  A    between atoms: O_18  and  C_19
REMARK                            x       y       z     vdW  Elec       q    Type
REMARK                         _______ _______ _______ _____ _____    ______ ____
ROOT
ATOM      1  N   UNL     1       3.180   3.711  18.335  0.00  0.00    +0.000 N 
ATOM      2  H   UNL     1       2.787   3.240  17.512  0.00  0.00    +0.000 HD
ENDROOT
BRANCH   1   3
ATOM      3  N   UNL     1       2.593   4.917  18.725  0.00  0.00    +0.000 N 
ATOM      4  C   UNL     1       2.980   6.110  18.148  0.00  0.00    +0.000 C 
ATOM      5  O   UNL     1       3.770   6.202  17.216  0.00  0.00    +0.000 OA
ATOM      6  H   UNL     1       1.862   4.853  19.427  0.00  0.00    +0.000 HD
BRANCH   4   7
ATOM      7  C   UNL     1       2.329   7.322  18.724  0.00  0.00    +0.000 A 
ATOM      8  C   UNL     1       1.984   7.385  20.079  0.00  0.00    +0.000 A 
ATOM      9  C   UNL     1       1.329   8.510  20.583  0.00  0.00    +0.000 A 
ATOM     10  C   UNL     1       1.041   9.596  19.754  0.00  0.00    +0.000 A 
ATOM     11  C   UNL     1       1.402   9.549  18.407  0.00  0.00    +0.000 A 
ATOM     12  C   UNL     1       2.052   8.416  17.893  0.00  0.00    +0.000 A 
BRANCH  10  13
ATOM     13  O   UNL     1       0.367  10.616  20.365  0.00  0.00    +0.000 OA
ATOM     14  C   UNL     1      -0.070  10.369  21.696  0.00  0.00    +0.000 C 
ENDBRANCH  10  13
ENDBRANCH   4   7
ENDBRANCH   1   3
BRANCH   1  15
ATOM     15  C   UNL     1       4.340   3.263  18.918  0.00  0.00    +0.000 C 
ATOM     16  S   UNL     1       4.417   2.223  20.232  0.00  0.00    +0.000 S 
BRANCH  15  19
ATOM     17  C   UNL     1       6.378   4.665  18.793  0.00  0.00    +0.000 C 
ATOM     18  O   UNL     1       6.238   5.260  19.859  0.00  0.00    +0.000 OA
ATOM     19  N   UNL     1       5.523   3.671  18.348  0.00  0.00    +0.000 N 
ATOM     20  H   UNL     1       5.736   3.213  17.473  0.00  0.00    +0.000 HD
BRANCH  17  21
ATOM     21  C   UNL     1       7.551   4.946  17.873  0.00  0.00    +0.000 C 
BRANCH  21  22
ATOM     22  C   UNL     1       7.252   5.945  16.757  0.00  0.00    +0.000 C 
BRANCH  22  24
ATOM     23  C   UNL     1       8.124   7.907  18.071  0.00  0.00    +0.000 C 
ATOM     24  C   UNL     1       6.953   7.354  17.272  0.00  0.00    +0.000 C 
ENDBRANCH  22  24
ENDBRANCH  21  22
ENDBRANCH  17  21
ENDBRANCH  15  19
ENDBRANCH   1  15
TORSDOF 8
ENDMDL
MODEL 3
REMARK VINA RESULT:      -6.5      2.417      2.830
REMARK  Name = 
REMARK  10 active torsions:
REMARK  status: ('A' for Active; 'I' for Inactive)
REMARK    1  A    between atoms: C_1  and  C_2
REMARK    2  A    between atoms: C_2  and  C_3
REMARK    3  A    between atoms: C_3  and  C_4
REMARK    4  A    between atoms: C_4  and  C_5
REMARK    5  A    between atoms: N_7  and  C_8
REMARK    6  A    between atoms: C_8  and  N_10
REMARK    7  A    between atoms: N_10  and  N_11
REMARK    8  A    between atoms: C_12  and  C_14
REMARK    9  A    between atoms: C_17  and  O_18
REMARK   10  A    between atoms: O_18  and  C_19
REMARK                            x       y       z     vdW  Elec       q    Type
REMARK                         _______ _______ _______ _____ _____    ______ ____
ROOT
ATOM      1  N   UNL     1       3.988   2.724  19.946  0.00  0.00    +0.000 N 
ATOM      2  H   UNL     1       4.580   2.214  20.613  0.00  0.00    +0.000 HD
ENDROOT
BRANCH   1   3
ATOM      3  N   UNL     1       4.532   3.004  18.690  0.00  0.00    +0.000 N 
ATOM      4  C   UNL     1       5.412   4.054  18.520  0.00  0.00    +0.000 C 
ATOM      5  O   UNL     1       5.849   4.745  19.434  0.00  0.00    +0.000 OA
ATOM      6  H   UNL     1       4.261   2.380  17.936  0.00  0.00    +0.000 HD
BRANCH   4   7
ATOM      7  C   UNL     1       5.843   4.284  17.111  0.00  0.00    +0.000 A 
ATOM      8  C   UNL     1       4.946   4.138  16.045  0.00  0.00    +0.000 A 
ATOM      9  C   UNL     1       5.386   4.309  14.732  0.00  0.00    +0.000 A 
ATOM     10  C   UNL     1       6.712   4.660  14.466  0.00  0.00    +0.000 A 
ATOM     11  C   UNL     1       7.604   4.830  15.525  0.00  0.00    +0.000 A 
ATOM     12  C   UNL     1       7.170   4.649  16.847  0.00  0.00    +0.000 A 
BRANCH  10  13
ATOM     13  O   UNL     1       7.018   4.762  13.138  0.00  0.00    +0.000 OA
ATOM     14  C   UNL     1       6.619   3.671  12.318  0.00  0.00    +0.000 C 
ENDBRANCH  10  13
ENDBRANCH   4   7
ENDBRANCH   1   3
BRANCH   1  15
ATOM     15  C   UNL     1       2.784   3.258  20.336  0.00  0.00    +0.000 C 
ATOM     16  S   UNL     1       1.852   2.699  21.613  0.00  0.00    +0.000 S 
BRANCH  15  19
ATOM     17  C   UNL     1       1.877   4.411  18.339  0.00  0.00    +0.000 C 
ATOM     18  O   UNL     1       1.699   3.418  17.638  0.00  0.00    +0.000 OA
ATOM     19  N   UNL     1       2.337   4.360  19.645  0.00  0.00    +0.000 N 
ATOM     20  H   UNL     1       2.422   5.228  20.157  0.00  0.00    +0.000 HD
BRANCH  17  21
ATOM     21  C   UNL     1       1.560   5.807  17.838  0.00  0.00    +0.000 C 
BRANCH  21  22
ATOM     22  C   UNL     1       2.669   6.831  18.076  0.00  0.00    +0.000 C 
BRANCH  22  24
ATOM     23  C   UNL     1       1.884   9.207  17.812  0.00  0.00    +0.000 C 
ATOM     24  C   UNL     1       2.184   8.089  18.798  0.00  0.00    +0.000 C 
ENDBRANCH  22  24
ENDBRANCH  21  22
ENDBRANCH  17  21
ENDBRANCH  15  19
ENDBRANCH   1  15
TORSDOF 8
ENDMDL
MODEL 4
REMARK VINA RESULT:      -6.4      2.349      7.499
REMARK  Name = 
REMARK  10 active torsions:
REMARK  status: ('A' for Active; 'I' for Inactive)
REMARK    1  A    between atoms: C_1  and  C_2
REMARK    2  A    between atoms: C_2  and  C_3
REMARK    3  A    between atoms: C_3  and  C_4
REMARK    4  A    between atoms: C_4  and  C_5
REMARK    5  A    between atoms: N_7  and  C_8
REMARK    6  A    between atoms: C_8  and  N_10
REMARK    7  A    between atoms: N_10  and  N_11
REMARK    8  A    between atoms: C_12  and  C_14
REMARK    9  A    between atoms: C_17  and  O_18
REMARK   10  A    between atoms: O_18  and  C_19
REMARK                            x       y       z     vdW  Elec       q    Type
REMARK                         _______ _______ _______ _____ _____    ______ ____
ROOT
ATOM      1  N   UNL     1       2.892   4.242  17.507  0.00  0.00    +0.000 N 
ATOM      2  H   UNL     1       2.633   4.047  16.532  0.00  0.00    +0.000 HD
ENDROOT
BRANCH   1   3
ATOM      3  N   UNL     1       2.301   5.350  18.118  0.00  0.00    +0.000 N 
ATOM      4  C   UNL     1       2.891   6.596  18.040  0.00  0.00    +0.000 C 
ATOM      5  O   UNL     1       3.891   6.848  17.378  0.00  0.00    +0.000 OA
ATOM      6  H   UNL     1       1.418   5.184  18.589  0.00  0.00    +0.000 HD
BRANCH   4   7
ATOM      7  C   UNL     1       2.193   7.665  18.812  0.00  0.00    +0.000 A 
ATOM      8  C   UNL     1       1.915   7.512  20.175  0.00  0.00    +0.000 A 
ATOM      9  C   UNL     1       1.216   8.505  20.863  0.00  0.00    +0.000 A 
ATOM     10  C   UNL     1       0.815   9.674  20.212  0.00  0.00    +0.000 A 
ATOM     11  C   UNL     1       1.110   9.843  18.858  0.00  0.00    +0.000 A 
ATOM     12  C   UNL     1       1.804   8.843  18.159  0.00  0.00    +0.000 A 
BRANCH  10  13
ATOM     13  O   UNL     1       0.109  10.546  20.991  0.00  0.00    +0.000 OA
ATOM     14  C   UNL     1       0.538  11.902  20.961  0.00  0.00    +0.000 C 
ENDBRANCH  10  13
ENDBRANCH   4   7
ENDBRANCH   1   3
BRANCH   1  15
ATOM     15  C   UNL     1       3.903   3.545  18.121  0.00  0.00    +0.000 C 
ATOM     16  S   UNL     1       3.690   2.186  19.081  0.00  0.00    +0.000 S 
BRANCH  15  19
ATOM     17  C   UNL     1       5.787   4.240  16.671  0.00  0.00    +0.000 C 
ATOM     18  O   UNL     1       5.189   4.223  15.598  0.00  0.00    +0.000 OA
ATOM     19  N   UNL     1       5.188   3.978  17.892  0.00  0.00    +0.000 N 
ATOM     20  H   UNL     1       5.753   4.048  18.727  0.00  0.00    +0.000 HD
BRANCH  17  21
ATOM     21  C   UNL     1       7.258   4.599  16.756  0.00  0.00    +0.000 C 
BRANCH  21  22
ATOM     22  C   UNL     1       7.782   4.784  18.179  0.00  0.00    +0.000 C 
BRANCH  22  24
ATOM     23  C   UNL     1       7.603   7.194  17.475  0.00  0.00    +0.000 C 
ATOM     24  C   UNL     1       7.749   6.240  18.650  0.00  0.00    +0.000 C 
ENDBRANCH  22  24
ENDBRANCH  21  22
ENDBRANCH  17  21
ENDBRANCH  15  19
ENDBRANCH   1  15
TORSDOF 8
ENDMDL
MODEL 5
REMARK VINA RESULT:      -6.4      2.605      8.497
REMARK  Name = 
REMARK  10 active torsions:
REMARK  status: ('A' for Active; 'I' for Inactive)
REMARK    1  A    between atoms: C_1  and  C_2
REMARK    2  A    between atoms: C_2  and  C_3
REMARK    3  A    between atoms: C_3  and  C_4
REMARK    4  A    between atoms: C_4  and  C_5
REMARK    5  A    between atoms: N_7  and  C_8
REMARK    6  A    between atoms: C_8  and  N_10
REMARK    7  A    between atoms: N_10  and  N_11
REMARK    8  A    between atoms: C_12  and  C_14
REMARK    9  A    between atoms: C_17  and  O_18
REMARK   10  A    between atoms: O_18  and  C_19
REMARK                            x       y       z     vdW  Elec       q    Type
REMARK                         _______ _______ _______ _____ _____    ______ ____
ROOT
ATOM      1  N   UNL     1       5.952   6.539  16.208  0.00  0.00    +0.000 N 
ATOM      2  H   UNL     1       6.231   7.267  15.540  0.00  0.00    +0.000 HD
ENDROOT
BRANCH   1   3
ATOM      3  N   UNL     1       5.047   6.900  17.209  0.00  0.00    +0.000 N 
ATOM      4  C   UNL     1       3.969   6.092  17.512  0.00  0.00    +0.000 C 
ATOM      5  O   UNL     1       3.771   4.989  17.015  0.00  0.00    +0.000 OA
ATOM      6  H   UNL     1       5.248   7.764  17.704  0.00  0.00    +0.000 HD
BRANCH   4   7
ATOM      7  C   UNL     1       3.043   6.647  18.541  0.00  0.00    +0.000 A 
ATOM      8  C   UNL     1       2.501   7.932  18.411  0.00  0.00    +0.000 A 
ATOM      9  C   UNL     1       1.678   8.448  19.414  0.00  0.00    +0.000 A 
ATOM     10  C   UNL     1       1.358   7.682  20.537  0.00  0.00    +0.000 A 
ATOM     11  C   UNL     1       1.877   6.392  20.660  0.00  0.00    +0.000 A 
ATOM     12  C   UNL     1       2.713   5.872  19.661  0.00  0.00    +0.000 A 
BRANCH  10  13
ATOM     13  O   UNL     1       0.573   8.319  21.456  0.00  0.00    +0.000 OA
ATOM     14  C   UNL     1       1.034   9.589  21.900  0.00  0.00    +0.000 C 
ENDBRANCH  10  13
ENDBRANCH   4   7
ENDBRANCH   1   3
BRANCH   1  15
ATOM     15  C   UNL     1       6.574   5.315  16.219  0.00  0.00    +0.000 C 
ATOM     16  S   UNL     1       7.438   4.686  17.513  0.00  0.00    +0.000 S 
BRANCH  15  19
ATOM     17  C   UNL     1       7.038   4.723  13.859  0.00  0.00    +0.000 C 
ATOM     18  O   UNL     1       7.887   5.582  13.634  0.00  0.00    +0.000 OA
ATOM     19  N   UNL     1       6.439   4.536  15.094  0.00  0.00    +0.000 N 
ATOM     20  H   UNL     1       5.775   3.781  15.194  0.00  0.00    +0.000 HD
BRANCH  17  21
ATOM     21  C   UNL     1       6.595   3.743  12.790  0.00  0.00    +0.000 C 
BRANCH  21  22
ATOM     22  C   UNL     1       5.080   3.634  12.623  0.00  0.00    +0.000 C 
BRANCH  22  24
ATOM     23  C   UNL     1       3.503   3.541  10.663  0.00  0.00    +0.000 C 
ATOM     24  C   UNL     1       4.665   2.860  11.370  0.00  0.00    +0.000 C 
ENDBRANCH  22  24
ENDBRANCH  21  22
ENDBRANCH  17  21
ENDBRANCH  15  19
ENDBRANCH   1  15
TORSDOF 8
ENDMDL
MODEL 6
REMARK VINA RESULT:      -6.4      0.920      1.704
REMARK  Name = 
REMARK  10 active torsions:
REMARK  status: ('A' for Active; 'I' for Inactive)
REMARK    1  A    between atoms: C_1  and  C_2
REMARK    2  A    between atoms: C_2  and  C_3
REMARK    3  A    between atoms: C_3  and  C_4
REMARK    4  A    between atoms: C_4  and  C_5
REMARK    5  A    between atoms: N_7  and  C_8
REMARK    6  A    between atoms: C_8  and  N_10
REMARK    7  A    between atoms: N_10  and  N_11
REMARK    8  A    between atoms: C_12  and  C_14
REMARK    9  A    between atoms: C_17  and  O_18
REMARK   10  A    between atoms: O_18  and  C_19
REMARK                            x       y       z     vdW  Elec       q    Type
REMARK                         _______ _______ _______ _____ _____    ______ ____
ROOT
ATOM      1  N   UNL     1       3.525   5.236  20.199  0.00  0.00    +0.000 N 
ATOM      2  H   UNL     1       4.205   5.495  20.924  0.00  0.00    +0.000 HD
ENDROOT
BRANCH   1   3
ATOM      3  N   UNL     1       4.015   5.012  18.911  0.00  0.00    +0.000 N 
ATOM      4  C   UNL     1       5.364   4.811  18.694  0.00  0.00    +0.000 C 
ATOM      5  O   UNL     1       6.201   4.720  19.584  0.00  0.00    +0.000 OA
ATOM      6  H   UNL     1       3.324   4.984  18.168  0.00  0.00    +0.000 HD
BRANCH   4   7
ATOM      7  C   UNL     1       5.751   4.671  17.260  0.00  0.00    +0.000 A 
ATOM      8  C   UNL     1       7.060   4.924  16.834  0.00  0.00    +0.000 A 
ATOM      9  C   UNL     1       7.385   4.836  15.480  0.00  0.00    +0.000 A 
ATOM     10  C   UNL     1       6.421   4.463  14.540  0.00  0.00    +0.000 A 
ATOM     11  C   UNL     1       5.120   4.186  14.961  0.00  0.00    +0.000 A 
ATOM     12  C   UNL     1       4.786   4.283  16.321  0.00  0.00    +0.000 A 
BRANCH  10  13
ATOM     13  O   UNL     1       6.863   4.450  13.247  0.00  0.00    +0.000 OA
ATOM     14  C   UNL     1       6.290   3.462  12.399  0.00  0.00    +0.000 C 
ENDBRANCH  10  13
ENDBRANCH   4   7
ENDBRANCH   1   3
BRANCH   1  15
ATOM     15  C   UNL     1       2.176   5.279  20.450  0.00  0.00    +0.000 C 
ATOM     16  S   UNL     1       1.123   3.984  20.279  0.00  0.00    +0.000 S 
BRANCH  15  19
ATOM     17  C   UNL     1       1.763   7.719  20.330  0.00  0.00    +0.000 C 
ATOM     18  O   UNL     1       2.244   7.916  19.217  0.00  0.00    +0.000 OA
ATOM     19  N   UNL     1       1.665   6.468  20.917  0.00  0.00    +0.000 N 
ATOM     20  H   UNL     1       1.224   6.398  21.823  0.00  0.00    +0.000 HD
BRANCH  17  21
ATOM     21  C   UNL     1       1.183   8.849  21.158  0.00  0.00    +0.000 C 
BRANCH  21  22
ATOM     22  C   UNL     1      -0.171   9.361  20.667  0.00  0.00    +0.000 C 
BRANCH  22  24
ATOM     23  C   UNL     1      -0.720  10.289  18.393  0.00  0.00    +0.000 C 
ATOM     24  C   UNL     1      -0.057  10.567  19.733  0.00  0.00    +0.000 C 
ENDBRANCH  22  24
ENDBRANCH  21  22
ENDBRANCH  17  21
ENDBRANCH  15  19
ENDBRANCH   1  15
TORSDOF 8
ENDMDL
MODEL 7
REMARK VINA RESULT:      -6.3      3.119      7.048
REMARK  Name = 
REMARK  10 active torsions:
REMARK  status: ('A' for Active; 'I' for Inactive)
REMARK    1  A    between atoms: C_1  and  C_2
REMARK    2  A    between atoms: C_2  and  C_3
REMARK    3  A    between atoms: C_3  and  C_4
REMARK    4  A    between atoms: C_4  and  C_5
REMARK    5  A    between atoms: N_7  and  C_8
REMARK    6  A    between atoms: C_8  and  N_10
REMARK    7  A    between atoms: N_10  and  N_11
REMARK    8  A    between atoms: C_12  and  C_14
REMARK    9  A    between atoms: C_17  and  O_18
REMARK   10  A    between atoms: O_18  and  C_19
REMARK                            x       y       z     vdW  Elec       q    Type
REMARK                         _______ _______ _______ _____ _____    ______ ____
ROOT
ATOM      1  N   UNL     1       4.883   5.402  17.941  0.00  0.00    +0.000 N 
ATOM      2  H   UNL     1       5.669   5.308  18.597  0.00  0.00    +0.000 HD
ENDROOT
BRANCH   1   3
ATOM      3  N   UNL     1       4.045   6.508  18.098  0.00  0.00    +0.000 N 
ATOM      4  C   UNL     1       3.137   6.563  19.136  0.00  0.00    +0.000 C 
ATOM      5  O   UNL     1       3.055   5.726  20.028  0.00  0.00    +0.000 OA
ATOM      6  H   UNL     1       4.166   7.260  17.427  0.00  0.00    +0.000 HD
BRANCH   4   7
ATOM      7  C   UNL     1       2.251   7.763  19.127  0.00  0.00    +0.000 A 
ATOM      8  C   UNL     1       1.662   8.239  20.305  0.00  0.00    +0.000 A 
ATOM      9  C   UNL     1       0.796   9.333  20.262  0.00  0.00    +0.000 A 
ATOM     10  C   UNL     1       0.534   9.985  19.055  0.00  0.00    +0.000 A 
ATOM     11  C   UNL     1       1.136   9.530  17.882  0.00  0.00    +0.000 A 
ATOM     12  C   UNL     1       1.999   8.424  17.917  0.00  0.00    +0.000 A 
BRANCH  10  13
ATOM     13  O   UNL     1      -0.357  11.017  19.149  0.00  0.00    +0.000 OA
ATOM     14  C   UNL     1      -0.907  11.256  20.438  0.00  0.00    +0.000 C 
ENDBRANCH  10  13
ENDBRANCH   4   7
ENDBRANCH   1   3
BRANCH   1  15
ATOM     15  C   UNL     1       4.574   4.393  17.062  0.00  0.00    +0.000 C 
ATOM     16  S   UNL     1       5.320   4.143  15.581  0.00  0.00    +0.000 S 
BRANCH  15  19
ATOM     17  C   UNL     1       3.603   2.695  18.582  0.00  0.00    +0.000 C 
ATOM     18  O   UNL     1       4.451   2.758  19.469  0.00  0.00    +0.000 OA
ATOM     19  N   UNL     1       3.604   3.499  17.455  0.00  0.00    +0.000 N 
ATOM     20  H   UNL     1       2.846   3.399  16.794  0.00  0.00    +0.000 HD
BRANCH  17  21
ATOM     21  C   UNL     1       2.430   1.737  18.669  0.00  0.00    +0.000 C 
BRANCH  21  22
ATOM     22  C   UNL     1       1.069   2.416  18.807  0.00  0.00    +0.000 C 
BRANCH  22  24
ATOM     23  C   UNL     1       1.320   2.635  21.302  0.00  0.00    +0.000 C 
ATOM     24  C   UNL     1       0.985   3.361  20.008  0.00  0.00    +0.000 C 
ENDBRANCH  22  24
ENDBRANCH  21  22
ENDBRANCH  17  21
ENDBRANCH  15  19
ENDBRANCH   1  15
TORSDOF 8
ENDMDL
MODEL 8
REMARK VINA RESULT:      -6.3      2.111      8.022
REMARK  Name = 
REMARK  10 active torsions:
REMARK  status: ('A' for Active; 'I' for Inactive)
REMARK    1  A    between atoms: C_1  and  C_2
REMARK    2  A    between atoms: C_2  and  C_3
REMARK    3  A    between atoms: C_3  and  C_4
REMARK    4  A    between atoms: C_4  and  C_5
REMARK    5  A    between atoms: N_7  and  C_8
REMARK    6  A    between atoms: C_8  and  N_10
REMARK    7  A    between atoms: N_10  and  N_11
REMARK    8  A    between atoms: C_12  and  C_14
REMARK    9  A    between atoms: C_17  and  O_18
REMARK   10  A    between atoms: O_18  and  C_19
REMARK                            x       y       z     vdW  Elec       q    Type
REMARK                         _______ _______ _______ _____ _____    ______ ____
ROOT
ATOM      1  N   UNL     1       4.671   4.603  18.840  0.00  0.00    +0.000 N 
ATOM      2  H   UNL     1       5.192   4.372  19.694  0.00  0.00    +0.000 HD
ENDROOT
BRANCH   1   3
ATOM      3  N   UNL     1       4.006   5.831  18.806  0.00  0.00    +0.000 N 
ATOM      4  C   UNL     1       2.878   6.044  19.573  0.00  0.00    +0.000 C 
ATOM      5  O   UNL     1       2.434   5.243  20.387  0.00  0.00    +0.000 OA
ATOM      6  H   UNL     1       4.416   6.546  18.213  0.00  0.00    +0.000 HD
BRANCH   4   7
ATOM      7  C   UNL     1       2.227   7.371  19.369  0.00  0.00    +0.000 A 
ATOM      8  C   UNL     1       2.242   8.002  18.119  0.00  0.00    +0.000 A 
ATOM      9  C   UNL     1       1.670   9.266  17.967  0.00  0.00    +0.000 A 
ATOM     10  C   UNL     1       1.050   9.901  19.045  0.00  0.00    +0.000 A 
ATOM     11  C   UNL     1       1.011   9.267  20.287  0.00  0.00    +0.000 A 
ATOM     12  C   UNL     1       1.593   8.000  20.449  0.00  0.00    +0.000 A 
BRANCH  10  13
ATOM     13  O   UNL     1       0.563  11.147  18.768  0.00  0.00    +0.000 OA
ATOM     14  C   UNL     1      -0.847  11.251  18.619  0.00  0.00    +0.000 C 
ENDBRANCH  10  13
ENDBRANCH   4   7
ENDBRANCH   1   3
BRANCH   1  15
ATOM     15  C   UNL     1       4.493   3.670  17.848  0.00  0.00    +0.000 C 
ATOM     16  S   UNL     1       3.614   2.251  18.009  0.00  0.00    +0.000 S 
BRANCH  15  19
ATOM     17  C   UNL     1       6.348   4.345  16.352  0.00  0.00    +0.000 C 
ATOM     18  O   UNL     1       7.238   4.394  17.198  0.00  0.00    +0.000 OA
ATOM     19  N   UNL     1       5.049   3.949  16.621  0.00  0.00    +0.000 N 
ATOM     20  H   UNL     1       4.392   3.908  15.854  0.00  0.00    +0.000 HD
BRANCH  17  21
ATOM     21  C   UNL     1       6.615   4.681  14.897  0.00  0.00    +0.000 C 
BRANCH  21  22
ATOM     22  C   UNL     1       5.894   3.777  13.898  0.00  0.00    +0.000 C 
BRANCH  22  24
ATOM     23  C   UNL     1       7.561   4.889  12.375  0.00  0.00    +0.000 C 
ATOM     24  C   UNL     1       6.551   3.761  12.516  0.00  0.00    +0.000 C 
ENDBRANCH  22  24
ENDBRANCH  21  22
ENDBRANCH  17  21
ENDBRANCH  15  19
ENDBRANCH   1  15
TORSDOF 8
ENDMDL
MODEL 9
REMARK VINA RESULT:      -6.3      2.705      7.108
REMARK  Name = 
REMARK  10 active torsions:
REMARK  status: ('A' for Active; 'I' for Inactive)
REMARK    1  A    between atoms: C_1  and  C_2
REMARK    2  A    between atoms: C_2  and  C_3
REMARK    3  A    between atoms: C_3  and  C_4
REMARK    4  A    between atoms: C_4  and  C_5
REMARK    5  A    between atoms: N_7  and  C_8
REMARK    6  A    between atoms: C_8  and  N_10
REMARK    7  A    between atoms: N_10  and  N_11
REMARK    8  A    between atoms: C_12  and  C_14
REMARK    9  A    between atoms: C_17  and  O_18
REMARK   10  A    between atoms: O_18  and  C_19
REMARK                            x       y       z     vdW  Elec       q    Type
REMARK                         _______ _______ _______ _____ _____    ______ ____
ROOT
ATOM      1  N   UNL     1       4.032   4.166  20.080  0.00  0.00    +0.000 N 
ATOM      2  H   UNL     1       3.974   3.736  21.011  0.00  0.00    +0.000 HD
ENDROOT
BRANCH   1   3
ATOM      3  N   UNL     1       3.572   5.478  19.950  0.00  0.00    +0.000 N 
ATOM      4  C   UNL     1       2.231   5.774  20.093  0.00  0.00    +0.000 C 
ATOM      5  O   UNL     1       1.376   4.961  20.426  0.00  0.00    +0.000 OA
ATOM      6  H   UNL     1       4.279   6.185  19.773  0.00  0.00    +0.000 HD
BRANCH   4   7
ATOM      7  C   UNL     1       1.877   7.201  19.843  0.00  0.00    +0.000 A 
ATOM      8  C   UNL     1       1.327   8.000  20.853  0.00  0.00    +0.000 A 
ATOM      9  C   UNL     1       0.956   9.317  20.579  0.00  0.00    +0.000 A 
ATOM     10  C   UNL     1       1.159   9.864  19.310  0.00  0.00    +0.000 A 
ATOM     11  C   UNL     1       1.729   9.081  18.306  0.00  0.00    +0.000 A 
ATOM     12  C   UNL     1       2.094   7.752  18.573  0.00  0.00    +0.000 A 
BRANCH  10  13
ATOM     13  O   UNL     1       0.720  11.150  19.168  0.00  0.00    +0.000 OA
ATOM     14  C   UNL     1      -0.558  11.313  18.567  0.00  0.00    +0.000 C 
ENDBRANCH  10  13
ENDBRANCH   4   7
ENDBRANCH   1   3
BRANCH   1  15
ATOM     15  C   UNL     1       4.382   3.422  18.980  0.00  0.00    +0.000 C 
ATOM     16  S   UNL     1       3.594   2.033  18.467  0.00  0.00    +0.000 S 
BRANCH  15  19
ATOM     17  C   UNL     1       6.487   4.683  18.639  0.00  0.00    +0.000 C 
ATOM     18  O   UNL     1       6.680   5.007  19.808  0.00  0.00    +0.000 OA
ATOM     19  N   UNL     1       5.436   3.882  18.225  0.00  0.00    +0.000 N 
ATOM     20  H   UNL     1       5.376   3.640  17.246  0.00  0.00    +0.000 HD
BRANCH  17  21
ATOM     21  C   UNL     1       7.431   5.106  17.530  0.00  0.00    +0.000 C 
BRANCH  21  22
ATOM     22  C   UNL     1       7.263   6.555  17.076  0.00  0.00    +0.000 C 
BRANCH  22  24
ATOM     23  C   UNL     1       5.065   6.522  15.850  0.00  0.00    +0.000 C 
ATOM     24  C   UNL     1       5.806   7.023  17.080  0.00  0.00    +0.000 C 
ENDBRANCH  22  24
ENDBRANCH  21  22
ENDBRANCH  17  21
ENDBRANCH  15  19
ENDBRANCH   1  15
TORSDOF 8
ENDMDL
