MODEL 1
REMARK VINA RESULT:      -7.0      0.000      0.000
REMARK  Name = 
REMARK  16 active torsions:
REMARK  status: ('A' for Active; 'I' for Inactive)
REMARK    1  A    between atoms: C_1  and  N_2
REMARK    2  A    between atoms: N_5  and  C_6
REMARK    3  A    between atoms: C_6  and  C_7
REMARK    4  A    between atoms: C_7  and  C_8
REMARK    5  A    between atoms: C_8  and  C_9
REMARK    6  A    between atoms: C_9  and  C_10
REMARK    7  A    between atoms: C_10  and  C_11
REMARK    8  A    between atoms: C_11  and  C_12
REMARK    9  A    between atoms: C_12  and  C_13
REMARK   10  A    between atoms: C_13  and  C_14
REMARK   11  A    between atoms: C_14  and  C_15
REMARK   12  A    between atoms: C_15  and  C_16
REMARK   13  A    between atoms: C_16  and  C_17
REMARK   14  A    between atoms: C_17  and  N_18
REMARK   15  A    between atoms: N_21  and  C_22
REMARK   16  A    between atoms: C_22  and  C_23
REMARK                            x       y       z     vdW  Elec       q    Type
REMARK                         _______ _______ _______ _____ _____    ______ ____
ROOT
ATOM      1  C   UNL     1       2.319   7.365  20.111  0.00  0.00    +0.000 C 
ENDROOT
BRANCH   1   2
ATOM      2  N   UNL     1       1.440   8.521  20.036  0.00  0.00    +0.000 N 
ATOM      3  C   UNL     1       1.234   9.283  18.973  0.00  0.00    +0.000 A 
ATOM      4  N   UNL     1       1.846   9.130  17.798  0.00  0.00    +0.000 N 
ATOM      5  N   UNL     1       0.372  10.240  19.276  0.00  0.00    +0.000 N 
ATOM      6  C   UNL     1       0.054  10.155  20.633  0.00  0.00    +0.000 A 
ATOM      7  C   UNL     1      -0.725  10.961  21.459  0.00  0.00    +0.000 A 
ATOM      8  C   UNL     1      -0.754  10.608  22.816  0.00  0.00    +0.000 A 
ATOM      9  C   UNL     1      -0.038   9.499  23.311  0.00  0.00    +0.000 A 
ATOM     10  C   UNL     1       0.736   8.693  22.468  0.00  0.00    +0.000 A 
ATOM     11  C   UNL     1       0.758   9.056  21.125  0.00  0.00    +0.000 A 
ATOM     12  H   UNL     1       2.501   8.379  17.646  0.00  0.00    +0.000 HD
ATOM     13  H   UNL     1       1.733   9.806  17.058  0.00  0.00    +0.000 HD
BRANCH   5  14
ATOM     14  C   UNL     1      -0.125  11.257  18.363  0.00  0.00    +0.000 C 
BRANCH  14  15
ATOM     15  C   UNL     1      -1.529  10.947  17.909  0.00  0.00    +0.000 A 
ATOM     16  C   UNL     1      -1.851   9.887  17.043  0.00  0.00    +0.000 A 
ATOM     17  C   UNL     1      -3.146   9.736  16.547  0.00  0.00    +0.000 A 
ATOM     18  C   UNL     1      -4.148  10.617  16.940  0.00  0.00    +0.000 A 
ATOM     19  C   UNL     1      -3.865  11.629  17.852  0.00  0.00    +0.000 A 
ATOM     20  C   UNL     1      -2.567  11.793  18.336  0.00  0.00    +0.000 A 
ENDBRANCH  14  15
ENDBRANCH   5  14
ENDBRANCH   1   2
BRANCH   1  21
ATOM     21  C   UNL     1       1.604   6.142  19.554  0.00  0.00    +0.000 C 
BRANCH  21  22
ATOM     22  C   UNL     1       1.329   5.141  20.659  0.00  0.00    +0.000 C 
BRANCH  22  23
ATOM     23  C   UNL     1       1.205   3.727  20.099  0.00  0.00    +0.000 C 
BRANCH  23  24
ATOM     24  C   UNL     1       0.922   3.730  18.602  0.00  0.00    +0.000 C 
BRANCH  24  25
ATOM     25  C   UNL     1       2.010   2.994  17.830  0.00  0.00    +0.000 C 
BRANCH  25  26
ATOM     26  C   UNL     1       2.491   1.775  18.588  0.00  0.00    +0.000 C 
BRANCH  26  27
ATOM     27  C   UNL     1       3.844   2.077  19.210  0.00  0.00    +0.000 C 
BRANCH  27  28
ATOM     28  C   UNL     1       4.492   3.237  18.482  0.00  0.00    +0.000 C 
BRANCH  28  29
ATOM     29  C   UNL     1       5.555   3.871  19.360  0.00  0.00    +0.000 C 
BRANCH  29  30
ATOM     30  C   UNL     1       5.445   5.388  19.291  0.00  0.00    +0.000 C 
BRANCH  30  31
ATOM     31  C   UNL     1       4.818   5.851  17.977  0.00  0.00    +0.000 C 
BRANCH  31  36
ATOM     32  C   UNL     1       6.691   4.028  13.924  0.00  0.00    +0.000 C 
ATOM     33  N   UNL     1       6.618   5.201  14.783  0.00  0.00    +0.000 NA
ATOM     34  C   UNL     1       7.168   4.921  16.122  0.00  0.00    +0.000 C 
ATOM     35  C   UNL     1       7.077   6.161  17.029  0.00  0.00    +0.000 C 
ATOM     36  N   UNL     1       5.709   6.706  17.177  0.00  0.00    +0.000 NA
ATOM     37  C   UNL     1       5.151   6.928  15.827  0.00  0.00    +0.000 C 
ATOM     38  C   UNL     1       5.238   5.696  14.899  0.00  0.00    +0.000 C 
ENDBRANCH  31  36
ENDBRANCH  30  31
ENDBRANCH  29  30
ENDBRANCH  28  29
ENDBRANCH  27  28
ENDBRANCH  26  27
ENDBRANCH  25  26
ENDBRANCH  24  25
ENDBRANCH  23  24
ENDBRANCH  22  23
ENDBRANCH  21  22
ENDBRANCH   1  21
TORSDOF 15
ENDMDL
MODEL 2
REMARK VINA RESULT:      -6.8      1.759      2.987
REMARK  Name = 
REMARK  16 active torsions:
REMARK  status: ('A' for Active; 'I' for Inactive)
REMARK    1  A    between atoms: C_1  and  N_2
REMARK    2  A    between atoms: N_5  and  C_6
REMARK    3  A    between atoms: C_6  and  C_7
REMARK    4  A    between atoms: C_7  and  C_8
REMARK    5  A    between atoms: C_8  and  C_9
REMARK    6  A    between atoms: C_9  and  C_10
REMARK    7  A    between atoms: C_10  and  C_11
REMARK    8  A    between atoms: C_11  and  C_12
REMARK    9  A    between atoms: C_12  and  C_13
REMARK   10  A    between atoms: C_13  and  C_14
REMARK   11  A    between atoms: C_14  and  C_15
REMARK   12  A    between atoms: C_15  and  C_16
REMARK   13  A    between atoms: C_16  and  C_17
REMARK   14  A    between atoms: C_17  and  N_18
REMARK   15  A    between atoms: N_21  and  C_22
REMARK   16  A    between atoms: C_22  and  C_23
REMARK                            x       y       z     vdW  Elec       q    Type
REMARK                         _______ _______ _______ _____ _____    ______ ____
ROOT
ATOM      1  C   UNL     1       0.924   9.364  18.414  0.00  0.00    +0.000 C 
ENDROOT
BRANCH   1   2
ATOM      2  N   UNL     1       0.127  10.188  19.308  0.00  0.00    +0.000 N 
ATOM      3  C   UNL     1      -0.520  11.299  18.986  0.00  0.00    +0.000 A 
ATOM      4  N   UNL     1      -0.502  11.864  17.778  0.00  0.00    +0.000 N 
ATOM      5  N   UNL     1      -1.136  11.776  20.055  0.00  0.00    +0.000 N 
ATOM      6  C   UNL     1      -0.814  10.986  21.160  0.00  0.00    +0.000 A 
ATOM      7  C   UNL     1      -1.125  11.105  22.511  0.00  0.00    +0.000 A 
ATOM      8  C   UNL     1      -0.549  10.150  23.362  0.00  0.00    +0.000 A 
ATOM      9  C   UNL     1       0.292   9.129  22.874  0.00  0.00    +0.000 A 
ATOM     10  C   UNL     1       0.591   9.018  21.512  0.00  0.00    +0.000 A 
ATOM     11  C   UNL     1       0.015   9.972  20.679  0.00  0.00    +0.000 A 
ATOM     12  H   UNL     1       0.001  11.444  17.013  0.00  0.00    +0.000 HD
ATOM     13  H   UNL     1      -0.922  12.768  17.619  0.00  0.00    +0.000 HD
BRANCH   5  14
ATOM     14  C   UNL     1      -1.970  12.967  20.093  0.00  0.00    +0.000 C 
BRANCH  14  15
ATOM     15  C   UNL     1      -3.432  12.609  20.170  0.00  0.00    +0.000 A 
ATOM     16  C   UNL     1      -4.153  12.044  19.103  0.00  0.00    +0.000 A 
ATOM     17  C   UNL     1      -5.534  11.866  19.187  0.00  0.00    +0.000 A 
ATOM     18  C   UNL     1      -6.210  12.211  20.352  0.00  0.00    +0.000 A 
ATOM     19  C   UNL     1      -5.505  12.705  21.444  0.00  0.00    +0.000 A 
ATOM     20  C   UNL     1      -4.126  12.900  21.357  0.00  0.00    +0.000 A 
ENDBRANCH  14  15
ENDBRANCH   5  14
ENDBRANCH   1   2
BRANCH   1  21
ATOM     21  C   UNL     1       2.011   8.651  19.208  0.00  0.00    +0.000 C 
BRANCH  21  22
ATOM     22  C   UNL     1       2.286   7.283  18.616  0.00  0.00    +0.000 C 
BRANCH  22  23
ATOM     23  C   UNL     1       2.754   6.306  19.691  0.00  0.00    +0.000 C 
BRANCH  23  24
ATOM     24  C   UNL     1       1.600   5.803  20.547  0.00  0.00    +0.000 C 
BRANCH  24  25
ATOM     25  C   UNL     1       1.836   4.372  21.012  0.00  0.00    +0.000 C 
BRANCH  25  26
ATOM     26  C   UNL     1       2.855   3.672  20.138  0.00  0.00    +0.000 C 
BRANCH  26  27
ATOM     27  C   UNL     1       2.204   2.463  19.487  0.00  0.00    +0.000 C 
BRANCH  27  28
ATOM     28  C   UNL     1       2.699   2.322  18.062  0.00  0.00    +0.000 C 
BRANCH  28  29
ATOM     29  C   UNL     1       2.732   3.681  17.389  0.00  0.00    +0.000 C 
BRANCH  29  30
ATOM     30  C   UNL     1       4.028   3.838  16.604  0.00  0.00    +0.000 C 
BRANCH  30  31
ATOM     31  C   UNL     1       5.187   4.258  17.507  0.00  0.00    +0.000 C 
BRANCH  31  36
ATOM     32  C   UNL     1       7.710   8.365  17.669  0.00  0.00    +0.000 C 
ATOM     33  N   UNL     1       7.688   6.996  17.174  0.00  0.00    +0.000 NA
ATOM     34  C   UNL     1       6.562   6.778  16.247  0.00  0.00    +0.000 C 
ATOM     35  C   UNL     1       6.537   5.326  15.737  0.00  0.00    +0.000 C 
ATOM     36  N   UNL     1       6.481   4.306  16.808  0.00  0.00    +0.000 NA
ATOM     37  C   UNL     1       7.581   4.573  17.758  0.00  0.00    +0.000 C 
ATOM     38  C   UNL     1       7.626   6.027  18.278  0.00  0.00    +0.000 C 
ENDBRANCH  31  36
ENDBRANCH  30  31
ENDBRANCH  29  30
ENDBRANCH  28  29
ENDBRANCH  27  28
ENDBRANCH  26  27
ENDBRANCH  25  26
ENDBRANCH  24  25
ENDBRANCH  23  24
ENDBRANCH  22  23
ENDBRANCH  21  22
ENDBRANCH   1  21
TORSDOF 15
ENDMDL
MODEL 3
REMARK VINA RESULT:      -6.6      2.363      3.945
REMARK  Name = 
REMARK  16 active torsions:
REMARK  status: ('A' for Active; 'I' for Inactive)
REMARK    1  A    between atoms: C_1  and  N_2
REMARK    2  A    between atoms: N_5  and  C_6
REMARK    3  A    between atoms: C_6  and  C_7
REMARK    4  A    between atoms: C_7  and  C_8
REMARK    5  A    between atoms: C_8  and  C_9
REMARK    6  A    between atoms: C_9  and  C_10
REMARK    7  A    between atoms: C_10  and  C_11
REMARK    8  A    between atoms: C_11  and  C_12
REMARK    9  A    between atoms: C_12  and  C_13
REMARK   10  A    between atoms: C_13  and  C_14
REMARK   11  A    between atoms: C_14  and  C_15
REMARK   12  A    between atoms: C_15  and  C_16
REMARK   13  A    between atoms: C_16  and  C_17
REMARK   14  A    between atoms: C_17  and  N_18
REMARK   15  A    between atoms: N_21  and  C_22
REMARK   16  A    between atoms: C_22  and  C_23
REMARK                            x       y       z     vdW  Elec       q    Type
REMARK                         _______ _______ _______ _____ _____    ______ ____
ROOT
ATOM      1  C   UNL     1       0.191   9.792  18.169  0.00  0.00    +0.000 C 
ENDROOT
BRANCH   1   2
ATOM      2  N   UNL     1      -0.297  10.742  19.156  0.00  0.00    +0.000 N 
ATOM      3  C   UNL     1      -0.561  12.024  18.949  0.00  0.00    +0.000 A 
ATOM      4  N   UNL     1      -0.375  12.661  17.792  0.00  0.00    +0.000 N 
ATOM      5  N   UNL     1      -0.986  12.575  20.075  0.00  0.00    +0.000 N 
ATOM      6  C   UNL     1      -0.922  11.627  21.099  0.00  0.00    +0.000 A 
ATOM      7  C   UNL     1      -1.169  11.717  22.466  0.00  0.00    +0.000 A 
ATOM      8  C   UNL     1      -0.918  10.558  23.215  0.00  0.00    +0.000 A 
ATOM      9  C   UNL     1      -0.448   9.373  22.615  0.00  0.00    +0.000 A 
ATOM     10  C   UNL     1      -0.211   9.294  21.238  0.00  0.00    +0.000 A 
ATOM     11  C   UNL     1      -0.461  10.452  20.507  0.00  0.00    +0.000 A 
ATOM     12  H   UNL     1      -0.037  12.173  16.977  0.00  0.00    +0.000 HD
ATOM     13  H   UNL     1      -0.488  13.661  17.722  0.00  0.00    +0.000 HD
BRANCH   5  14
ATOM     14  C   UNL     1      -1.400  13.959  20.240  0.00  0.00    +0.000 C 
BRANCH  14  15
ATOM     15  C   UNL     1      -0.342  14.765  20.951  0.00  0.00    +0.000 A 
ATOM     16  C   UNL     1       0.971  14.918  20.475  0.00  0.00    +0.000 A 
ATOM     17  C   UNL     1       1.943  15.557  21.246  0.00  0.00    +0.000 A 
ATOM     18  C   UNL     1       1.607  16.088  22.487  0.00  0.00    +0.000 A 
ATOM     19  C   UNL     1       0.296  16.009  22.945  0.00  0.00    +0.000 A 
ATOM     20  C   UNL     1      -0.674  15.355  22.183  0.00  0.00    +0.000 A 
ENDBRANCH  14  15
ENDBRANCH   5  14
ENDBRANCH   1   2
BRANCH   1  21
ATOM     21  C   UNL     1       1.691   9.601  18.341  0.00  0.00    +0.000 C 
BRANCH  21  22
ATOM     22  C   UNL     1       2.093   8.195  17.941  0.00  0.00    +0.000 C 
BRANCH  22  23
ATOM     23  C   UNL     1       2.594   7.405  19.148  0.00  0.00    +0.000 C 
BRANCH  23  24
ATOM     24  C   UNL     1       1.467   6.656  19.847  0.00  0.00    +0.000 C 
BRANCH  24  25
ATOM     25  C   UNL     1       2.001   5.496  20.676  0.00  0.00    +0.000 C 
BRANCH  25  26
ATOM     26  C   UNL     1       1.176   4.244  20.463  0.00  0.00    +0.000 C 
BRANCH  26  27
ATOM     27  C   UNL     1       2.075   3.027  20.604  0.00  0.00    +0.000 C 
BRANCH  27  28
ATOM     28  C   UNL     1       1.845   2.085  19.439  0.00  0.00    +0.000 C 
BRANCH  28  29
ATOM     29  C   UNL     1       2.070   2.817  18.129  0.00  0.00    +0.000 C 
BRANCH  29  30
ATOM     30  C   UNL     1       3.528   3.244  18.019  0.00  0.00    +0.000 C 
BRANCH  30  31
ATOM     31  C   UNL     1       3.681   4.525  17.201  0.00  0.00    +0.000 C 
BRANCH  31  36
ATOM     32  C   UNL     1       7.156   4.886  13.876  0.00  0.00    +0.000 C 
ATOM     33  N   UNL     1       6.746   5.264  15.221  0.00  0.00    +0.000 NA
ATOM     34  C   UNL     1       6.576   4.080  16.083  0.00  0.00    +0.000 C 
ATOM     35  C   UNL     1       6.131   4.485  17.500  0.00  0.00    +0.000 C 
ATOM     36  N   UNL     1       4.891   5.291  17.541  0.00  0.00    +0.000 NA
ATOM     37  C   UNL     1       5.057   6.442  16.629  0.00  0.00    +0.000 C 
ATOM     38  C   UNL     1       5.507   6.056  15.202  0.00  0.00    +0.000 C 
ENDBRANCH  31  36
ENDBRANCH  30  31
ENDBRANCH  29  30
ENDBRANCH  28  29
ENDBRANCH  27  28
ENDBRANCH  26  27
ENDBRANCH  25  26
ENDBRANCH  24  25
ENDBRANCH  23  24
ENDBRANCH  22  23
ENDBRANCH  21  22
ENDBRANCH   1  21
TORSDOF 15
ENDMDL
MODEL 4
REMARK VINA RESULT:      -6.4      2.087      4.111
REMARK  Name = 
REMARK  16 active torsions:
REMARK  status: ('A' for Active; 'I' for Inactive)
REMARK    1  A    between atoms: C_1  and  N_2
REMARK    2  A    between atoms: N_5  and  C_6
REMARK    3  A    between atoms: C_6  and  C_7
REMARK    4  A    between atoms: C_7  and  C_8
REMARK    5  A    between atoms: C_8  and  C_9
REMARK    6  A    between atoms: C_9  and  C_10
REMARK    7  A    between atoms: C_10  and  C_11
REMARK    8  A    between atoms: C_11  and  C_12
REMARK    9  A    between atoms: C_12  and  C_13
REMARK   10  A    between atoms: C_13  and  C_14
REMARK   11  A    between atoms: C_14  and  C_15
REMARK   12  A    between atoms: C_15  and  C_16
REMARK   13  A    between atoms: C_16  and  C_17
REMARK   14  A    between atoms: C_17  and  N_18
REMARK   15  A    between atoms: N_21  and  C_22
REMARK   16  A    between atoms: C_22  and  C_23
REMARK                            x       y       z     vdW  Elec       q    Type
REMARK                         _______ _______ _______ _____ _____    ______ ____
ROOT
ATOM      1  C   UNL     1       0.913   9.682  19.927  0.00  0.00    +0.000 C 
ENDROOT
BRANCH   1   2
ATOM      2  N   UNL     1      -0.105  10.691  19.683  0.00  0.00    +0.000 N 
ATOM      3  C   UNL     1      -0.298  11.799  20.384  0.00  0.00    +0.000 A 
ATOM      4  N   UNL     1       0.399  12.142  21.469  0.00  0.00    +0.000 N 
ATOM      5  N   UNL     1      -1.313  12.474  19.872  0.00  0.00    +0.000 N 
ATOM      6  C   UNL     1      -1.873  11.736  18.827  0.00  0.00    +0.000 A 
ATOM      7  C   UNL     1      -2.993  11.953  18.029  0.00  0.00    +0.000 A 
ATOM      8  C   UNL     1      -3.305  10.936  17.116  0.00  0.00    +0.000 A 
ATOM      9  C   UNL     1      -2.528   9.765  17.012  0.00  0.00    +0.000 A 
ATOM     10  C   UNL     1      -1.401   9.562  17.816  0.00  0.00    +0.000 A 
ATOM     11  C   UNL     1      -1.103  10.578  18.719  0.00  0.00    +0.000 A 
ATOM     12  H   UNL     1       1.156  11.567  21.805  0.00  0.00    +0.000 HD
ATOM     13  H   UNL     1       0.136  12.940  22.027  0.00  0.00    +0.000 HD
BRANCH   5  14
ATOM     14  C   UNL     1      -1.810  13.754  20.351  0.00  0.00    +0.000 C 
BRANCH  14  15
ATOM     15  C   UNL     1      -2.832  13.571  21.443  0.00  0.00    +0.000 A 
ATOM     16  C   UNL     1      -2.508  13.501  22.809  0.00  0.00    +0.000 A 
ATOM     17  C   UNL     1      -3.479  13.189  23.761  0.00  0.00    +0.000 A 
ATOM     18  C   UNL     1      -4.797  12.982  23.367  0.00  0.00    +0.000 A 
ATOM     19  C   UNL     1      -5.152  13.117  22.029  0.00  0.00    +0.000 A 
ATOM     20  C   UNL     1      -4.179  13.412  21.073  0.00  0.00    +0.000 A 
ENDBRANCH  14  15
ENDBRANCH   5  14
ENDBRANCH   1   2
BRANCH   1  21
ATOM     21  C   UNL     1       0.552   8.879  21.169  0.00  0.00    +0.000 C 
BRANCH  21  22
ATOM     22  C   UNL     1       0.839   7.407  20.948  0.00  0.00    +0.000 C 
BRANCH  22  23
ATOM     23  C   UNL     1       2.130   7.214  20.158  0.00  0.00    +0.000 C 
BRANCH  23  24
ATOM     24  C   UNL     1       2.420   5.743  19.887  0.00  0.00    +0.000 C 
BRANCH  24  25
ATOM     25  C   UNL     1       2.085   4.880  21.097  0.00  0.00    +0.000 C 
BRANCH  25  26
ATOM     26  C   UNL     1       2.260   3.408  20.785  0.00  0.00    +0.000 C 
BRANCH  26  27
ATOM     27  C   UNL     1       1.214   2.989  19.765  0.00  0.00    +0.000 C 
BRANCH  27  28
ATOM     28  C   UNL     1       1.888   2.290  18.601  0.00  0.00    +0.000 C 
BRANCH  28  29
ATOM     29  C   UNL     1       3.387   2.515  18.660  0.00  0.00    +0.000 C 
BRANCH  29  30
ATOM     30  C   UNL     1       3.907   2.892  17.279  0.00  0.00    +0.000 C 
BRANCH  30  31
ATOM     31  C   UNL     1       4.009   4.407  17.109  0.00  0.00    +0.000 C 
BRANCH  31  36
ATOM     32  C   UNL     1       7.962   6.807  18.479  0.00  0.00    +0.000 C 
ATOM     33  N   UNL     1       7.240   6.242  17.348  0.00  0.00    +0.000 NA
ATOM     34  C   UNL     1       5.925   6.887  17.174  0.00  0.00    +0.000 C 
ATOM     35  C   UNL     1       5.162   6.278  15.984  0.00  0.00    +0.000 C 
ATOM     36  N   UNL     1       4.970   4.813  16.071  0.00  0.00    +0.000 NA
ATOM     37  C   UNL     1       6.288   4.187  16.302  0.00  0.00    +0.000 C 
ATOM     38  C   UNL     1       7.073   4.788  17.490  0.00  0.00    +0.000 C 
ENDBRANCH  31  36
ENDBRANCH  30  31
ENDBRANCH  29  30
ENDBRANCH  28  29
ENDBRANCH  27  28
ENDBRANCH  26  27
ENDBRANCH  25  26
ENDBRANCH  24  25
ENDBRANCH  23  24
ENDBRANCH  22  23
ENDBRANCH  21  22
ENDBRANCH   1  21
TORSDOF 15
ENDMDL
MODEL 5
REMARK VINA RESULT:      -6.4      4.704      6.091
REMARK  Name = 
REMARK  16 active torsions:
REMARK  status: ('A' for Active; 'I' for Inactive)
REMARK    1  A    between atoms: C_1  and  N_2
REMARK    2  A    between atoms: N_5  and  C_6
REMARK    3  A    between atoms: C_6  and  C_7
REMARK    4  A    between atoms: C_7  and  C_8
REMARK    5  A    between atoms: C_8  and  C_9
REMARK    6  A    between atoms: C_9  and  C_10
REMARK    7  A    between atoms: C_10  and  C_11
REMARK    8  A    between atoms: C_11  and  C_12
REMARK    9  A    between atoms: C_12  and  C_13
REMARK   10  A    between atoms: C_13  and  C_14
REMARK   11  A    between atoms: C_14  and  C_15
REMARK   12  A    between atoms: C_15  and  C_16
REMARK   13  A    between atoms: C_16  and  C_17
REMARK   14  A    between atoms: C_17  and  N_18
REMARK   15  A    between atoms: N_21  and  C_22
REMARK   16  A    between atoms: C_22  and  C_23
REMARK                            x       y       z     vdW  Elec       q    Type
REMARK                         _______ _______ _______ _____ _____    ______ ____
ROOT
ATOM      1  C   UNL     1       1.213   9.225  17.838  0.00  0.00    +0.000 C 
ENDROOT
BRANCH   1   2
ATOM      2  N   UNL     1       1.103  10.182  18.927  0.00  0.00    +0.000 N 
ATOM      3  C   UNL     1       1.613  11.404  18.954  0.00  0.00    +0.000 A 
ATOM      4  N   UNL     1       2.358  11.937  17.984  0.00  0.00    +0.000 N 
ATOM      5  N   UNL     1       1.312  11.983  20.104  0.00  0.00    +0.000 N 
ATOM      6  C   UNL     1       0.636  11.068  20.914  0.00  0.00    +0.000 A 
ATOM      7  C   UNL     1       0.183  11.145  22.228  0.00  0.00    +0.000 A 
ATOM      8  C   UNL     1      -0.393   9.977  22.750  0.00  0.00    +0.000 A 
ATOM      9  C   UNL     1      -0.507   8.799  21.986  0.00  0.00    +0.000 A 
ATOM     10  C   UNL     1      -0.053   8.737  20.664  0.00  0.00    +0.000 A 
ATOM     11  C   UNL     1       0.518   9.901  20.159  0.00  0.00    +0.000 A 
ATOM     12  H   UNL     1       2.554  11.427  17.137  0.00  0.00    +0.000 HD
ATOM     13  H   UNL     1       2.813  12.830  18.106  0.00  0.00    +0.000 HD
BRANCH   5  14
ATOM     14  C   UNL     1       1.674  13.337  20.495  0.00  0.00    +0.000 C 
BRANCH  14  15
ATOM     15  C   UNL     1       0.611  14.326  20.088  0.00  0.00    +0.000 A 
ATOM     16  C   UNL     1       0.646  15.057  18.888  0.00  0.00    +0.000 A 
ATOM     17  C   UNL     1      -0.290  16.060  18.632  0.00  0.00    +0.000 A 
ATOM     18  C   UNL     1      -1.299  16.320  19.553  0.00  0.00    +0.000 A 
ATOM     19  C   UNL     1      -1.393  15.559  20.714  0.00  0.00    +0.000 A 
ATOM     20  C   UNL     1      -0.448  14.567  20.980  0.00  0.00    +0.000 A 
ENDBRANCH  14  15
ENDBRANCH   5  14
ENDBRANCH   1   2
BRANCH   1  21
ATOM     21  C   UNL     1       2.584   8.564  17.874  0.00  0.00    +0.000 C 
BRANCH  21  22
ATOM     22  C   UNL     1       2.486   7.175  18.473  0.00  0.00    +0.000 C 
BRANCH  22  23
ATOM     23  C   UNL     1       3.734   6.356  18.161  0.00  0.00    +0.000 C 
BRANCH  23  24
ATOM     24  C   UNL     1       4.369   6.764  16.838  0.00  0.00    +0.000 C 
BRANCH  24  25
ATOM     25  C   UNL     1       5.753   6.151  16.673  0.00  0.00    +0.000 C 
BRANCH  25  26
ATOM     26  C   UNL     1       6.688   6.605  17.775  0.00  0.00    +0.000 C 
BRANCH  26  27
ATOM     27  C   UNL     1       7.349   7.909  17.359  0.00  0.00    +0.000 C 
BRANCH  27  28
ATOM     28  C   UNL     1       8.334   8.345  18.426  0.00  0.00    +0.000 C 
BRANCH  28  29
ATOM     29  C   UNL     1       8.734   9.790  18.201  0.00  0.00    +0.000 C 
BRANCH  29  30
ATOM     30  C   UNL     1       9.393  10.346  19.456  0.00  0.00    +0.000 C 
BRANCH  30  31
ATOM     31  C   UNL     1       9.824  11.800  19.273  0.00  0.00    +0.000 C 
BRANCH  31  36
ATOM     32  C   UNL     1      10.541  16.509  18.517  0.00  0.00    +0.000 C 
ATOM     33  N   UNL     1      10.060  15.265  17.932  0.00  0.00    +0.000 NA
ATOM     34  C   UNL     1       8.901  14.735  18.674  0.00  0.00    +0.000 C 
ATOM     35  C   UNL     1       8.406  13.415  18.058  0.00  0.00    +0.000 C 
ATOM     36  N   UNL     1       9.440  12.360  17.967  0.00  0.00    +0.000 NA
ATOM     37  C   UNL     1      10.616  12.924  17.272  0.00  0.00    +0.000 C 
ATOM     38  C   UNL     1      11.126  14.254  17.873  0.00  0.00    +0.000 C 
ENDBRANCH  31  36
ENDBRANCH  30  31
ENDBRANCH  29  30
ENDBRANCH  28  29
ENDBRANCH  27  28
ENDBRANCH  26  27
ENDBRANCH  25  26
ENDBRANCH  24  25
ENDBRANCH  23  24
ENDBRANCH  22  23
ENDBRANCH  21  22
ENDBRANCH   1  21
TORSDOF 15
ENDMDL
MODEL 6
REMARK VINA RESULT:      -6.3      2.331      3.783
REMARK  Name = 
REMARK  16 active torsions:
REMARK  status: ('A' for Active; 'I' for Inactive)
REMARK    1  A    between atoms: C_1  and  N_2
REMARK    2  A    between atoms: N_5  and  C_6
REMARK    3  A    between atoms: C_6  and  C_7
REMARK    4  A    between atoms: C_7  and  C_8
REMARK    5  A    between atoms: C_8  and  C_9
REMARK    6  A    between atoms: C_9  and  C_10
REMARK    7  A    between atoms: C_10  and  C_11
REMARK    8  A    between atoms: C_11  and  C_12
REMARK    9  A    between atoms: C_12  and  C_13
REMARK   10  A    between atoms: C_13  and  C_14
REMARK   11  A    between atoms: C_14  and  C_15
REMARK   12  A    between atoms: C_15  and  C_16
REMARK   13  A    between atoms: C_16  and  C_17
REMARK   14  A    between atoms: C_17  and  N_18
REMARK   15  A    between atoms: N_21  and  C_22
REMARK   16  A    between atoms: C_22  and  C_23
REMARK                            x       y       z     vdW  Elec       q    Type
REMARK                         _______ _______ _______ _____ _____    ______ ____
ROOT
ATOM      1  C   UNL     1       2.033   8.401  18.841  0.00  0.00    +0.000 C 
ENDROOT
BRANCH   1   2
ATOM      2  N   UNL     1       1.354   9.578  19.360  0.00  0.00    +0.000 N 
ATOM      3  C   UNL     1       1.344  10.785  18.812  0.00  0.00    +0.000 A 
ATOM      4  N   UNL     1       2.005  11.121  17.704  0.00  0.00    +0.000 N 
ATOM      5  N   UNL     1       0.624  11.603  19.562  0.00  0.00    +0.000 N 
ATOM      6  C   UNL     1       0.202  10.923  20.706  0.00  0.00    +0.000 A 
ATOM      7  C   UNL     1      -0.496  11.344  21.835  0.00  0.00    +0.000 A 
ATOM      8  C   UNL     1      -0.674  10.385  22.843  0.00  0.00    +0.000 A 
ATOM      9  C   UNL     1      -0.177   9.072  22.716  0.00  0.00    +0.000 A 
ATOM     10  C   UNL     1       0.518   8.661  21.573  0.00  0.00    +0.000 A 
ATOM     11  C   UNL     1       0.689   9.623  20.582  0.00  0.00    +0.000 A 
ATOM     12  H   UNL     1       2.543  10.440  17.191  0.00  0.00    +0.000 HD
ATOM     13  H   UNL     1       2.051  12.080  17.394  0.00  0.00    +0.000 HD
BRANCH   5  14
ATOM     14  C   UNL     1       0.357  13.003  19.275  0.00  0.00    +0.000 C 
BRANCH  14  15
ATOM     15  C   UNL     1       1.464  13.888  19.790  0.00  0.00    +0.000 A 
ATOM     16  C   UNL     1       2.379  13.494  20.782  0.00  0.00    +0.000 A 
ATOM     17  C   UNL     1       3.291  14.403  21.318  0.00  0.00    +0.000 A 
ATOM     18  C   UNL     1       3.331  15.710  20.842  0.00  0.00    +0.000 A 
ATOM     19  C   UNL     1       2.482  16.100  19.812  0.00  0.00    +0.000 A 
ATOM     20  C   UNL     1       1.557  15.197  19.286  0.00  0.00    +0.000 A 
ENDBRANCH  14  15
ENDBRANCH   5  14
ENDBRANCH   1   2
BRANCH   1  21
ATOM     21  C   UNL     1       2.116   7.338  19.928  0.00  0.00    +0.000 C 
BRANCH  21  22
ATOM     22  C   UNL     1       1.910   5.959  19.334  0.00  0.00    +0.000 C 
BRANCH  22  23
ATOM     23  C   UNL     1       1.240   5.025  20.338  0.00  0.00    +0.000 C 
BRANCH  23  24
ATOM     24  C   UNL     1       2.242   4.423  21.314  0.00  0.00    +0.000 C 
BRANCH  24  25
ATOM     25  C   UNL     1       1.778   3.062  21.817  0.00  0.00    +0.000 C 
BRANCH  25  26
ATOM     26  C   UNL     1       2.568   1.941  21.175  0.00  0.00    +0.000 C 
BRANCH  26  27
ATOM     27  C   UNL     1       3.637   2.538  20.276  0.00  0.00    +0.000 C 
BRANCH  27  28
ATOM     28  C   UNL     1       3.614   1.848  18.927  0.00  0.00    +0.000 C 
BRANCH  28  29
ATOM     29  C   UNL     1       2.445   2.357  18.105  0.00  0.00    +0.000 C 
BRANCH  29  30
ATOM     30  C   UNL     1       2.937   3.369  17.079  0.00  0.00    +0.000 C 
BRANCH  30  31
ATOM     31  C   UNL     1       4.450   3.566  17.159  0.00  0.00    +0.000 C 
BRANCH  31  36
ATOM     32  C   UNL     1       7.944   6.594  18.530  0.00  0.00    +0.000 C 
ATOM     33  N   UNL     1       7.094   6.173  17.425  0.00  0.00    +0.000 NA
ATOM     34  C   UNL     1       5.668   6.397  17.729  0.00  0.00    +0.000 C 
ATOM     35  C   UNL     1       4.775   5.939  16.562  0.00  0.00    +0.000 C 
ATOM     36  N   UNL     1       4.966   4.525  16.169  0.00  0.00    +0.000 NA
ATOM     37  C   UNL     1       6.406   4.303  15.924  0.00  0.00    +0.000 C 
ATOM     38  C   UNL     1       7.320   4.761  17.082  0.00  0.00    +0.000 C 
ENDBRANCH  31  36
ENDBRANCH  30  31
ENDBRANCH  29  30
ENDBRANCH  28  29
ENDBRANCH  27  28
ENDBRANCH  26  27
ENDBRANCH  25  26
ENDBRANCH  24  25
ENDBRANCH  23  24
ENDBRANCH  22  23
ENDBRANCH  21  22
ENDBRANCH   1  21
TORSDOF 15
ENDMDL
MODEL 7
REMARK VINA RESULT:      -6.3      2.141      4.046
REMARK  Name = 
REMARK  16 active torsions:
REMARK  status: ('A' for Active; 'I' for Inactive)
REMARK    1  A    between atoms: C_1  and  N_2
REMARK    2  A    between atoms: N_5  and  C_6
REMARK    3  A    between atoms: C_6  and  C_7
REMARK    4  A    between atoms: C_7  and  C_8
REMARK    5  A    between atoms: C_8  and  C_9
REMARK    6  A    between atoms: C_9  and  C_10
REMARK    7  A    between atoms: C_10  and  C_11
REMARK    8  A    between atoms: C_11  and  C_12
REMARK    9  A    between atoms: C_12  and  C_13
REMARK   10  A    between atoms: C_13  and  C_14
REMARK   11  A    between atoms: C_14  and  C_15
REMARK   12  A    between atoms: C_15  and  C_16
REMARK   13  A    between atoms: C_16  and  C_17
REMARK   14  A    between atoms: C_17  and  N_18
REMARK   15  A    between atoms: N_21  and  C_22
REMARK   16  A    between atoms: C_22  and  C_23
REMARK                            x       y       z     vdW  Elec       q    Type
REMARK                         _______ _______ _______ _____ _____    ______ ____
ROOT
ATOM      1  C   UNL     1       1.510   9.657  18.008  0.00  0.00    +0.000 C 
ENDROOT
BRANCH   1   2
ATOM      2  N   UNL     1       0.828  10.870  18.429  0.00  0.00    +0.000 N 
ATOM      3  C   UNL     1      -0.458  10.987  18.724  0.00  0.00    +0.000 A 
ATOM      4  N   UNL     1      -1.350   9.999  18.635  0.00  0.00    +0.000 N 
ATOM      5  N   UNL     1      -0.721  12.237  19.066  0.00  0.00    +0.000 N 
ATOM      6  C   UNL     1       0.434  13.006  18.912  0.00  0.00    +0.000 A 
ATOM      7  C   UNL     1       0.670  14.371  19.053  0.00  0.00    +0.000 A 
ATOM      8  C   UNL     1       1.963  14.810  18.732  0.00  0.00    +0.000 A 
ATOM      9  C   UNL     1       2.963  13.918  18.296  0.00  0.00    +0.000 A 
ATOM     10  C   UNL     1       2.715  12.547  18.165  0.00  0.00    +0.000 A 
ATOM     11  C   UNL     1       1.427  12.126  18.485  0.00  0.00    +0.000 A 
ATOM     12  H   UNL     1      -1.074   9.071  18.355  0.00  0.00    +0.000 HD
ATOM     13  H   UNL     1      -2.336  10.172  18.765  0.00  0.00    +0.000 HD
BRANCH   5  14
ATOM     14  C   UNL     1      -2.017  12.750  19.482  0.00  0.00    +0.000 C 
BRANCH  14  15
ATOM     15  C   UNL     1      -2.052  13.010  20.967  0.00  0.00    +0.000 A 
ATOM     16  C   UNL     1      -1.993  11.994  21.937  0.00  0.00    +0.000 A 
ATOM     17  C   UNL     1      -2.172  12.284  23.290  0.00  0.00    +0.000 A 
ATOM     18  C   UNL     1      -2.373  13.598  23.698  0.00  0.00    +0.000 A 
ATOM     19  C   UNL     1      -2.364  14.626  22.761  0.00  0.00    +0.000 A 
ATOM     20  C   UNL     1      -2.202  14.336  21.405  0.00  0.00    +0.000 A 
ENDBRANCH  14  15
ENDBRANCH   5  14
ENDBRANCH   1   2
BRANCH   1  21
ATOM     21  C   UNL     1       1.686   8.729  19.201  0.00  0.00    +0.000 C 
BRANCH  21  22
ATOM     22  C   UNL     1       2.257   7.397  18.754  0.00  0.00    +0.000 C 
BRANCH  22  23
ATOM     23  C   UNL     1       2.784   6.601  19.945  0.00  0.00    +0.000 C 
BRANCH  23  24
ATOM     24  C   UNL     1       1.714   5.700  20.548  0.00  0.00    +0.000 C 
BRANCH  24  25
ATOM     25  C   UNL     1       1.396   4.526  19.633  0.00  0.00    +0.000 C 
BRANCH  25  26
ATOM     26  C   UNL     1       1.317   3.229  20.411  0.00  0.00    +0.000 C 
BRANCH  26  27
ATOM     27  C   UNL     1       2.718   2.811  20.823  0.00  0.00    +0.000 C 
BRANCH  27  28
ATOM     28  C   UNL     1       3.693   3.120  19.705  0.00  0.00    +0.000 C 
BRANCH  28  29
ATOM     29  C   UNL     1       3.546   2.099  18.593  0.00  0.00    +0.000 C 
BRANCH  29  30
ATOM     30  C   UNL     1       3.650   2.790  17.240  0.00  0.00    +0.000 C 
BRANCH  30  31
ATOM     31  C   UNL     1       4.147   4.228  17.376  0.00  0.00    +0.000 C 
BRANCH  31  36
ATOM     32  C   UNL     1       7.973   6.998  18.352  0.00  0.00    +0.000 C 
ATOM     33  N   UNL     1       7.224   6.325  17.302  0.00  0.00    +0.000 NA
ATOM     34  C   UNL     1       5.851   6.853  17.197  0.00  0.00    +0.000 C 
ATOM     35  C   UNL     1       5.061   6.129  16.093  0.00  0.00    +0.000 C 
ATOM     36  N   UNL     1       4.997   4.660  16.255  0.00  0.00    +0.000 NA
ATOM     37  C   UNL     1       6.375   4.152  16.415  0.00  0.00    +0.000 C 
ATOM     38  C   UNL     1       7.188   4.870  17.516  0.00  0.00    +0.000 C 
ENDBRANCH  31  36
ENDBRANCH  30  31
ENDBRANCH  29  30
ENDBRANCH  28  29
ENDBRANCH  27  28
ENDBRANCH  26  27
ENDBRANCH  25  26
ENDBRANCH  24  25
ENDBRANCH  23  24
ENDBRANCH  22  23
ENDBRANCH  21  22
ENDBRANCH   1  21
TORSDOF 15
ENDMDL
MODEL 8
REMARK VINA RESULT:      -6.2      5.617      9.364
REMARK  Name = 
REMARK  16 active torsions:
REMARK  status: ('A' for Active; 'I' for Inactive)
REMARK    1  A    between atoms: C_1  and  N_2
REMARK    2  A    between atoms: N_5  and  C_6
REMARK    3  A    between atoms: C_6  and  C_7
REMARK    4  A    between atoms: C_7  and  C_8
REMARK    5  A    between atoms: C_8  and  C_9
REMARK    6  A    between atoms: C_9  and  C_10
REMARK    7  A    between atoms: C_10  and  C_11
REMARK    8  A    between atoms: C_11  and  C_12
REMARK    9  A    between atoms: C_12  and  C_13
REMARK   10  A    between atoms: C_13  and  C_14
REMARK   11  A    between atoms: C_14  and  C_15
REMARK   12  A    between atoms: C_15  and  C_16
REMARK   13  A    between atoms: C_16  and  C_17
REMARK   14  A    between atoms: C_17  and  N_18
REMARK   15  A    between atoms: N_21  and  C_22
REMARK   16  A    between atoms: C_22  and  C_23
REMARK                            x       y       z     vdW  Elec       q    Type
REMARK                         _______ _______ _______ _____ _____    ______ ____
ROOT
ATOM      1  C   UNL     1       6.509   6.398  16.506  0.00  0.00    +0.000 C 
ENDROOT
BRANCH   1   2
ATOM      2  N   UNL     1       5.221   5.892  16.952  0.00  0.00    +0.000 N 
ATOM      3  C   UNL     1       4.835   4.624  16.963  0.00  0.00    +0.000 A 
ATOM      4  N   UNL     1       5.567   3.604  16.516  0.00  0.00    +0.000 N 
ATOM      5  N   UNL     1       3.601   4.542  17.434  0.00  0.00    +0.000 N 
ATOM      6  C   UNL     1       3.117   5.830  17.672  0.00  0.00    +0.000 A 
ATOM      7  C   UNL     1       1.869   6.294  18.081  0.00  0.00    +0.000 A 
ATOM      8  C   UNL     1       1.718   7.688  18.137  0.00  0.00    +0.000 A 
ATOM      9  C   UNL     1       2.770   8.563  17.800  0.00  0.00    +0.000 A 
ATOM     10  C   UNL     1       4.021   8.083  17.397  0.00  0.00    +0.000 A 
ATOM     11  C   UNL     1       4.156   6.699  17.344  0.00  0.00    +0.000 A 
ATOM     12  H   UNL     1       6.499   3.748  16.160  0.00  0.00    +0.000 HD
ATOM     13  H   UNL     1       5.181   2.674  16.445  0.00  0.00    +0.000 HD
BRANCH   5  14
ATOM     14  C   UNL     1       2.844   3.316  17.623  0.00  0.00    +0.000 C 
BRANCH  14  15
ATOM     15  C   UNL     1       2.467   3.122  19.070  0.00  0.00    +0.000 A 
ATOM     16  C   UNL     1       3.395   2.825  20.083  0.00  0.00    +0.000 A 
ATOM     17  C   UNL     1       2.970   2.517  21.376  0.00  0.00    +0.000 A 
ATOM     18  C   UNL     1       1.614   2.541  21.686  0.00  0.00    +0.000 A 
ATOM     19  C   UNL     1       0.686   2.903  20.715  0.00  0.00    +0.000 A 
ATOM     20  C   UNL     1       1.107   3.194  19.417  0.00  0.00    +0.000 A 
ENDBRANCH  14  15
ENDBRANCH   5  14
ENDBRANCH   1   2
BRANCH   1  21
ATOM     21  C   UNL     1       7.606   5.888  17.430  0.00  0.00    +0.000 C 
BRANCH  21  22
ATOM     22  C   UNL     1       8.057   6.988  18.372  0.00  0.00    +0.000 C 
BRANCH  22  23
ATOM     23  C   UNL     1       8.007   8.350  17.685  0.00  0.00    +0.000 C 
BRANCH  23  24
ATOM     24  C   UNL     1       8.435   9.476  18.618  0.00  0.00    +0.000 C 
BRANCH  24  25
ATOM     25  C   UNL     1       9.270  10.517  17.886  0.00  0.00    +0.000 C 
BRANCH  25  26
ATOM     26  C   UNL     1      10.142  11.297  18.848  0.00  0.00    +0.000 C 
BRANCH  26  27
ATOM     27  C   UNL     1      10.980  12.292  18.064  0.00  0.00    +0.000 C 
BRANCH  27  28
ATOM     28  C   UNL     1      10.923  13.649  18.736  0.00  0.00    +0.000 C 
BRANCH  28  29
ATOM     29  C   UNL     1      11.066  13.490  20.237  0.00  0.00    +0.000 C 
BRANCH  29  30
ATOM     30  C   UNL     1      10.677  14.787  20.934  0.00  0.00    +0.000 C 
BRANCH  30  31
ATOM     31  C   UNL     1      10.011  15.768  19.971  0.00  0.00    +0.000 C 
BRANCH  31  36
ATOM     32  C   UNL     1       5.664  15.063  18.005  0.00  0.00    +0.000 C 
ATOM     33  N   UNL     1       6.402  15.747  19.057  0.00  0.00    +0.000 NA
ATOM     34  C   UNL     1       7.399  16.678  18.498  0.00  0.00    +0.000 C 
ATOM     35  C   UNL     1       8.183  17.388  19.615  0.00  0.00    +0.000 C 
ATOM     36  N   UNL     1       8.860  16.472  20.559  0.00  0.00    +0.000 NA
ATOM     37  C   UNL     1       7.861  15.510  21.067  0.00  0.00    +0.000 C 
ATOM     38  C   UNL     1       7.059  14.790  19.960  0.00  0.00    +0.000 C 
ENDBRANCH  31  36
ENDBRANCH  30  31
ENDBRANCH  29  30
ENDBRANCH  28  29
ENDBRANCH  27  28
ENDBRANCH  26  27
ENDBRANCH  25  26
ENDBRANCH  24  25
ENDBRANCH  23  24
ENDBRANCH  22  23
ENDBRANCH  21  22
ENDBRANCH   1  21
TORSDOF 15
ENDMDL
MODEL 9
REMARK VINA RESULT:      -6.2      1.866      3.910
REMARK  Name = 
REMARK  16 active torsions:
REMARK  status: ('A' for Active; 'I' for Inactive)
REMARK    1  A    between atoms: C_1  and  N_2
REMARK    2  A    between atoms: N_5  and  C_6
REMARK    3  A    between atoms: C_6  and  C_7
REMARK    4  A    between atoms: C_7  and  C_8
REMARK    5  A    between atoms: C_8  and  C_9
REMARK    6  A    between atoms: C_9  and  C_10
REMARK    7  A    between atoms: C_10  and  C_11
REMARK    8  A    between atoms: C_11  and  C_12
REMARK    9  A    between atoms: C_12  and  C_13
REMARK   10  A    between atoms: C_13  and  C_14
REMARK   11  A    between atoms: C_14  and  C_15
REMARK   12  A    between atoms: C_15  and  C_16
REMARK   13  A    between atoms: C_16  and  C_17
REMARK   14  A    between atoms: C_17  and  N_18
REMARK   15  A    between atoms: N_21  and  C_22
REMARK   16  A    between atoms: C_22  and  C_23
REMARK                            x       y       z     vdW  Elec       q    Type
REMARK                         _______ _______ _______ _____ _____    ______ ____
ROOT
ATOM      1  C   UNL     1       1.388  10.341  18.552  0.00  0.00    +0.000 C 
ENDROOT
BRANCH   1   2
ATOM      2  N   UNL     1       0.191  11.132  18.787  0.00  0.00    +0.000 N 
ATOM      3  C   UNL     1       0.082  12.169  19.605  0.00  0.00    +0.000 A 
ATOM      4  N   UNL     1       1.061  12.627  20.386  0.00  0.00    +0.000 N 
ATOM      5  N   UNL     1      -1.154  12.638  19.560  0.00  0.00    +0.000 N 
ATOM      6  C   UNL     1      -1.924  11.819  18.731  0.00  0.00    +0.000 A 
ATOM      7  C   UNL     1      -3.281  11.823  18.419  0.00  0.00    +0.000 A 
ATOM      8  C   UNL     1      -3.727  10.778  17.597  0.00  0.00    +0.000 A 
ATOM      9  C   UNL     1      -2.851   9.786  17.114  0.00  0.00    +0.000 A 
ATOM     10  C   UNL     1      -1.488   9.798  17.429  0.00  0.00    +0.000 A 
ATOM     11  C   UNL     1      -1.058  10.839  18.248  0.00  0.00    +0.000 A 
ATOM     12  H   UNL     1       1.978  12.208  20.371  0.00  0.00    +0.000 HD
ATOM     13  H   UNL     1       0.890  13.349  21.069  0.00  0.00    +0.000 HD
BRANCH   5  14
ATOM     14  C   UNL     1      -1.654  13.787  20.298  0.00  0.00    +0.000 C 
BRANCH  14  15
ATOM     15  C   UNL     1      -2.429  13.359  21.519  0.00  0.00    +0.000 A 
ATOM     16  C   UNL     1      -1.850  12.697  22.615  0.00  0.00    +0.000 A 
ATOM     17  C   UNL     1      -2.641  12.202  23.652  0.00  0.00    +0.000 A 
ATOM     18  C   UNL     1      -4.018  12.394  23.628  0.00  0.00    +0.000 A 
ATOM     19  C   UNL     1      -4.602  13.109  22.587  0.00  0.00    +0.000 A 
ATOM     20  C   UNL     1      -3.815  13.591  21.541  0.00  0.00    +0.000 A 
ENDBRANCH  14  15
ENDBRANCH   5  14
ENDBRANCH   1   2
BRANCH   1  21
ATOM     21  C   UNL     1       1.285   9.022  19.304  0.00  0.00    +0.000 C 
BRANCH  21  22
ATOM     22  C   UNL     1       1.905   7.901  18.492  0.00  0.00    +0.000 C 
BRANCH  22  23
ATOM     23  C   UNL     1       2.708   6.959  19.384  0.00  0.00    +0.000 C 
BRANCH  23  24
ATOM     24  C   UNL     1       2.004   6.688  20.708  0.00  0.00    +0.000 C 
BRANCH  24  25
ATOM     25  C   UNL     1       0.963   5.585  20.568  0.00  0.00    +0.000 C 
BRANCH  25  26
ATOM     26  C   UNL     1       1.536   4.377  19.857  0.00  0.00    +0.000 C 
BRANCH  26  27
ATOM     27  C   UNL     1       2.293   3.523  20.860  0.00  0.00    +0.000 C 
BRANCH  27  28
ATOM     28  C   UNL     1       3.342   2.699  20.141  0.00  0.00    +0.000 C 
BRANCH  28  29
ATOM     29  C   UNL     1       2.928   2.480  18.698  0.00  0.00    +0.000 C 
BRANCH  29  30
ATOM     30  C   UNL     1       4.089   2.814  17.770  0.00  0.00    +0.000 C 
BRANCH  30  31
ATOM     31  C   UNL     1       3.931   4.198  17.144  0.00  0.00    +0.000 C 
BRANCH  31  36
ATOM     32  C   UNL     1       7.222   4.959  13.701  0.00  0.00    +0.000 C 
ATOM     33  N   UNL     1       6.817   5.290  15.060  0.00  0.00    +0.000 NA
ATOM     34  C   UNL     1       6.818   4.097  15.927  0.00  0.00    +0.000 C 
ATOM     35  C   UNL     1       6.377   4.452  17.358  0.00  0.00    +0.000 C 
ATOM     36  N   UNL     1       5.051   5.104  17.442  0.00  0.00    +0.000 NA
ATOM     37  C   UNL     1       5.048   6.263  16.525  0.00  0.00    +0.000 C 
ATOM     38  C   UNL     1       5.492   5.929  15.084  0.00  0.00    +0.000 C 
ENDBRANCH  31  36
ENDBRANCH  30  31
ENDBRANCH  29  30
ENDBRANCH  28  29
ENDBRANCH  27  28
ENDBRANCH  26  27
ENDBRANCH  25  26
ENDBRANCH  24  25
ENDBRANCH  23  24
ENDBRANCH  22  23
ENDBRANCH  21  22
ENDBRANCH   1  21
TORSDOF 15
ENDMDL
