MODEL 1
REMARK VINA RESULT:      -5.3      0.000      0.000
REMARK  Name = 
REMARK  5 active torsions:
REMARK  status: ('A' for Active; 'I' for Inactive)
REMARK    1  A    between atoms: N_1  and  C_2
REMARK    2  A    between atoms: C_2  and  C_3
REMARK    3  A    between atoms: C_3  and  C_4
REMARK    4  A    between atoms: C_4  and  C_5
REMARK    5  A    between atoms: C_9  and  O_10
REMARK                            x       y       z     vdW  Elec       q    Type
REMARK                         _______ _______ _______ _____ _____    ______ ____
ROOT
ATOM      1  C   UNL     1       3.642   4.297  17.416  0.00  0.00    +0.000 A 
ATOM      2  C   UNL     1       2.296   4.557  17.708  0.00  0.00    +0.000 A 
ATOM      3  C   UNL     1       1.471   3.546  18.207  0.00  0.00    +0.000 A 
ATOM      4  C   UNL     1       1.982   2.265  18.424  0.00  0.00    +0.000 A 
ATOM      5  C   UNL     1       3.318   2.008  18.138  0.00  0.00    +0.000 A 
ATOM      6  C   UNL     1       4.145   3.008  17.639  0.00  0.00    +0.000 A 
ENDROOT
BRANCH   5   7
ATOM      7  O   UNL     1       3.866   0.777  18.340  0.00  0.00    +0.000 OA
ATOM      8  H   UNL     1       4.389   0.803  19.157  0.00  0.00    +0.000 HD
ENDBRANCH   5   7
BRANCH   1   9
ATOM      9  C   UNL     1       4.546   5.390  16.898  0.00  0.00    +0.000 C 
BRANCH   9  10
ATOM     10  C   UNL     1       5.361   4.949  15.678  0.00  0.00    +0.000 C 
BRANCH  10  11
ATOM     11  C   UNL     1       6.848   4.859  16.012  0.00  0.00    +0.000 C 
BRANCH  11  12
ATOM     12  N   UNL     1       7.388   6.192  16.251  0.00  0.00    +0.000 NA
ATOM     13  H   UNL     1       6.822   6.669  16.954  0.00  0.00    +0.000 HD
ATOM     14  H   UNL     1       7.323   6.749  15.401  0.00  0.00    +0.000 HD
ENDBRANCH  11  12
ENDBRANCH  10  11
ENDBRANCH   9  10
ENDBRANCH   1   9
TORSDOF 5
ENDMDL
MODEL 2
REMARK VINA RESULT:      -5.3      2.151      2.557
REMARK  Name = 
REMARK  5 active torsions:
REMARK  status: ('A' for Active; 'I' for Inactive)
REMARK    1  A    between atoms: N_1  and  C_2
REMARK    2  A    between atoms: C_2  and  C_3
REMARK    3  A    between atoms: C_3  and  C_4
REMARK    4  A    between atoms: C_4  and  C_5
REMARK    5  A    between atoms: C_9  and  O_10
REMARK                            x       y       z     vdW  Elec       q    Type
REMARK                         _______ _______ _______ _____ _____    ______ ____
ROOT
ATOM      1  C   UNL     1       2.421   5.052  18.616  0.00  0.00    +0.000 A 
ATOM      2  C   UNL     1       2.146   5.346  19.958  0.00  0.00    +0.000 A 
ATOM      3  C   UNL     1       1.387   4.468  20.735  0.00  0.00    +0.000 A 
ATOM      4  C   UNL     1       0.897   3.284  20.182  0.00  0.00    +0.000 A 
ATOM      5  C   UNL     1       1.173   2.991  18.850  0.00  0.00    +0.000 A 
ATOM      6  C   UNL     1       1.925   3.860  18.070  0.00  0.00    +0.000 A 
ENDROOT
BRANCH   5   7
ATOM      7  O   UNL     1       0.725   1.844  18.266  0.00  0.00    +0.000 OA
ATOM      8  H   UNL     1       0.947   1.872  17.322  0.00  0.00    +0.000 HD
ENDBRANCH   5   7
BRANCH   1   9
ATOM      9  C   UNL     1       3.259   5.986  17.776  0.00  0.00    +0.000 C 
BRANCH   9  10
ATOM     10  C   UNL     1       4.536   5.319  17.253  0.00  0.00    +0.000 C 
BRANCH  10  11
ATOM     11  C   UNL     1       5.600   5.234  18.345  0.00  0.00    +0.000 C 
BRANCH  11  12
ATOM     12  N   UNL     1       5.830   3.841  18.711  0.00  0.00    +0.000 NA
ATOM     13  H   UNL     1       6.701   3.517  18.290  0.00  0.00    +0.000 HD
ATOM     14  H   UNL     1       5.089   3.257  18.328  0.00  0.00    +0.000 HD
ENDBRANCH  11  12
ENDBRANCH  10  11
ENDBRANCH   9  10
ENDBRANCH   1   9
TORSDOF 5
ENDMDL
MODEL 3
REMARK VINA RESULT:      -5.3      3.195      4.830
REMARK  Name = 
REMARK  5 active torsions:
REMARK  status: ('A' for Active; 'I' for Inactive)
REMARK    1  A    between atoms: N_1  and  C_2
REMARK    2  A    between atoms: C_2  and  C_3
REMARK    3  A    between atoms: C_3  and  C_4
REMARK    4  A    between atoms: C_4  and  C_5
REMARK    5  A    between atoms: C_9  and  O_10
REMARK                            x       y       z     vdW  Elec       q    Type
REMARK                         _______ _______ _______ _____ _____    ______ ____
ROOT
ATOM      1  C   UNL     1       2.654   4.515  18.441  0.00  0.00    +0.000 A 
ATOM      2  C   UNL     1       2.610   5.844  17.998  0.00  0.00    +0.000 A 
ATOM      3  C   UNL     1       3.790   6.537  17.715  0.00  0.00    +0.000 A 
ATOM      4  C   UNL     1       5.027   5.910  17.867  0.00  0.00    +0.000 A 
ATOM      5  C   UNL     1       5.071   4.590  18.304  0.00  0.00    +0.000 A 
ATOM      6  C   UNL     1       3.902   3.894  18.590  0.00  0.00    +0.000 A 
ENDROOT
BRANCH   5   7
ATOM      7  O   UNL     1       6.253   3.931  18.461  0.00  0.00    +0.000 OA
ATOM      8  H   UNL     1       6.839   4.475  19.009  0.00  0.00    +0.000 HD
ENDBRANCH   5   7
BRANCH   1   9
ATOM      9  C   UNL     1       1.384   3.752  18.727  0.00  0.00    +0.000 C 
BRANCH   9  10
ATOM     10  C   UNL     1       0.909   3.922  20.174  0.00  0.00    +0.000 C 
BRANCH  10  11
ATOM     11  C   UNL     1       1.290   2.712  21.024  0.00  0.00    +0.000 C 
BRANCH  11  12
ATOM     12  N   UNL     1       2.204   3.116  22.087  0.00  0.00    +0.000 NA
ATOM     13  H   UNL     1       3.091   3.412  21.679  0.00  0.00    +0.000 HD
ATOM     14  H   UNL     1       2.412   2.318  22.685  0.00  0.00    +0.000 HD
ENDBRANCH  11  12
ENDBRANCH  10  11
ENDBRANCH   9  10
ENDBRANCH   1   9
TORSDOF 5
ENDMDL
MODEL 4
REMARK VINA RESULT:      -5.2      2.378      2.824
REMARK  Name = 
REMARK  5 active torsions:
REMARK  status: ('A' for Active; 'I' for Inactive)
REMARK    1  A    between atoms: N_1  and  C_2
REMARK    2  A    between atoms: C_2  and  C_3
REMARK    3  A    between atoms: C_3  and  C_4
REMARK    4  A    between atoms: C_4  and  C_5
REMARK    5  A    between atoms: C_9  and  O_10
REMARK                            x       y       z     vdW  Elec       q    Type
REMARK                         _______ _______ _______ _____ _____    ______ ____
ROOT
ATOM      1  C   UNL     1       2.327   4.720  18.811  0.00  0.00    +0.000 A 
ATOM      2  C   UNL     1       1.494   3.809  18.148  0.00  0.00    +0.000 A 
ATOM      3  C   UNL     1       0.903   2.751  18.843  0.00  0.00    +0.000 A 
ATOM      4  C   UNL     1       1.134   2.594  20.210  0.00  0.00    +0.000 A 
ATOM      5  C   UNL     1       1.958   3.499  20.870  0.00  0.00    +0.000 A 
ATOM      6  C   UNL     1       2.552   4.553  20.185  0.00  0.00    +0.000 A 
ENDROOT
BRANCH   5   7
ATOM      7  O   UNL     1       2.208   3.393  22.205  0.00  0.00    +0.000 OA
ATOM      8  H   UNL     1       1.384   3.149  22.655  0.00  0.00    +0.000 HD
ENDBRANCH   5   7
BRANCH   1   9
ATOM      9  C   UNL     1       2.951   5.878  18.072  0.00  0.00    +0.000 C 
BRANCH   9  10
ATOM     10  C   UNL     1       4.480   5.882  18.168  0.00  0.00    +0.000 C 
BRANCH  10  11
ATOM     11  C   UNL     1       5.076   4.631  17.526  0.00  0.00    +0.000 C 
BRANCH  11  12
ATOM     12  N   UNL     1       5.935   3.941  18.482  0.00  0.00    +0.000 NA
ATOM     13  H   UNL     1       6.632   3.391  17.978  0.00  0.00    +0.000 HD
ATOM     14  H   UNL     1       5.385   3.281  19.027  0.00  0.00    +0.000 HD
ENDBRANCH  11  12
ENDBRANCH  10  11
ENDBRANCH   9  10
ENDBRANCH   1   9
TORSDOF 5
ENDMDL
MODEL 5
REMARK VINA RESULT:      -5.1      1.526      1.816
REMARK  Name = 
REMARK  5 active torsions:
REMARK  status: ('A' for Active; 'I' for Inactive)
REMARK    1  A    between atoms: N_1  and  C_2
REMARK    2  A    between atoms: C_2  and  C_3
REMARK    3  A    between atoms: C_3  and  C_4
REMARK    4  A    between atoms: C_4  and  C_5
REMARK    5  A    between atoms: C_9  and  O_10
REMARK                            x       y       z     vdW  Elec       q    Type
REMARK                         _______ _______ _______ _____ _____    ______ ____
ROOT
ATOM      1  C   UNL     1       4.406   4.654  17.071  0.00  0.00    +0.000 A 
ATOM      2  C   UNL     1       3.574   5.665  17.569  0.00  0.00    +0.000 A 
ATOM      3  C   UNL     1       2.322   5.354  18.104  0.00  0.00    +0.000 A 
ATOM      4  C   UNL     1       1.888   4.029  18.152  0.00  0.00    +0.000 A 
ATOM      5  C   UNL     1       2.715   3.024  17.660  0.00  0.00    +0.000 A 
ATOM      6  C   UNL     1       3.961   3.325  17.124  0.00  0.00    +0.000 A 
ENDROOT
BRANCH   5   7
ATOM      7  O   UNL     1       2.341   1.714  17.692  0.00  0.00    +0.000 OA
ATOM      8  H   UNL     1       2.941   1.208  17.122  0.00  0.00    +0.000 HD
ENDBRANCH   5   7
BRANCH   1   9
ATOM      9  C   UNL     1       5.770   4.979  16.511  0.00  0.00    +0.000 C 
BRANCH   9  10
ATOM     10  C   UNL     1       6.527   6.001  17.365  0.00  0.00    +0.000 C 
BRANCH  10  11
ATOM     11  C   UNL     1       7.506   5.311  18.312  0.00  0.00    +0.000 C 
BRANCH  11  12
ATOM     12  N   UNL     1       8.090   4.143  17.662  0.00  0.00    +0.000 NA
ATOM     13  H   UNL     1       8.691   4.445  16.894  0.00  0.00    +0.000 HD
ATOM     14  H   UNL     1       7.354   3.575  17.248  0.00  0.00    +0.000 HD
ENDBRANCH  11  12
ENDBRANCH  10  11
ENDBRANCH   9  10
ENDBRANCH   1   9
TORSDOF 5
ENDMDL
MODEL 6
REMARK VINA RESULT:      -5.1      2.251      2.642
REMARK  Name = 
REMARK  5 active torsions:
REMARK  status: ('A' for Active; 'I' for Inactive)
REMARK    1  A    between atoms: N_1  and  C_2
REMARK    2  A    between atoms: C_2  and  C_3
REMARK    3  A    between atoms: C_3  and  C_4
REMARK    4  A    between atoms: C_4  and  C_5
REMARK    5  A    between atoms: C_9  and  O_10
REMARK                            x       y       z     vdW  Elec       q    Type
REMARK                         _______ _______ _______ _____ _____    ______ ____
ROOT
ATOM      1  C   UNL     1       2.737   4.693  18.317  0.00  0.00    +0.000 A 
ATOM      2  C   UNL     1       2.912   3.640  17.409  0.00  0.00    +0.000 A 
ATOM      3  C   UNL     1       2.291   2.407  17.624  0.00  0.00    +0.000 A 
ATOM      4  C   UNL     1       1.485   2.213  18.746  0.00  0.00    +0.000 A 
ATOM      5  C   UNL     1       1.309   3.258  19.647  0.00  0.00    +0.000 A 
ATOM      6  C   UNL     1       1.925   4.487  19.441  0.00  0.00    +0.000 A 
ENDROOT
BRANCH   5   7
ATOM      7  O   UNL     1       0.526   3.121  20.753  0.00  0.00    +0.000 OA
ATOM      8  H   UNL     1      -0.403   3.199  20.485  0.00  0.00    +0.000 HD
ENDBRANCH   5   7
BRANCH   1   9
ATOM      9  C   UNL     1       3.386   6.035  18.080  0.00  0.00    +0.000 C 
BRANCH   9  10
ATOM     10  C   UNL     1       4.883   5.919  17.776  0.00  0.00    +0.000 C 
BRANCH  10  11
ATOM     11  C   UNL     1       5.651   5.384  18.983  0.00  0.00    +0.000 C 
BRANCH  11  12
ATOM     12  N   UNL     1       6.324   4.138  18.635  0.00  0.00    +0.000 NA
ATOM     13  H   UNL     1       7.316   4.212  18.861  0.00  0.00    +0.000 HD
ATOM     14  H   UNL     1       6.268   3.984  17.630  0.00  0.00    +0.000 HD
ENDBRANCH  11  12
ENDBRANCH  10  11
ENDBRANCH   9  10
ENDBRANCH   1   9
TORSDOF 5
ENDMDL
MODEL 7
REMARK VINA RESULT:      -5.1      2.726      2.934
REMARK  Name = 
REMARK  5 active torsions:
REMARK  status: ('A' for Active; 'I' for Inactive)
REMARK    1  A    between atoms: N_1  and  C_2
REMARK    2  A    between atoms: C_2  and  C_3
REMARK    3  A    between atoms: C_3  and  C_4
REMARK    4  A    between atoms: C_4  and  C_5
REMARK    5  A    between atoms: C_9  and  O_10
REMARK                            x       y       z     vdW  Elec       q    Type
REMARK                         _______ _______ _______ _____ _____    ______ ____
ROOT
ATOM      1  C   UNL     1       3.202   4.669  19.263  0.00  0.00    +0.000 A 
ATOM      2  C   UNL     1       2.613   4.444  18.012  0.00  0.00    +0.000 A 
ATOM      3  C   UNL     1       1.455   3.669  17.903  0.00  0.00    +0.000 A 
ATOM      4  C   UNL     1       0.870   3.115  19.042  0.00  0.00    +0.000 A 
ATOM      5  C   UNL     1       1.454   3.340  20.284  0.00  0.00    +0.000 A 
ATOM      6  C   UNL     1       2.607   4.108  20.402  0.00  0.00    +0.000 A 
ENDROOT
BRANCH   5   7
ATOM      7  O   UNL     1       0.917   2.828  21.427  0.00  0.00    +0.000 OA
ATOM      8  H   UNL     1      -0.048   2.805  21.331  0.00  0.00    +0.000 HD
ENDBRANCH   5   7
BRANCH   1   9
ATOM      9  C   UNL     1       4.440   5.523  19.393  0.00  0.00    +0.000 C 
BRANCH   9  10
ATOM     10  C   UNL     1       5.727   4.738  19.120  0.00  0.00    +0.000 C 
BRANCH  10  11
ATOM     11  C   UNL     1       6.938   5.666  19.066  0.00  0.00    +0.000 C 
BRANCH  11  12
ATOM     12  N   UNL     1       7.797   5.435  20.222  0.00  0.00    +0.000 NA
ATOM     13  H   UNL     1       8.490   6.181  20.286  0.00  0.00    +0.000 HD
ATOM     14  H   UNL     1       8.316   4.568  20.099  0.00  0.00    +0.000 HD
ENDBRANCH  11  12
ENDBRANCH  10  11
ENDBRANCH   9  10
ENDBRANCH   1   9
TORSDOF 5
ENDMDL
MODEL 8
REMARK VINA RESULT:      -5.1      3.563      5.189
REMARK  Name = 
REMARK  5 active torsions:
REMARK  status: ('A' for Active; 'I' for Inactive)
REMARK    1  A    between atoms: N_1  and  C_2
REMARK    2  A    between atoms: C_2  and  C_3
REMARK    3  A    between atoms: C_3  and  C_4
REMARK    4  A    between atoms: C_4  and  C_5
REMARK    5  A    between atoms: C_9  and  O_10
REMARK                            x       y       z     vdW  Elec       q    Type
REMARK                         _______ _______ _______ _____ _____    ______ ____
ROOT
ATOM      1  C   UNL     1       5.204   5.638  18.197  0.00  0.00    +0.000 A 
ATOM      2  C   UNL     1       5.729   6.514  17.238  0.00  0.00    +0.000 A 
ATOM      3  C   UNL     1       7.032   7.004  17.362  0.00  0.00    +0.000 A 
ATOM      4  C   UNL     1       7.826   6.620  18.443  0.00  0.00    +0.000 A 
ATOM      5  C   UNL     1       7.307   5.748  19.393  0.00  0.00    +0.000 A 
ATOM      6  C   UNL     1       6.011   5.258  19.279  0.00  0.00    +0.000 A 
ENDROOT
BRANCH   5   7
ATOM      7  O   UNL     1       8.045   5.337  20.462  0.00  0.00    +0.000 OA
ATOM      8  H   UNL     1       8.154   4.374  20.409  0.00  0.00    +0.000 HD
ENDBRANCH   5   7
BRANCH   1   9
ATOM      9  C   UNL     1       3.806   5.087  18.058  0.00  0.00    +0.000 C 
BRANCH   9  10
ATOM     10  C   UNL     1       2.734   6.180  18.118  0.00  0.00    +0.000 C 
BRANCH  10  11
ATOM     11  C   UNL     1       2.603   6.748  19.529  0.00  0.00    +0.000 C 
BRANCH  11  12
ATOM     12  N   UNL     1       2.410   5.666  20.487  0.00  0.00    +0.000 NA
ATOM     13  H   UNL     1       2.270   4.788  19.986  0.00  0.00    +0.000 HD
ATOM     14  H   UNL     1       1.562   5.829  21.026  0.00  0.00    +0.000 HD
ENDBRANCH  11  12
ENDBRANCH  10  11
ENDBRANCH   9  10
ENDBRANCH   1   9
TORSDOF 5
ENDMDL
MODEL 9
REMARK VINA RESULT:      -5.1      1.223      1.338
REMARK  Name = 
REMARK  5 active torsions:
REMARK  status: ('A' for Active; 'I' for Inactive)
REMARK    1  A    between atoms: N_1  and  C_2
REMARK    2  A    between atoms: C_2  and  C_3
REMARK    3  A    between atoms: C_3  and  C_4
REMARK    4  A    between atoms: C_4  and  C_5
REMARK    5  A    between atoms: C_9  and  O_10
REMARK                            x       y       z     vdW  Elec       q    Type
REMARK                         _______ _______ _______ _____ _____    ______ ____
ROOT
ATOM      1  C   UNL     1       3.989   4.328  17.787  0.00  0.00    +0.000 A 
ATOM      2  C   UNL     1       2.855   3.704  17.250  0.00  0.00    +0.000 A 
ATOM      3  C   UNL     1       2.457   2.444  17.704  0.00  0.00    +0.000 A 
ATOM      4  C   UNL     1       3.183   1.796  18.703  0.00  0.00    +0.000 A 
ATOM      5  C   UNL     1       4.307   2.416  19.239  0.00  0.00    +0.000 A 
ATOM      6  C   UNL     1       4.712   3.668  18.791  0.00  0.00    +0.000 A 
ENDROOT
BRANCH   5   7
ATOM      7  O   UNL     1       5.045   1.827  20.221  0.00  0.00    +0.000 OA
ATOM      8  H   UNL     1       4.982   2.372  21.022  0.00  0.00    +0.000 HD
ENDBRANCH   5   7
BRANCH   1   9
ATOM      9  C   UNL     1       4.413   5.698  17.318  0.00  0.00    +0.000 C 
BRANCH   9  10
ATOM     10  C   UNL     1       5.216   5.651  16.013  0.00  0.00    +0.000 C 
BRANCH  10  11
ATOM     11  C   UNL     1       6.708   5.486  16.289  0.00  0.00    +0.000 C 
BRANCH  11  12
ATOM     12  N   UNL     1       7.441   5.392  15.032  0.00  0.00    +0.000 NA
ATOM     13  H   UNL     1       8.361   5.821  15.140  0.00  0.00    +0.000 HD
ATOM     14  H   UNL     1       6.958   5.923  14.310  0.00  0.00    +0.000 HD
ENDBRANCH  11  12
ENDBRANCH  10  11
ENDBRANCH   9  10
ENDBRANCH   1   9
TORSDOF 5
ENDMDL
