MODEL 1
REMARK VINA RESULT:      -7.4      0.000      0.000
REMARK  Name = 
REMARK  6 active torsions:
REMARK  status: ('A' for Active; 'I' for Inactive)
REMARK    1  A    between atoms: O_1  and  C_2
REMARK    2  A    between atoms: C_2  and  C_3
REMARK    3  A    between atoms: C_5  and  C_6
REMARK    4  A    between atoms: C_11  and  O_12
REMARK    5  A    between atoms: C_17  and  O_18
REMARK    6  A    between atoms: C_19  and  O_20
REMARK                            x       y       z     vdW  Elec       q    Type
REMARK                         _______ _______ _______ _____ _____    ______ ____
ROOT
ATOM      1  C   UNK     1       3.665   2.663  19.529  0.00  0.00    +0.000 C 
ATOM      2  N   UNK     1       5.095   3.004  19.321  0.00  0.00    +0.000 NA
ATOM      3  C   UNK     1       5.216   4.475  19.336  0.00  0.00    +0.000 C 
ATOM      4  C   UNK     1       3.791   5.062  19.419  0.00  0.00    +0.000 C 
ATOM      5  C   UNK     1       3.013   3.929  20.094  0.00  0.00    +0.000 C 
ATOM      6  H   UNK     1       5.386   2.599  18.429  0.00  0.00    +0.000 HD
ENDROOT
BRANCH   3   7
ATOM      7  C   UNK     1       6.083   4.943  18.213  0.00  0.00    +0.000 A 
ATOM      8  C   UNK     1       7.187   5.761  18.299  0.00  0.00    +0.000 A 
ATOM      9  F   UNK     1       7.653   6.293  19.396  0.00  0.00    +0.000 F 
ATOM     10  N   UNK     1       7.741   5.935  17.062  0.00  0.00    +0.000 N 
ATOM     11  C   UNK     1       7.006   5.243  16.135  0.00  0.00    +0.000 A 
ATOM     12  C   UNK     1       7.093   5.058  14.770  0.00  0.00    +0.000 A 
ATOM     13  N   UNK     1       6.187   4.293  14.151  0.00  0.00    +0.000 NA
ATOM     14  C   UNK     1       5.216   3.748  14.898  0.00  0.00    +0.000 A 
ATOM     15  N   UNK     1       5.027   3.880  16.220  0.00  0.00    +0.000 NA
ATOM     16  C   UNK     1       5.969   4.631  16.828  0.00  0.00    +0.000 A 
ATOM     17  H   UNK     1       8.567   6.487  16.887  0.00  0.00    +0.000 HD
BRANCH  12  18
ATOM     18  O   UNK     1       8.055   5.599  13.964  0.00  0.00    +0.000 OA
ATOM     19  H   UNK     1       7.691   5.694  13.072  0.00  0.00    +0.000 HD
ENDBRANCH  12  18
ENDBRANCH   3   7
BRANCH   4  20
ATOM     20  O   UNK     1       3.133   5.372  18.180  0.00  0.00    +0.000 OA
ATOM     21  H   UNK     1       3.761   5.863  17.611  0.00  0.00    +0.000 HD
ENDBRANCH   4  20
BRANCH   5  22
ATOM     22  O   UNK     1       1.617   4.024  19.833  0.00  0.00    +0.000 OA
ATOM     23  H   UNK     1       1.286   3.101  19.859  0.00  0.00    +0.000 HD
ENDBRANCH   5  22
BRANCH   1  24
ATOM     24  C   UNK     1       2.997   2.129  18.245  0.00  0.00    +0.000 C 
BRANCH  24  25
ATOM     25  O   UNK     1       1.788   1.444  18.575  0.00  0.00    +0.000 OA
ATOM     26  H   UNK     1       1.761   0.642  18.025  0.00  0.00    +0.000 HD
ENDBRANCH  24  25
ENDBRANCH   1  24
TORSDOF 6
ENDMDL
MODEL 2
REMARK VINA RESULT:      -7.2      2.502      5.798
REMARK  Name = 
REMARK  6 active torsions:
REMARK  status: ('A' for Active; 'I' for Inactive)
REMARK    1  A    between atoms: O_1  and  C_2
REMARK    2  A    between atoms: C_2  and  C_3
REMARK    3  A    between atoms: C_5  and  C_6
REMARK    4  A    between atoms: C_11  and  O_12
REMARK    5  A    between atoms: C_17  and  O_18
REMARK    6  A    between atoms: C_19  and  O_20
REMARK                            x       y       z     vdW  Elec       q    Type
REMARK                         _______ _______ _______ _____ _____    ______ ____
ROOT
ATOM      1  C   UNK     1       6.618   4.400  16.761  0.00  0.00    +0.000 C 
ATOM      2  N   UNK     1       5.437   3.551  17.062  0.00  0.00    +0.000 NA
ATOM      3  C   UNK     1       4.232   4.396  16.956  0.00  0.00    +0.000 C 
ATOM      4  C   UNK     1       4.698   5.848  16.717  0.00  0.00    +0.000 C 
ATOM      5  C   UNK     1       6.065   5.646  16.060  0.00  0.00    +0.000 C 
ATOM      6  H   UNK     1       5.562   3.166  18.001  0.00  0.00    +0.000 HD
ENDROOT
BRANCH   3   7
ATOM      7  C   UNK     1       3.317   4.154  18.112  0.00  0.00    +0.000 A 
ATOM      8  C   UNK     1       2.034   4.629  18.271  0.00  0.00    +0.000 A 
ATOM      9  F   UNK     1       1.402   5.404  17.432  0.00  0.00    +0.000 F 
ATOM     10  N   UNK     1       1.503   4.162  19.440  0.00  0.00    +0.000 N 
ATOM     11  C   UNK     1       2.429   3.381  20.079  0.00  0.00    +0.000 A 
ATOM     12  C   UNK     1       2.446   2.668  21.262  0.00  0.00    +0.000 A 
ATOM     13  N   UNK     1       3.545   1.984  21.600  0.00  0.00    +0.000 NA
ATOM     14  C   UNK     1       4.595   2.039  20.769  0.00  0.00    +0.000 A 
ATOM     15  N   UNK     1       4.691   2.715  19.613  0.00  0.00    +0.000 NA
ATOM     16  C   UNK     1       3.562   3.372  19.276  0.00  0.00    +0.000 A 
ATOM     17  H   UNK     1       0.568   4.373  19.757  0.00  0.00    +0.000 HD
BRANCH  12  18
ATOM     18  O   UNK     1       1.408   2.589  22.146  0.00  0.00    +0.000 OA
ATOM     19  H   UNK     1       0.807   1.887  21.853  0.00  0.00    +0.000 HD
ENDBRANCH  12  18
ENDBRANCH   3   7
BRANCH   4  20
ATOM     20  O   UNK     1       4.882   6.680  17.874  0.00  0.00    +0.000 OA
ATOM     21  H   UNK     1       4.089   7.243  17.979  0.00  0.00    +0.000 HD
ENDBRANCH   4  20
BRANCH   5  22
ATOM     22  O   UNK     1       6.889   6.798  16.198  0.00  0.00    +0.000 OA
ATOM     23  H   UNK     1       7.019   6.908  17.164  0.00  0.00    +0.000 HD
ENDBRANCH   5  22
BRANCH   1  24
ATOM     24  C   UNK     1       7.456   4.706  18.020  0.00  0.00    +0.000 C 
BRANCH  24  25
ATOM     25  O   UNK     1       6.615   4.707  19.174  0.00  0.00    +0.000 OA
ATOM     26  H   UNK     1       5.755   4.351  18.895  0.00  0.00    +0.000 HD
ENDBRANCH  24  25
ENDBRANCH   1  24
TORSDOF 6
ENDMDL
MODEL 3
REMARK VINA RESULT:      -7.1      2.406      5.409
REMARK  Name = 
REMARK  6 active torsions:
REMARK  status: ('A' for Active; 'I' for Inactive)
REMARK    1  A    between atoms: O_1  and  C_2
REMARK    2  A    between atoms: C_2  and  C_3
REMARK    3  A    between atoms: C_5  and  C_6
REMARK    4  A    between atoms: C_11  and  O_12
REMARK    5  A    between atoms: C_17  and  O_18
REMARK    6  A    between atoms: C_19  and  O_20
REMARK                            x       y       z     vdW  Elec       q    Type
REMARK                         _______ _______ _______ _____ _____    ______ ____
ROOT
ATOM      1  C   UNK     1       6.136   5.150  15.912  0.00  0.00    +0.000 C 
ATOM      2  N   UNK     1       4.846   5.729  16.364  0.00  0.00    +0.000 NA
ATOM      3  C   UNK     1       4.915   5.903  17.828  0.00  0.00    +0.000 C 
ATOM      4  C   UNK     1       6.242   5.281  18.312  0.00  0.00    +0.000 C 
ATOM      5  C   UNK     1       7.122   5.383  17.063  0.00  0.00    +0.000 C 
ATOM      6  H   UNK     1       4.101   5.088  16.083  0.00  0.00    +0.000 HD
ENDROOT
BRANCH   3   7
ATOM      7  C   UNK     1       3.659   5.418  18.475  0.00  0.00    +0.000 A 
ATOM      8  C   UNK     1       2.794   6.146  19.262  0.00  0.00    +0.000 A 
ATOM      9  F   UNK     1       2.945   7.397  19.599  0.00  0.00    +0.000 F 
ATOM     10  N   UNK     1       1.735   5.368  19.639  0.00  0.00    +0.000 N 
ATOM     11  C   UNK     1       1.888   4.111  19.118  0.00  0.00    +0.000 A 
ATOM     12  C   UNK     1       1.150   2.944  19.166  0.00  0.00    +0.000 A 
ATOM     13  N   UNK     1       1.593   1.859  18.520  0.00  0.00    +0.000 NA
ATOM     14  C   UNK     1       2.756   1.957  17.861  0.00  0.00    +0.000 A 
ATOM     15  N   UNK     1       3.559   3.029  17.769  0.00  0.00    +0.000 NA
ATOM     16  C   UNK     1       3.078   4.120  18.401  0.00  0.00    +0.000 A 
ATOM     17  H   UNK     1       0.970   5.697  20.210  0.00  0.00    +0.000 HD
BRANCH  12  18
ATOM     18  O   UNK     1      -0.033   2.791  19.830  0.00  0.00    +0.000 OA
ATOM     19  H   UNK     1      -0.754   3.060  19.241  0.00  0.00    +0.000 HD
ENDBRANCH  12  18
ENDBRANCH   3   7
BRANCH   4  20
ATOM     20  O   UNK     1       6.214   3.904  18.720  0.00  0.00    +0.000 OA
ATOM     21  H   UNK     1       5.434   3.477  18.312  0.00  0.00    +0.000 HD
ENDBRANCH   4  20
BRANCH   5  22
ATOM     22  O   UNK     1       8.195   4.450  17.100  0.00  0.00    +0.000 OA
ATOM     23  H   UNK     1       7.976   3.776  16.421  0.00  0.00    +0.000 HD
ENDBRANCH   5  22
BRANCH   1  24
ATOM     24  C   UNK     1       6.000   3.672  15.489  0.00  0.00    +0.000 C 
BRANCH  24  25
ATOM     25  O   UNK     1       6.353   3.527  14.113  0.00  0.00    +0.000 OA
ATOM     26  H   UNK     1       6.258   2.584  13.897  0.00  0.00    +0.000 HD
ENDBRANCH  24  25
ENDBRANCH   1  24
TORSDOF 6
ENDMDL
MODEL 4
REMARK VINA RESULT:      -7.1      2.530      3.091
REMARK  Name = 
REMARK  6 active torsions:
REMARK  status: ('A' for Active; 'I' for Inactive)
REMARK    1  A    between atoms: O_1  and  C_2
REMARK    2  A    between atoms: C_2  and  C_3
REMARK    3  A    between atoms: C_5  and  C_6
REMARK    4  A    between atoms: C_11  and  O_12
REMARK    5  A    between atoms: C_17  and  O_18
REMARK    6  A    between atoms: C_19  and  O_20
REMARK                            x       y       z     vdW  Elec       q    Type
REMARK                         _______ _______ _______ _____ _____    ______ ____
ROOT
ATOM      1  C   UNK     1       2.625   2.602  19.841  0.00  0.00    +0.000 C 
ATOM      2  N   UNK     1       3.214   3.953  20.029  0.00  0.00    +0.000 NA
ATOM      3  C   UNK     1       2.567   4.867  19.067  0.00  0.00    +0.000 C 
ATOM      4  C   UNK     1       1.648   4.020  18.161  0.00  0.00    +0.000 C 
ATOM      5  C   UNK     1       1.326   2.821  19.057  0.00  0.00    +0.000 C 
ATOM      6  H   UNK     1       4.222   3.877  19.877  0.00  0.00    +0.000 HD
ENDROOT
BRANCH   3   7
ATOM      7  C   UNK     1       3.587   5.725  18.392  0.00  0.00    +0.000 A 
ATOM      8  C   UNK     1       3.378   6.946  17.789  0.00  0.00    +0.000 A 
ATOM      9  F   UNK     1       2.228   7.554  17.684  0.00  0.00    +0.000 F 
ATOM     10  N   UNK     1       4.560   7.444  17.316  0.00  0.00    +0.000 N 
ATOM     11  C   UNK     1       5.567   6.557  17.588  0.00  0.00    +0.000 A 
ATOM     12  C   UNK     1       6.928   6.532  17.354  0.00  0.00    +0.000 A 
ATOM     13  N   UNK     1       7.647   5.482  17.769  0.00  0.00    +0.000 NA
ATOM     14  C   UNK     1       6.997   4.487  18.387  0.00  0.00    +0.000 A 
ATOM     15  N   UNK     1       5.682   4.400  18.645  0.00  0.00    +0.000 NA
ATOM     16  C   UNK     1       4.982   5.482  18.246  0.00  0.00    +0.000 A 
ATOM     17  H   UNK     1       4.648   8.334  16.848  0.00  0.00    +0.000 HD
BRANCH  12  18
ATOM     18  O   UNK     1       7.633   7.515  16.721  0.00  0.00    +0.000 OA
ATOM     19  H   UNK     1       7.639   7.326  15.771  0.00  0.00    +0.000 HD
ENDBRANCH  12  18
ENDBRANCH   3   7
BRANCH   4  20
ATOM     20  O   UNK     1       2.209   3.519  16.937  0.00  0.00    +0.000 OA
ATOM     21  H   UNK     1       1.490   3.113  16.411  0.00  0.00    +0.000 HD
ENDBRANCH   4  20
BRANCH   5  22
ATOM     22  O   UNK     1       0.917   1.691  18.293  0.00  0.00    +0.000 OA
ATOM     23  H   UNK     1       0.022   1.915  17.959  0.00  0.00    +0.000 HD
ENDBRANCH   5  22
BRANCH   1  24
ATOM     24  C   UNK     1       3.610   1.622  19.169  0.00  0.00    +0.000 C 
BRANCH  24  25
ATOM     25  O   UNK     1       4.921   1.811  19.701  0.00  0.00    +0.000 OA
ATOM     26  H   UNK     1       4.942   2.704  20.086  0.00  0.00    +0.000 HD
ENDBRANCH  24  25
ENDBRANCH   1  24
TORSDOF 6
ENDMDL
MODEL 5
REMARK VINA RESULT:      -6.7      2.514      5.857
REMARK  Name = 
REMARK  6 active torsions:
REMARK  status: ('A' for Active; 'I' for Inactive)
REMARK    1  A    between atoms: O_1  and  C_2
REMARK    2  A    between atoms: C_2  and  C_3
REMARK    3  A    between atoms: C_5  and  C_6
REMARK    4  A    between atoms: C_11  and  O_12
REMARK    5  A    between atoms: C_17  and  O_18
REMARK    6  A    between atoms: C_19  and  O_20
REMARK                            x       y       z     vdW  Elec       q    Type
REMARK                         _______ _______ _______ _____ _____    ______ ____
ROOT
ATOM      1  C   UNK     1       7.339   5.179  17.457  0.00  0.00    +0.000 C 
ATOM      2  N   UNK     1       6.627   4.193  18.309  0.00  0.00    +0.000 NA
ATOM      3  C   UNK     1       5.695   3.439  17.448  0.00  0.00    +0.000 C 
ATOM      4  C   UNK     1       5.735   4.077  16.043  0.00  0.00    +0.000 C 
ATOM      5  C   UNK     1       7.129   4.708  16.014  0.00  0.00    +0.000 C 
ATOM      6  H   UNK     1       6.143   4.710  19.047  0.00  0.00    +0.000 HD
ENDROOT
BRANCH   3   7
ATOM      7  C   UNK     1       4.358   3.314  18.103  0.00  0.00    +0.000 A 
ATOM      8  C   UNK     1       3.591   2.175  18.219  0.00  0.00    +0.000 A 
ATOM      9  F   UNK     1       3.902   1.000  17.744  0.00  0.00    +0.000 F 
ATOM     10  N   UNK     1       2.449   2.448  18.917  0.00  0.00    +0.000 N 
ATOM     11  C   UNK     1       2.435   3.773  19.265  0.00  0.00    +0.000 A 
ATOM     12  C   UNK     1       1.558   4.585  19.957  0.00  0.00    +0.000 A 
ATOM     13  N   UNK     1       1.858   5.878  20.131  0.00  0.00    +0.000 NA
ATOM     14  C   UNK     1       3.005   6.329  19.603  0.00  0.00    +0.000 A 
ATOM     15  N   UNK     1       3.912   5.634  18.898  0.00  0.00    +0.000 NA
ATOM     16  C   UNK     1       3.605   4.328  18.761  0.00  0.00    +0.000 A 
ATOM     17  H   UNK     1       1.743   1.760  19.133  0.00  0.00    +0.000 HD
BRANCH  12  18
ATOM     18  O   UNK     1       0.376   4.177  20.504  0.00  0.00    +0.000 OA
ATOM     19  H   UNK     1       0.308   4.543  21.398  0.00  0.00    +0.000 HD
ENDBRANCH  12  18
ENDBRANCH   3   7
BRANCH   4  20
ATOM     20  O   UNK     1       4.776   5.110  15.761  0.00  0.00    +0.000 OA
ATOM     21  H   UNK     1       3.945   4.896  16.231  0.00  0.00    +0.000 HD
ENDBRANCH   4  20
BRANCH   5  22
ATOM     22  O   UNK     1       7.212   5.752  15.050  0.00  0.00    +0.000 OA
ATOM     23  H   UNK     1       6.899   6.558  15.514  0.00  0.00    +0.000 HD
ENDBRANCH   5  22
BRANCH   1  24
ATOM     24  C   UNK     1       6.873   6.626  17.722  0.00  0.00    +0.000 C 
BRANCH  24  25
ATOM     25  O   UNK     1       7.722   7.543  17.030  0.00  0.00    +0.000 OA
ATOM     26  H   UNK     1       7.510   8.430  17.367  0.00  0.00    +0.000 HD
ENDBRANCH  24  25
ENDBRANCH   1  24
TORSDOF 6
ENDMDL
MODEL 6
REMARK VINA RESULT:      -6.6      2.115      2.282
REMARK  Name = 
REMARK  6 active torsions:
REMARK  status: ('A' for Active; 'I' for Inactive)
REMARK    1  A    between atoms: O_1  and  C_2
REMARK    2  A    between atoms: C_2  and  C_3
REMARK    3  A    between atoms: C_5  and  C_6
REMARK    4  A    between atoms: C_11  and  O_12
REMARK    5  A    between atoms: C_17  and  O_18
REMARK    6  A    between atoms: C_19  and  O_20
REMARK                            x       y       z     vdW  Elec       q    Type
REMARK                         _______ _______ _______ _____ _____    ______ ____
ROOT
ATOM      1  C   UNK     1       2.833   3.549  20.123  0.00  0.00    +0.000 C 
ATOM      2  N   UNK     1       3.641   4.732  19.729  0.00  0.00    +0.000 NA
ATOM      3  C   UNK     1       2.937   5.414  18.626  0.00  0.00    +0.000 C 
ATOM      4  C   UNK     1       1.724   4.544  18.235  0.00  0.00    +0.000 C 
ATOM      5  C   UNK     1       1.439   3.784  19.533  0.00  0.00    +0.000 C 
ATOM      6  H   UNK     1       4.567   4.399  19.453  0.00  0.00    +0.000 HD
ENDROOT
BRANCH   3   7
ATOM      7  C   UNK     1       3.894   5.780  17.539  0.00  0.00    +0.000 A 
ATOM      8  C   UNK     1       4.195   7.046  17.087  0.00  0.00    +0.000 A 
ATOM      9  F   UNK     1       3.667   8.155  17.527  0.00  0.00    +0.000 F 
ATOM     10  N   UNK     1       5.146   6.980  16.107  0.00  0.00    +0.000 N 
ATOM     11  C   UNK     1       5.479   5.670  15.886  0.00  0.00    +0.000 A 
ATOM     12  C   UNK     1       6.357   5.022  15.039  0.00  0.00    +0.000 A 
ATOM     13  N   UNK     1       6.447   3.688  15.082  0.00  0.00    +0.000 NA
ATOM     14  C   UNK     1       5.658   3.037  15.948  0.00  0.00    +0.000 A 
ATOM     15  N   UNK     1       4.760   3.564  16.795  0.00  0.00    +0.000 NA
ATOM     16  C   UNK     1       4.708   4.912  16.757  0.00  0.00    +0.000 A 
ATOM     17  H   UNK     1       5.528   7.788  15.638  0.00  0.00    +0.000 HD
BRANCH  12  18
ATOM     18  O   UNK     1       7.173   5.638  14.134  0.00  0.00    +0.000 OA
ATOM     19  H   UNK     1       7.732   4.966  13.716  0.00  0.00    +0.000 HD
ENDBRANCH  12  18
ENDBRANCH   3   7
BRANCH   4  20
ATOM     20  O   UNK     1       1.916   3.578  17.190  0.00  0.00    +0.000 OA
ATOM     21  H   UNK     1       2.757   3.781  16.732  0.00  0.00    +0.000 HD
ENDBRANCH   4  20
BRANCH   5  22
ATOM     22  O   UNK     1       0.707   2.587  19.289  0.00  0.00    +0.000 OA
ATOM     23  H   UNK     1      -0.232   2.864  19.240  0.00  0.00    +0.000 HD
ENDBRANCH   5  22
BRANCH   1  24
ATOM     24  C   UNK     1       3.487   2.221  19.686  0.00  0.00    +0.000 C 
BRANCH  24  25
ATOM     25  O   UNK     1       4.904   2.381  19.608  0.00  0.00    +0.000 OA
ATOM     26  H   UNK     1       5.233   1.681  19.019  0.00  0.00    +0.000 HD
ENDBRANCH  24  25
ENDBRANCH   1  24
TORSDOF 6
ENDMDL
MODEL 7
REMARK VINA RESULT:      -6.6      2.417      3.141
REMARK  Name = 
REMARK  6 active torsions:
REMARK  status: ('A' for Active; 'I' for Inactive)
REMARK    1  A    between atoms: O_1  and  C_2
REMARK    2  A    between atoms: C_2  and  C_3
REMARK    3  A    between atoms: C_5  and  C_6
REMARK    4  A    between atoms: C_11  and  O_12
REMARK    5  A    between atoms: C_17  and  O_18
REMARK    6  A    between atoms: C_19  and  O_20
REMARK                            x       y       z     vdW  Elec       q    Type
REMARK                         _______ _______ _______ _____ _____    ______ ____
ROOT
ATOM      1  C   UNK     1       2.351   1.967  19.633  0.00  0.00    +0.000 C 
ATOM      2  N   UNK     1       3.699   2.383  19.168  0.00  0.00    +0.000 NA
ATOM      3  C   UNK     1       4.056   3.630  19.872  0.00  0.00    +0.000 C 
ATOM      4  C   UNK     1       2.827   4.071  20.696  0.00  0.00    +0.000 C 
ATOM      5  C   UNK     1       2.100   2.744  20.930  0.00  0.00    +0.000 C 
ATOM      6  H   UNK     1       3.654   2.507  18.154  0.00  0.00    +0.000 HD
ENDROOT
BRANCH   3   7
ATOM      7  C   UNK     1       4.631   4.626  18.918  0.00  0.00    +0.000 A 
ATOM      8  C   UNK     1       4.025   5.151  17.798  0.00  0.00    +0.000 A 
ATOM      9  F   UNK     1       2.834   4.840  17.363  0.00  0.00    +0.000 F 
ATOM     10  N   UNK     1       4.851   6.061  17.201  0.00  0.00    +0.000 N 
ATOM     11  C   UNK     1       6.021   6.145  17.909  0.00  0.00    +0.000 A 
ATOM     12  C   UNK     1       7.184   6.878  17.778  0.00  0.00    +0.000 A 
ATOM     13  N   UNK     1       8.164   6.721  18.676  0.00  0.00    +0.000 NA
ATOM     14  C   UNK     1       7.970   5.835  19.662  0.00  0.00    +0.000 A 
ATOM     15  N   UNK     1       6.894   5.059  19.869  0.00  0.00    +0.000 NA
ATOM     16  C   UNK     1       5.906   5.256  18.971  0.00  0.00    +0.000 A 
ATOM     17  H   UNK     1       4.610   6.581  16.370  0.00  0.00    +0.000 HD
BRANCH  12  18
ATOM     18  O   UNK     1       7.433   7.784  16.787  0.00  0.00    +0.000 OA
ATOM     19  H   UNK     1       8.386   7.960  16.764  0.00  0.00    +0.000 HD
ENDBRANCH  12  18
ENDBRANCH   3   7
BRANCH   4  20
ATOM     20  O   UNK     1       1.904   4.976  20.069  0.00  0.00    +0.000 OA
ATOM     21  H   UNK     1       2.295   5.873  20.080  0.00  0.00    +0.000 HD
ENDBRANCH   4  20
BRANCH   5  22
ATOM     22  O   UNK     1       0.723   2.946  21.223  0.00  0.00    +0.000 OA
ATOM     23  H   UNK     1       0.391   2.072  21.522  0.00  0.00    +0.000 HD
ENDBRANCH   5  22
BRANCH   1  24
ATOM     24  C   UNK     1       1.268   2.176  18.553  0.00  0.00    +0.000 C 
BRANCH  24  25
ATOM     25  O   UNK     1       1.827   1.962  17.257  0.00  0.00    +0.000 OA
ATOM     26  H   UNK     1       2.144   1.043  17.237  0.00  0.00    +0.000 HD
ENDBRANCH  24  25
ENDBRANCH   1  24
TORSDOF 6
ENDMDL
MODEL 8
REMARK VINA RESULT:      -6.6      2.104      2.670
REMARK  Name = 
REMARK  6 active torsions:
REMARK  status: ('A' for Active; 'I' for Inactive)
REMARK    1  A    between atoms: O_1  and  C_2
REMARK    2  A    between atoms: C_2  and  C_3
REMARK    3  A    between atoms: C_5  and  C_6
REMARK    4  A    between atoms: C_11  and  O_12
REMARK    5  A    between atoms: C_17  and  O_18
REMARK    6  A    between atoms: C_19  and  O_20
REMARK                            x       y       z     vdW  Elec       q    Type
REMARK                         _______ _______ _______ _____ _____    ______ ____
ROOT
ATOM      1  C   UNK     1       1.880   4.204  21.184  0.00  0.00    +0.000 C 
ATOM      2  N   UNK     1       3.030   4.991  20.669  0.00  0.00    +0.000 NA
ATOM      3  C   UNK     1       2.916   5.050  19.199  0.00  0.00    +0.000 C 
ATOM      4  C   UNK     1       1.731   4.152  18.784  0.00  0.00    +0.000 C 
ATOM      5  C   UNK     1       0.859   4.165  20.042  0.00  0.00    +0.000 C 
ATOM      6  H   UNK     1       3.887   4.526  20.975  0.00  0.00    +0.000 HD
ENDROOT
BRANCH   3   7
ATOM      7  C   UNK     1       4.237   4.776  18.558  0.00  0.00    +0.000 A 
ATOM      8  C   UNK     1       5.177   3.849  18.954  0.00  0.00    +0.000 A 
ATOM      9  F   UNK     1       5.076   3.059  19.987  0.00  0.00    +0.000 F 
ATOM     10  N   UNK     1       6.241   3.865  18.096  0.00  0.00    +0.000 N 
ATOM     11  C   UNK     1       6.029   4.809  17.127  0.00  0.00    +0.000 A 
ATOM     12  C   UNK     1       6.742   5.251  16.030  0.00  0.00    +0.000 A 
ATOM     13  N   UNK     1       6.230   6.218  15.259  0.00  0.00    +0.000 NA
ATOM     14  C   UNK     1       5.039   6.726  15.605  0.00  0.00    +0.000 A 
ATOM     15  N   UNK     1       4.276   6.387  16.657  0.00  0.00    +0.000 NA
ATOM     16  C   UNK     1       4.797   5.390  17.402  0.00  0.00    +0.000 A 
ATOM     17  H   UNK     1       7.044   3.259  18.184  0.00  0.00    +0.000 HD
BRANCH  12  18
ATOM     18  O   UNK     1       7.961   4.773  15.642  0.00  0.00    +0.000 OA
ATOM     19  H   UNK     1       8.517   5.523  15.382  0.00  0.00    +0.000 HD
ENDBRANCH  12  18
ENDBRANCH   3   7
BRANCH   4  20
ATOM     20  O   UNK     1       2.023   2.782  18.463  0.00  0.00    +0.000 OA
ATOM     21  H   UNK     1       1.327   2.218  18.856  0.00  0.00    +0.000 HD
ENDBRANCH   4  20
BRANCH   5  22
ATOM     22  O   UNK     1      -0.013   3.041  20.087  0.00  0.00    +0.000 OA
ATOM     23  H   UNK     1      -0.098   2.742  19.156  0.00  0.00    +0.000 HD
ENDBRANCH   5  22
BRANCH   1  24
ATOM     24  C   UNK     1       2.305   2.812  21.697  0.00  0.00    +0.000 C 
BRANCH  24  25
ATOM     25  O   UNK     1       1.249   2.236  22.466  0.00  0.00    +0.000 OA
ATOM     26  H   UNK     1       0.889   1.501  21.941  0.00  0.00    +0.000 HD
ENDBRANCH  24  25
ENDBRANCH   1  24
TORSDOF 6
ENDMDL
MODEL 9
REMARK VINA RESULT:      -6.5      1.762      2.422
REMARK  Name = 
REMARK  6 active torsions:
REMARK  status: ('A' for Active; 'I' for Inactive)
REMARK    1  A    between atoms: O_1  and  C_2
REMARK    2  A    between atoms: C_2  and  C_3
REMARK    3  A    between atoms: C_5  and  C_6
REMARK    4  A    between atoms: C_11  and  O_12
REMARK    5  A    between atoms: C_17  and  O_18
REMARK    6  A    between atoms: C_19  and  O_20
REMARK                            x       y       z     vdW  Elec       q    Type
REMARK                         _______ _______ _______ _____ _____    ______ ____
ROOT
ATOM      1  C   UNK     1       2.682   4.594  18.816  0.00  0.00    +0.000 C 
ATOM      2  N   UNK     1       3.116   5.004  17.456  0.00  0.00    +0.000 NA
ATOM      3  C   UNK     1       4.060   3.986  16.955  0.00  0.00    +0.000 C 
ATOM      4  C   UNK     1       4.322   2.986  18.102  0.00  0.00    +0.000 C 
ATOM      5  C   UNK     1       3.046   3.110  18.938  0.00  0.00    +0.000 C 
ATOM      6  H   UNK     1       3.545   5.929  17.532  0.00  0.00    +0.000 HD
ENDROOT
BRANCH   3   7
ATOM      7  C   UNK     1       5.251   4.636  16.331  0.00  0.00    +0.000 A 
ATOM      8  C   UNK     1       6.099   5.553  16.913  0.00  0.00    +0.000 A 
ATOM      9  F   UNK     1       5.984   6.033  18.121  0.00  0.00    +0.000 F 
ATOM     10  N   UNK     1       7.096   5.889  16.040  0.00  0.00    +0.000 N 
ATOM     11  C   UNK     1       6.918   5.210  14.864  0.00  0.00    +0.000 A 
ATOM     12  C   UNK     1       7.598   5.154  13.664  0.00  0.00    +0.000 A 
ATOM     13  N   UNK     1       7.146   4.356  12.689  0.00  0.00    +0.000 NA
ATOM     14  C   UNK     1       6.031   3.652  12.926  0.00  0.00    +0.000 A 
ATOM     15  N   UNK     1       5.285   3.648  14.043  0.00  0.00    +0.000 NA
ATOM     16  C   UNK     1       5.776   4.436  15.022  0.00  0.00    +0.000 A 
ATOM     17  H   UNK     1       7.839   6.537  16.257  0.00  0.00    +0.000 HD
BRANCH  12  18
ATOM     18  O   UNK     1       8.730   5.859  13.370  0.00  0.00    +0.000 OA
ATOM     19  H   UNK     1       9.499   5.333  13.639  0.00  0.00    +0.000 HD
ENDBRANCH  12  18
ENDBRANCH   3   7
BRANCH   4  20
ATOM     20  O   UNK     1       5.442   3.249  18.963  0.00  0.00    +0.000 OA
ATOM     21  H   UNK     1       6.256   2.949  18.510  0.00  0.00    +0.000 HD
ENDBRANCH   4  20
BRANCH   5  22
ATOM     22  O   UNK     1       3.253   2.676  20.277  0.00  0.00    +0.000 OA
ATOM     23  H   UNK     1       2.358   2.639  20.679  0.00  0.00    +0.000 HD
ENDBRANCH   5  22
BRANCH   1  24
ATOM     24  C   UNK     1       3.290   5.485  19.919  0.00  0.00    +0.000 C 
BRANCH  24  25
ATOM     25  O   UNK     1       2.492   5.407  21.101  0.00  0.00    +0.000 OA
ATOM     26  H   UNK     1       1.655   5.860  20.904  0.00  0.00    +0.000 HD
ENDBRANCH  24  25
ENDBRANCH   1  24
TORSDOF 6
ENDMDL
