MODEL 1
REMARK VINA RESULT:      -8.4      0.000      0.000
REMARK  Name = 
REMARK  6 active torsions:
REMARK  status: ('A' for Active; 'I' for Inactive)
REMARK    1  A    between atoms: C_1  and  O_2
REMARK    2  A    between atoms: O_2  and  C_3
REMARK    3  A    between atoms: C_8  and  C_9
REMARK    4  A    between atoms: C_11  and  N_12
REMARK    5  A    between atoms: N_12  and  N_13
REMARK    6  A    between atoms: C_14  and  C_16
REMARK                            x       y       z     vdW  Elec       q    Type
REMARK                         _______ _______ _______ _____ _____    ______ ____
ROOT
ATOM      1  C   UNL     1       6.826   6.221  16.885  0.00  0.00    +0.000 A 
ATOM      2  C   UNL     1       7.020   4.858  16.728  0.00  0.00    +0.000 A 
ATOM      3  C   UNL     1       5.970   3.979  16.987  0.00  0.00    +0.000 A 
ATOM      4  C   UNL     1       4.726   4.421  17.402  0.00  0.00    +0.000 A 
ATOM      5  N   UNL     1       3.798   3.481  17.615  0.00  0.00    +0.000 NA
ATOM      6  C   UNL     1       2.565   3.865  17.991  0.00  0.00    +0.000 A 
ATOM      7  C   UNL     1       1.550   2.778  18.177  0.00  0.00    +0.000 C 
ATOM      8  C   UNL     1       2.220   5.197  18.173  0.00  0.00    +0.000 A 
ATOM      9  C   UNL     1       3.178   6.203  17.974  0.00  0.00    +0.000 A 
ATOM     10  C   UNL     1       4.491   5.804  17.566  0.00  0.00    +0.000 A 
ATOM     11  C   UNL     1       5.576   6.689  17.311  0.00  0.00    +0.000 A 
ENDROOT
BRANCH   1  13
ATOM     12  C   UNL     1       7.750   8.275  17.598  0.00  0.00    +0.000 C 
ATOM     13  O   UNL     1       7.786   7.175  16.692  0.00  0.00    +0.000 OA
ENDBRANCH   1  13
BRANCH   9  14
ATOM     14  N   UNL     1       2.803   7.580  17.979  0.00  0.00    +0.000 N 
ATOM     15  H   UNL     1       3.576   8.205  17.726  0.00  0.00    +0.000 HD
BRANCH  14  16
ATOM     16  N   UNL     1       2.178   8.043  19.160  0.00  0.00    +0.000 N 
ATOM     17  C   UNL     1       1.385   9.178  19.016  0.00  0.00    +0.000 C 
ATOM     18  O   UNL     1       1.306   9.820  17.973  0.00  0.00    +0.000 OA
ATOM     19  H   UNL     1       1.837   7.315  19.779  0.00  0.00    +0.000 HD
BRANCH  17  20
ATOM     20  C   UNL     1       0.606   9.583  20.220  0.00  0.00    +0.000 A 
ATOM     21  C   UNL     1       0.534   8.753  21.349  0.00  0.00    +0.000 A 
ATOM     22  C   UNL     1      -0.159   9.178  22.486  0.00  0.00    +0.000 A 
ATOM     23  C   UNL     1      -0.774  10.426  22.493  0.00  0.00    +0.000 A 
ATOM     24  F   UNL     1      -1.433  10.829  23.585  0.00  0.00    +0.000 F 
ATOM     25  C   UNL     1      -0.707  11.261  21.382  0.00  0.00    +0.000 A 
ATOM     26  C   UNL     1      -0.008  10.843  20.244  0.00  0.00    +0.000 A 
ENDBRANCH  17  20
ENDBRANCH  14  16
ENDBRANCH   9  14
TORSDOF 4
ENDMDL
MODEL 2
REMARK VINA RESULT:      -8.2      1.562      1.840
REMARK  Name = 
REMARK  6 active torsions:
REMARK  status: ('A' for Active; 'I' for Inactive)
REMARK    1  A    between atoms: C_1  and  O_2
REMARK    2  A    between atoms: O_2  and  C_3
REMARK    3  A    between atoms: C_8  and  C_9
REMARK    4  A    between atoms: C_11  and  N_12
REMARK    5  A    between atoms: N_12  and  N_13
REMARK    6  A    between atoms: C_14  and  C_16
REMARK                            x       y       z     vdW  Elec       q    Type
REMARK                         _______ _______ _______ _____ _____    ______ ____
ROOT
ATOM      1  C   UNL     1       5.031   5.204  16.365  0.00  0.00    +0.000 A 
ATOM      2  C   UNL     1       5.018   3.823  16.485  0.00  0.00    +0.000 A 
ATOM      3  C   UNL     1       4.256   3.227  17.488  0.00  0.00    +0.000 A 
ATOM      4  C   UNL     1       3.504   3.971  18.381  0.00  0.00    +0.000 A 
ATOM      5  N   UNL     1       2.811   3.284  19.296  0.00  0.00    +0.000 NA
ATOM      6  C   UNL     1       2.043   3.963  20.167  0.00  0.00    +0.000 A 
ATOM      7  C   UNL     1       1.256   3.147  21.146  0.00  0.00    +0.000 C 
ATOM      8  C   UNL     1       1.945   5.347  20.156  0.00  0.00    +0.000 A 
ATOM      9  C   UNL     1       2.674   6.095  19.218  0.00  0.00    +0.000 A 
ATOM     10  C   UNL     1       3.489   5.380  18.283  0.00  0.00    +0.000 A 
ATOM     11  C   UNL     1       4.283   5.975  17.262  0.00  0.00    +0.000 A 
ENDROOT
BRANCH   1  13
ATOM     12  C   UNL     1       6.548   5.112  14.556  0.00  0.00    +0.000 C 
ATOM     13  O   UNL     1       5.762   5.902  15.444  0.00  0.00    +0.000 OA
ENDBRANCH   1  13
BRANCH   9  14
ATOM     14  N   UNL     1       2.453   7.496  19.071  0.00  0.00    +0.000 N 
ATOM     15  H   UNL     1       3.316   8.018  18.881  0.00  0.00    +0.000 HD
BRANCH  14  16
ATOM     16  N   UNL     1       1.735   8.119  20.118  0.00  0.00    +0.000 N 
ATOM     17  C   UNL     1       1.131   9.331  19.794  0.00  0.00    +0.000 C 
ATOM     18  O   UNL     1       1.287   9.899  18.718  0.00  0.00    +0.000 OA
ATOM     19  H   UNL     1       1.215   7.488  20.718  0.00  0.00    +0.000 HD
BRANCH  17  20
ATOM     20  C   UNL     1       0.250   9.918  20.844  0.00  0.00    +0.000 A 
ATOM     21  C   UNL     1       0.201   9.372  22.136  0.00  0.00    +0.000 A 
ATOM     22  C   UNL     1      -0.593   9.973  23.118  0.00  0.00    +0.000 A 
ATOM     23  C   UNL     1      -1.329  11.112  22.810  0.00  0.00    +0.000 A 
ATOM     24  F   UNL     1      -2.083  11.684  23.754  0.00  0.00    +0.000 F 
ATOM     25  C   UNL     1      -1.286  11.666  21.534  0.00  0.00    +0.000 A 
ATOM     26  C   UNL     1      -0.488  11.073  20.549  0.00  0.00    +0.000 A 
ENDBRANCH  17  20
ENDBRANCH  14  16
ENDBRANCH   9  14
TORSDOF 4
ENDMDL
MODEL 3
REMARK VINA RESULT:      -8.2      5.017      6.448
REMARK  Name = 
REMARK  6 active torsions:
REMARK  status: ('A' for Active; 'I' for Inactive)
REMARK    1  A    between atoms: C_1  and  O_2
REMARK    2  A    between atoms: O_2  and  C_3
REMARK    3  A    between atoms: C_8  and  C_9
REMARK    4  A    between atoms: C_11  and  N_12
REMARK    5  A    between atoms: N_12  and  N_13
REMARK    6  A    between atoms: C_14  and  C_16
REMARK                            x       y       z     vdW  Elec       q    Type
REMARK                         _______ _______ _______ _____ _____    ______ ____
ROOT
ATOM      1  C   UNL     1       6.367   3.378  12.283  0.00  0.00    +0.000 A 
ATOM      2  C   UNL     1       7.258   4.414  12.048  0.00  0.00    +0.000 A 
ATOM      3  C   UNL     1       7.629   5.253  13.097  0.00  0.00    +0.000 A 
ATOM      4  C   UNL     1       7.135   5.090  14.380  0.00  0.00    +0.000 A 
ATOM      5  N   UNL     1       7.570   5.955  15.303  0.00  0.00    +0.000 NA
ATOM      6  C   UNL     1       7.141   5.817  16.570  0.00  0.00    +0.000 A 
ATOM      7  C   UNL     1       7.687   6.786  17.574  0.00  0.00    +0.000 C 
ATOM      8  C   UNL     1       6.260   4.817  16.956  0.00  0.00    +0.000 A 
ATOM      9  C   UNL     1       5.774   3.905  16.006  0.00  0.00    +0.000 A 
ATOM     10  C   UNL     1       6.231   4.040  14.656  0.00  0.00    +0.000 A 
ATOM     11  C   UNL     1       5.850   3.200  13.572  0.00  0.00    +0.000 A 
ENDROOT
BRANCH   1  13
ATOM     12  C   UNL     1       6.715   1.363  11.101  0.00  0.00    +0.000 C 
ATOM     13  O   UNL     1       5.905   2.513  11.330  0.00  0.00    +0.000 OA
ENDBRANCH   1  13
BRANCH   9  14
ATOM     14  N   UNL     1       5.014   2.766  16.408  0.00  0.00    +0.000 N 
ATOM     15  H   UNL     1       4.289   2.511  15.729  0.00  0.00    +0.000 HD
BRANCH  14  16
ATOM     16  N   UNL     1       4.457   2.826  17.706  0.00  0.00    +0.000 N 
ATOM     17  C   UNL     1       3.084   3.047  17.762  0.00  0.00    +0.000 C 
ATOM     18  O   UNL     1       2.397   3.290  16.775  0.00  0.00    +0.000 OA
ATOM     19  H   UNL     1       4.848   2.167  18.372  0.00  0.00    +0.000 HD
BRANCH  17  20
ATOM     20  C   UNL     1       2.466   2.961  19.116  0.00  0.00    +0.000 A 
ATOM     21  C   UNL     1       1.088   3.148  19.296  0.00  0.00    +0.000 A 
ATOM     22  C   UNL     1       0.524   3.009  20.569  0.00  0.00    +0.000 A 
ATOM     23  C   UNL     1       1.335   2.684  21.651  0.00  0.00    +0.000 A 
ATOM     24  F   UNL     1       0.790   2.549  22.865  0.00  0.00    +0.000 F 
ATOM     25  C   UNL     1       2.703   2.491  21.486  0.00  0.00    +0.000 A 
ATOM     26  C   UNL     1       3.271   2.622  20.213  0.00  0.00    +0.000 A 
ENDBRANCH  17  20
ENDBRANCH  14  16
ENDBRANCH   9  14
TORSDOF 4
ENDMDL
MODEL 4
REMARK VINA RESULT:      -7.9      1.778      2.144
REMARK  Name = 
REMARK  6 active torsions:
REMARK  status: ('A' for Active; 'I' for Inactive)
REMARK    1  A    between atoms: C_1  and  O_2
REMARK    2  A    between atoms: O_2  and  C_3
REMARK    3  A    between atoms: C_8  and  C_9
REMARK    4  A    between atoms: C_11  and  N_12
REMARK    5  A    between atoms: N_12  and  N_13
REMARK    6  A    between atoms: C_14  and  C_16
REMARK                            x       y       z     vdW  Elec       q    Type
REMARK                         _______ _______ _______ _____ _____    ______ ____
ROOT
ATOM      1  C   UNL     1       5.563   6.249  16.808  0.00  0.00    +0.000 A 
ATOM      2  C   UNL     1       5.402   5.126  16.011  0.00  0.00    +0.000 A 
ATOM      3  C   UNL     1       4.420   4.191  16.330  0.00  0.00    +0.000 A 
ATOM      4  C   UNL     1       3.588   4.342  17.427  0.00  0.00    +0.000 A 
ATOM      5  N   UNL     1       2.680   3.380  17.626  0.00  0.00    +0.000 NA
ATOM      6  C   UNL     1       1.831   3.498  18.662  0.00  0.00    +0.000 A 
ATOM      7  C   UNL     1       0.808   2.415  18.820  0.00  0.00    +0.000 C 
ATOM      8  C   UNL     1       1.864   4.576  19.536  0.00  0.00    +0.000 A 
ATOM      9  C   UNL     1       2.817   5.592  19.361  0.00  0.00    +0.000 A 
ATOM     10  C   UNL     1       3.720   5.478  18.256  0.00  0.00    +0.000 A 
ATOM     11  C   UNL     1       4.737   6.417  17.927  0.00  0.00    +0.000 A 
ENDROOT
BRANCH   1  13
ATOM     12  C   UNL     1       7.537   7.276  17.601  0.00  0.00    +0.000 C 
ATOM     13  O   UNL     1       6.510   7.216  16.615  0.00  0.00    +0.000 OA
ENDBRANCH   1  13
BRANCH   9  14
ATOM     14  N   UNL     1       2.755   6.791  20.132  0.00  0.00    +0.000 N 
ATOM     15  H   UNL     1       2.661   6.613  21.139  0.00  0.00    +0.000 HD
BRANCH  14  16
ATOM     16  N   UNL     1       1.791   7.739  19.720  0.00  0.00    +0.000 N 
ATOM     17  C   UNL     1       1.275   8.549  20.728  0.00  0.00    +0.000 C 
ATOM     18  O   UNL     1       1.535   8.397  21.918  0.00  0.00    +0.000 OA
ATOM     19  H   UNL     1       1.974   8.176  18.823  0.00  0.00    +0.000 HD
BRANCH  17  20
ATOM     20  C   UNL     1       0.373   9.648  20.280  0.00  0.00    +0.000 A 
ATOM     21  C   UNL     1      -0.276  10.476  21.209  0.00  0.00    +0.000 A 
ATOM     22  C   UNL     1      -1.074  11.535  20.763  0.00  0.00    +0.000 A 
ATOM     23  C   UNL     1      -1.220  11.762  19.399  0.00  0.00    +0.000 A 
ATOM     24  F   UNL     1      -1.982  12.778  18.979  0.00  0.00    +0.000 F 
ATOM     25  C   UNL     1      -0.579  10.951  18.467  0.00  0.00    +0.000 A 
ATOM     26  C   UNL     1       0.227   9.895  18.908  0.00  0.00    +0.000 A 
ENDBRANCH  17  20
ENDBRANCH  14  16
ENDBRANCH   9  14
TORSDOF 4
ENDMDL
MODEL 5
REMARK VINA RESULT:      -7.9      2.280      2.619
REMARK  Name = 
REMARK  6 active torsions:
REMARK  status: ('A' for Active; 'I' for Inactive)
REMARK    1  A    between atoms: C_1  and  O_2
REMARK    2  A    between atoms: O_2  and  C_3
REMARK    3  A    between atoms: C_8  and  C_9
REMARK    4  A    between atoms: C_11  and  N_12
REMARK    5  A    between atoms: N_12  and  N_13
REMARK    6  A    between atoms: C_14  and  C_16
REMARK                            x       y       z     vdW  Elec       q    Type
REMARK                         _______ _______ _______ _____ _____    ______ ____
ROOT
ATOM      1  C   UNL     1       5.421   5.268  15.865  0.00  0.00    +0.000 A 
ATOM      2  C   UNL     1       5.347   3.916  16.159  0.00  0.00    +0.000 A 
ATOM      3  C   UNL     1       4.518   3.480  17.191  0.00  0.00    +0.000 A 
ATOM      4  C   UNL     1       3.756   4.358  17.943  0.00  0.00    +0.000 A 
ATOM      5  N   UNL     1       2.995   3.820  18.902  0.00  0.00    +0.000 NA
ATOM      6  C   UNL     1       2.216   4.631  19.640  0.00  0.00    +0.000 A 
ATOM      7  C   UNL     1       1.353   3.975  20.674  0.00  0.00    +0.000 C 
ATOM      8  C   UNL     1       2.174   6.004  19.448  0.00  0.00    +0.000 A 
ATOM      9  C   UNL     1       2.975   6.599  18.460  0.00  0.00    +0.000 A 
ATOM     10  C   UNL     1       3.802   5.742  17.665  0.00  0.00    +0.000 A 
ATOM     11  C   UNL     1       4.664   6.174  16.619  0.00  0.00    +0.000 A 
ENDROOT
BRANCH   1  13
ATOM     12  C   UNL     1       6.939   4.886  14.097  0.00  0.00    +0.000 C 
ATOM     13  O   UNL     1       6.221   5.817  14.901  0.00  0.00    +0.000 OA
ENDBRANCH   1  13
BRANCH   9  14
ATOM     14  N   UNL     1       2.817   7.977  18.125  0.00  0.00    +0.000 N 
ATOM     15  H   UNL     1       3.615   8.552  18.419  0.00  0.00    +0.000 HD
BRANCH  14  16
ATOM     16  N   UNL     1       1.609   8.579  18.547  0.00  0.00    +0.000 N 
ATOM     17  C   UNL     1       1.441   9.911  18.180  0.00  0.00    +0.000 C 
ATOM     18  O   UNL     1       2.312  10.576  17.627  0.00  0.00    +0.000 OA
ATOM     19  H   UNL     1       0.792   7.979  18.503  0.00  0.00    +0.000 HD
BRANCH  17  20
ATOM     20  C   UNL     1       0.110  10.507  18.489  0.00  0.00    +0.000 A 
ATOM     21  C   UNL     1      -0.012  11.581  19.384  0.00  0.00    +0.000 A 
ATOM     22  C   UNL     1      -1.265  12.157  19.617  0.00  0.00    +0.000 A 
ATOM     23  C   UNL     1      -2.385  11.663  18.957  0.00  0.00    +0.000 A 
ATOM     24  F   UNL     1      -3.580  12.221  19.180  0.00  0.00    +0.000 F 
ATOM     25  C   UNL     1      -2.278  10.602  18.063  0.00  0.00    +0.000 A 
ATOM     26  C   UNL     1      -1.025  10.026  17.821  0.00  0.00    +0.000 A 
ENDBRANCH  17  20
ENDBRANCH  14  16
ENDBRANCH   9  14
TORSDOF 4
ENDMDL
MODEL 6
REMARK VINA RESULT:      -7.7      2.461      2.954
REMARK  Name = 
REMARK  6 active torsions:
REMARK  status: ('A' for Active; 'I' for Inactive)
REMARK    1  A    between atoms: C_1  and  O_2
REMARK    2  A    between atoms: O_2  and  C_3
REMARK    3  A    between atoms: C_8  and  C_9
REMARK    4  A    between atoms: C_11  and  N_12
REMARK    5  A    between atoms: N_12  and  N_13
REMARK    6  A    between atoms: C_14  and  C_16
REMARK                            x       y       z     vdW  Elec       q    Type
REMARK                         _______ _______ _______ _____ _____    ______ ____
ROOT
ATOM      1  C   UNL     1       5.430   5.437  15.895  0.00  0.00    +0.000 A 
ATOM      2  C   UNL     1       5.400   4.113  16.305  0.00  0.00    +0.000 A 
ATOM      3  C   UNL     1       4.570   3.737  17.359  0.00  0.00    +0.000 A 
ATOM      4  C   UNL     1       3.765   4.647  18.022  0.00  0.00    +0.000 A 
ATOM      5  N   UNL     1       3.009   4.165  19.015  0.00  0.00    +0.000 NA
ATOM      6  C   UNL     1       2.189   5.007  19.669  0.00  0.00    +0.000 A 
ATOM      7  C   UNL     1       1.333   4.411  20.745  0.00  0.00    +0.000 C 
ATOM      8  C   UNL     1       2.100   6.356  19.358  0.00  0.00    +0.000 A 
ATOM      9  C   UNL     1       2.895   6.894  18.333  0.00  0.00    +0.000 A 
ATOM     10  C   UNL     1       3.766   6.003  17.627  0.00  0.00    +0.000 A 
ATOM     11  C   UNL     1       4.629   6.375  16.558  0.00  0.00    +0.000 A 
ENDROOT
BRANCH   1  13
ATOM     12  C   UNL     1       7.009   4.963  14.204  0.00  0.00    +0.000 C 
ATOM     13  O   UNL     1       6.224   5.929  14.898  0.00  0.00    +0.000 OA
ENDBRANCH   1  13
BRANCH   9  14
ATOM     14  N   UNL     1       2.693   8.231  17.878  0.00  0.00    +0.000 N 
ATOM     15  H   UNL     1       3.226   8.921  18.420  0.00  0.00    +0.000 HD
BRANCH  14  16
ATOM     16  N   UNL     1       1.347   8.646  17.764  0.00  0.00    +0.000 N 
ATOM     17  C   UNL     1       1.002   9.778  18.496  0.00  0.00    +0.000 C 
ATOM     18  O   UNL     1       1.763  10.332  19.284  0.00  0.00    +0.000 OA
ATOM     19  H   UNL     1       0.946   8.554  16.836  0.00  0.00    +0.000 HD
BRANCH  17  20
ATOM     20  C   UNL     1      -0.372  10.309  18.264  0.00  0.00    +0.000 A 
ATOM     21  C   UNL     1      -1.226   9.717  17.321  0.00  0.00    +0.000 A 
ATOM     22  C   UNL     1      -2.529  10.199  17.160  0.00  0.00    +0.000 A 
ATOM     23  C   UNL     1      -2.972  11.264  17.937  0.00  0.00    +0.000 A 
ATOM     24  F   UNL     1      -4.220  11.719  17.781  0.00  0.00    +0.000 F 
ATOM     25  C   UNL     1      -2.137  11.857  18.879  0.00  0.00    +0.000 A 
ATOM     26  C   UNL     1      -0.834  11.374  19.049  0.00  0.00    +0.000 A 
ENDBRANCH  17  20
ENDBRANCH  14  16
ENDBRANCH   9  14
TORSDOF 4
ENDMDL
MODEL 7
REMARK VINA RESULT:      -7.7      2.006      2.305
REMARK  Name = 
REMARK  6 active torsions:
REMARK  status: ('A' for Active; 'I' for Inactive)
REMARK    1  A    between atoms: C_1  and  O_2
REMARK    2  A    between atoms: O_2  and  C_3
REMARK    3  A    between atoms: C_8  and  C_9
REMARK    4  A    between atoms: C_11  and  N_12
REMARK    5  A    between atoms: N_12  and  N_13
REMARK    6  A    between atoms: C_14  and  C_16
REMARK                            x       y       z     vdW  Elec       q    Type
REMARK                         _______ _______ _______ _____ _____    ______ ____
ROOT
ATOM      1  C   UNL     1       6.804   6.466  17.223  0.00  0.00    +0.000 A 
ATOM      2  C   UNL     1       6.958   5.108  17.456  0.00  0.00    +0.000 A 
ATOM      3  C   UNL     1       5.859   4.349  17.852  0.00  0.00    +0.000 A 
ATOM      4  C   UNL     1       4.604   4.907  18.025  0.00  0.00    +0.000 A 
ATOM      5  N   UNL     1       3.626   4.075  18.402  0.00  0.00    +0.000 NA
ATOM      6  C   UNL     1       2.384   4.565  18.555  0.00  0.00    +0.000 A 
ATOM      7  C   UNL     1       1.317   3.586  18.940  0.00  0.00    +0.000 C 
ATOM      8  C   UNL     1       2.077   5.902  18.341  0.00  0.00    +0.000 A 
ATOM      9  C   UNL     1       3.085   6.801  17.961  0.00  0.00    +0.000 A 
ATOM     10  C   UNL     1       4.410   6.286  17.790  0.00  0.00    +0.000 A 
ATOM     11  C   UNL     1       5.544   7.051  17.399  0.00  0.00    +0.000 A 
ENDROOT
BRANCH   1  13
ATOM     12  C   UNL     1       8.115   8.343  17.803  0.00  0.00    +0.000 C 
ATOM     13  O   UNL     1       7.812   7.317  16.863  0.00  0.00    +0.000 OA
ENDBRANCH   1  13
BRANCH   9  14
ATOM     14  N   UNL     1       2.763   8.133  17.564  0.00  0.00    +0.000 N 
ATOM     15  H   UNL     1       3.458   8.821  17.876  0.00  0.00    +0.000 HD
BRANCH  14  16
ATOM     16  N   UNL     1       1.464   8.578  17.898  0.00  0.00    +0.000 N 
ATOM     17  C   UNL     1       1.338   9.945  18.132  0.00  0.00    +0.000 C 
ATOM     18  O   UNL     1       2.291  10.717  18.164  0.00  0.00    +0.000 OA
ATOM     19  H   UNL     1       0.711   8.123  17.393  0.00  0.00    +0.000 HD
BRANCH  17  20
ATOM     20  C   UNL     1      -0.052  10.443  18.336  0.00  0.00    +0.000 A 
ATOM     21  C   UNL     1      -0.314  11.535  19.178  0.00  0.00    +0.000 A 
ATOM     22  C   UNL     1      -1.619  12.018  19.312  0.00  0.00    +0.000 A 
ATOM     23  C   UNL     1      -2.654  11.413  18.607  0.00  0.00    +0.000 A 
ATOM     24  F   UNL     1      -3.901  11.881  18.735  0.00  0.00    +0.000 F 
ATOM     25  C   UNL     1      -2.409  10.332  17.765  0.00  0.00    +0.000 A 
ATOM     26  C   UNL     1      -1.102   9.850  17.622  0.00  0.00    +0.000 A 
ENDBRANCH  17  20
ENDBRANCH  14  16
ENDBRANCH   9  14
TORSDOF 4
ENDMDL
MODEL 8
REMARK VINA RESULT:      -7.7      2.089      2.486
REMARK  Name = 
REMARK  6 active torsions:
REMARK  status: ('A' for Active; 'I' for Inactive)
REMARK    1  A    between atoms: C_1  and  O_2
REMARK    2  A    between atoms: O_2  and  C_3
REMARK    3  A    between atoms: C_8  and  C_9
REMARK    4  A    between atoms: C_11  and  N_12
REMARK    5  A    between atoms: N_12  and  N_13
REMARK    6  A    between atoms: C_14  and  C_16
REMARK                            x       y       z     vdW  Elec       q    Type
REMARK                         _______ _______ _______ _____ _____    ______ ____
ROOT
ATOM      1  C   UNL     1       6.769   6.462  16.946  0.00  0.00    +0.000 A 
ATOM      2  C   UNL     1       6.843   5.082  16.832  0.00  0.00    +0.000 A 
ATOM      3  C   UNL     1       5.713   4.309  17.095  0.00  0.00    +0.000 A 
ATOM      4  C   UNL     1       4.507   4.873  17.472  0.00  0.00    +0.000 A 
ATOM      5  N   UNL     1       3.494   4.027  17.693  0.00  0.00    +0.000 NA
ATOM      6  C   UNL     1       2.294   4.531  18.033  0.00  0.00    +0.000 A 
ATOM      7  C   UNL     1       1.183   3.545  18.230  0.00  0.00    +0.000 C 
ATOM      8  C   UNL     1       2.067   5.893  18.169  0.00  0.00    +0.000 A 
ATOM      9  C   UNL     1       3.116   6.803  17.960  0.00  0.00    +0.000 A 
ATOM     10  C   UNL     1       4.395   6.276  17.591  0.00  0.00    +0.000 A 
ATOM     11  C   UNL     1       5.559   7.052  17.333  0.00  0.00    +0.000 A 
ENDROOT
BRANCH   1  13
ATOM     12  C   UNL     1       7.911   8.397  17.673  0.00  0.00    +0.000 C 
ATOM     13  O   UNL     1       7.814   7.320  16.745  0.00  0.00    +0.000 OA
ENDBRANCH   1  13
BRANCH   9  14
ATOM     14  N   UNL     1       2.865   8.207  17.918  0.00  0.00    +0.000 N 
ATOM     15  H   UNL     1       3.277   8.709  18.714  0.00  0.00    +0.000 HD
BRANCH  14  16
ATOM     16  N   UNL     1       1.513   8.587  17.758  0.00  0.00    +0.000 N 
ATOM     17  C   UNL     1       1.084   9.638  18.565  0.00  0.00    +0.000 C 
ATOM     18  O   UNL     1       1.777  10.143  19.443  0.00  0.00    +0.000 OA
ATOM     19  H   UNL     1       1.172   8.567  16.803  0.00  0.00    +0.000 HD
BRANCH  17  20
ATOM     20  C   UNL     1      -0.292  10.143  18.296  0.00  0.00    +0.000 A 
ATOM     21  C   UNL     1      -1.072   9.603  17.261  0.00  0.00    +0.000 A 
ATOM     22  C   UNL     1      -2.380  10.056  17.062  0.00  0.00    +0.000 A 
ATOM     23  C   UNL     1      -2.903  11.040  17.895  0.00  0.00    +0.000 A 
ATOM     24  F   UNL     1      -4.156  11.467  17.703  0.00  0.00    +0.000 F 
ATOM     25  C   UNL     1      -2.143  11.580  18.928  0.00  0.00    +0.000 A 
ATOM     26  C   UNL     1      -0.836  11.125  19.135  0.00  0.00    +0.000 A 
ENDBRANCH  17  20
ENDBRANCH  14  16
ENDBRANCH   9  14
TORSDOF 4
ENDMDL
MODEL 9
REMARK VINA RESULT:      -7.6      1.934      3.882
REMARK  Name = 
REMARK  6 active torsions:
REMARK  status: ('A' for Active; 'I' for Inactive)
REMARK    1  A    between atoms: C_1  and  O_2
REMARK    2  A    between atoms: O_2  and  C_3
REMARK    3  A    between atoms: C_8  and  C_9
REMARK    4  A    between atoms: C_11  and  N_12
REMARK    5  A    between atoms: N_12  and  N_13
REMARK    6  A    between atoms: C_14  and  C_16
REMARK                            x       y       z     vdW  Elec       q    Type
REMARK                         _______ _______ _______ _____ _____    ______ ____
ROOT
ATOM      1  C   UNL     1       2.475   3.604  19.719  0.00  0.00    +0.000 A 
ATOM      2  C   UNL     1       3.684   2.955  19.915  0.00  0.00    +0.000 A 
ATOM      3  C   UNL     1       4.857   3.524  19.422  0.00  0.00    +0.000 A 
ATOM      4  C   UNL     1       4.860   4.725  18.735  0.00  0.00    +0.000 A 
ATOM      5  N   UNL     1       6.050   5.172  18.316  0.00  0.00    +0.000 NA
ATOM      6  C   UNL     1       6.106   6.349  17.669  0.00  0.00    +0.000 A 
ATOM      7  C   UNL     1       7.465   6.824  17.255  0.00  0.00    +0.000 C 
ATOM      8  C   UNL     1       4.979   7.117  17.415  0.00  0.00    +0.000 A 
ATOM      9  C   UNL     1       3.715   6.666  17.829  0.00  0.00    +0.000 A 
ATOM     10  C   UNL     1       3.647   5.416  18.524  0.00  0.00    +0.000 A 
ATOM     11  C   UNL     1       2.455   4.817  19.020  0.00  0.00    +0.000 A 
ENDROOT
BRANCH   1  13
ATOM     12  C   UNL     1       1.190   2.699  21.482  0.00  0.00    +0.000 C 
ATOM     13  O   UNL     1       1.258   3.130  20.126  0.00  0.00    +0.000 OA
ENDBRANCH   1  13
BRANCH   9  14
ATOM     14  N   UNL     1       2.572   7.515  17.739  0.00  0.00    +0.000 N 
ATOM     15  H   UNL     1       2.686   8.265  17.048  0.00  0.00    +0.000 HD
BRANCH  14  16
ATOM     16  N   UNL     1       2.108   8.055  18.961  0.00  0.00    +0.000 N 
ATOM     17  C   UNL     1       1.264   9.156  18.850  0.00  0.00    +0.000 C 
ATOM     18  O   UNL     1       1.012   9.711  17.785  0.00  0.00    +0.000 OA
ATOM     19  H   UNL     1       1.886   7.370  19.676  0.00  0.00    +0.000 HD
BRANCH  17  20
ATOM     20  C   UNL     1       0.652   9.636  20.122  0.00  0.00    +0.000 A 
ATOM     21  C   UNL     1      -0.099  10.821  20.162  0.00  0.00    +0.000 A 
ATOM     22  C   UNL     1      -0.707  11.222  21.356  0.00  0.00    +0.000 A 
ATOM     23  C   UNL     1      -0.566  10.442  22.499  0.00  0.00    +0.000 A 
ATOM     24  F   UNL     1      -1.153  10.829  23.636  0.00  0.00    +0.000 F 
ATOM     25  C   UNL     1       0.172   9.263  22.472  0.00  0.00    +0.000 A 
ATOM     26  C   UNL     1       0.777   8.853  21.278  0.00  0.00    +0.000 A 
ENDBRANCH  17  20
ENDBRANCH  14  16
ENDBRANCH   9  14
TORSDOF 4
ENDMDL
