MODEL 1
REMARK VINA RESULT:      -7.2      0.000      0.000
REMARK  Name = 
REMARK  2 active torsions:
REMARK  status: ('A' for Active; 'I' for Inactive)
REMARK    1  A    between atoms: C_1  and  C_2
REMARK    2  A    between atoms: C_2  and  C_3
REMARK                            x       y       z     vdW  Elec       q    Type
REMARK                         _______ _______ _______ _____ _____    ______ ____
ROOT
ATOM      1  C   UNL     1       7.143   6.858  17.228  0.00  0.00    +0.000 C 
ATOM      2  O   UNL     1       7.748   6.640  15.938  0.00  0.00    +0.000 OA
ATOM      3  C   UNL     1       7.177   5.699  15.114  0.00  0.00    +0.000 A 
ATOM      4  C   UNL     1       7.730   5.620  13.835  0.00  0.00    +0.000 A 
ATOM      5  C   UNL     1       7.240   4.694  12.914  0.00  0.00    +0.000 A 
ATOM      6  C   UNL     1       6.227   3.815  13.294  0.00  0.00    +0.000 A 
ATOM      7 BR   UNL     1       5.556   2.574  12.035  0.00  0.00    +0.000 Br
ATOM      8  C   UNL     1       5.679   3.870  14.577  0.00  0.00    +0.000 A 
ATOM      9  C   UNL     1       6.132   4.832  15.493  0.00  0.00    +0.000 A 
ATOM     10  C   UNL     1       5.447   5.074  16.817  0.00  0.00    +0.000 C 
ATOM     11  C   UNL     1       4.315   6.070  16.547  0.00  0.00    +0.000 C 
ATOM     12  O   UNL     1       3.471   5.903  17.664  0.00  0.00    +0.000 OA
ATOM     13  C   UNL     1       3.689   4.613  17.990  0.00  0.00    +0.000 C 
ATOM     14  N   UNL     1       2.814   4.192  18.926  0.00  0.00    +0.000 N 
ATOM     15  N   UNL     1       4.698   3.975  17.474  0.00  0.00    +0.000 NA
ATOM     16  C   UNL     1       6.560   5.551  17.781  0.00  0.00    +0.000 C 
ATOM     17  C   UNL     1       6.341   5.438  19.324  0.00  0.00    +0.000 C 
ATOM     18  O   UNL     1       7.682   4.898  19.489  0.00  0.00    +0.000 OA
ATOM     19  C   UNL     1       7.665   4.488  18.090  0.00  0.00    +0.000 C 
ATOM     20  H   UNL     1       2.372   4.967  19.409  0.00  0.00    +0.000 HD
ATOM     21  H   UNL     1       3.206   3.506  19.559  0.00  0.00    +0.000 HD
ENDROOT
BRANCH   1  23
ATOM     22  C   UNL     1       8.158   9.073  17.941  0.00  0.00    +0.000 C 
ATOM     23  C   UNL     1       8.141   7.566  18.159  0.00  0.00    +0.000 C 
ENDBRANCH   1  23
TORSDOF 1
ENDMDL
MODEL 2
REMARK VINA RESULT:      -6.5      8.104     11.180
REMARK  Name = 
REMARK  2 active torsions:
REMARK  status: ('A' for Active; 'I' for Inactive)
REMARK    1  A    between atoms: C_1  and  C_2
REMARK    2  A    between atoms: C_2  and  C_3
REMARK                            x       y       z     vdW  Elec       q    Type
REMARK                         _______ _______ _______ _____ _____    ______ ____
ROOT
ATOM      1  C   UNL     1       9.326  11.647  19.665  0.00  0.00    +0.000 C 
ATOM      2  O   UNL     1       8.962  11.806  21.051  0.00  0.00    +0.000 OA
ATOM      3  C   UNL     1       9.178  13.033  21.633  0.00  0.00    +0.000 A 
ATOM      4  C   UNL     1       8.694  13.163  22.935  0.00  0.00    +0.000 A 
ATOM      5  C   UNL     1       8.864  14.359  23.631  0.00  0.00    +0.000 A 
ATOM      6  C   UNL     1       9.563  15.408  23.038  0.00  0.00    +0.000 A 
ATOM      7 BR   UNL     1       9.774  17.033  23.981  0.00  0.00    +0.000 Br
ATOM      8  C   UNL     1      10.071  15.285  21.742  0.00  0.00    +0.000 A 
ATOM      9  C   UNL     1       9.860  14.102  21.016  0.00  0.00    +0.000 A 
ATOM     10  C   UNL     1      10.204  13.980  19.552  0.00  0.00    +0.000 C 
ATOM     11  C   UNL     1       8.995  14.506  18.773  0.00  0.00    +0.000 C 
ATOM     12  O   UNL     1       9.533  14.786  17.500  0.00  0.00    +0.000 OA
ATOM     13  C   UNL     1      10.812  15.089  17.797  0.00  0.00    +0.000 C 
ATOM     14  N   UNL     1      11.457  15.588  16.722  0.00  0.00    +0.000 N 
ATOM     15  N   UNL     1      11.288  14.813  18.975  0.00  0.00    +0.000 NA
ATOM     16  C   UNL     1      10.564  12.491  19.330  0.00  0.00    +0.000 C 
ATOM     17  C   UNL     1      11.418  12.083  18.087  0.00  0.00    +0.000 C 
ATOM     18  O   UNL     1      12.244  11.222  18.921  0.00  0.00    +0.000 OA
ATOM     19  C   UNL     1      11.843  12.002  20.085  0.00  0.00    +0.000 C 
ATOM     20  H   UNL     1      10.976  15.369  15.855  0.00  0.00    +0.000 HD
ATOM     21  H   UNL     1      12.440  15.345  16.697  0.00  0.00    +0.000 HD
ENDROOT
BRANCH   1  23
ATOM     22  C   UNL     1       8.509   9.737  18.207  0.00  0.00    +0.000 C 
ATOM     23  C   UNL     1       9.454  10.153  19.327  0.00  0.00    +0.000 C 
ENDBRANCH   1  23
TORSDOF 1
ENDMDL
MODEL 3
REMARK VINA RESULT:      -6.3      8.407     11.388
REMARK  Name = 
REMARK  2 active torsions:
REMARK  status: ('A' for Active; 'I' for Inactive)
REMARK    1  A    between atoms: C_1  and  C_2
REMARK    2  A    between atoms: C_2  and  C_3
REMARK                            x       y       z     vdW  Elec       q    Type
REMARK                         _______ _______ _______ _____ _____    ______ ____
ROOT
ATOM      1  C   UNL     1       9.222  12.344  18.761  0.00  0.00    +0.000 C 
ATOM      2  O   UNL     1       8.997  12.117  20.167  0.00  0.00    +0.000 OA
ATOM      3  C   UNL     1       9.160  13.182  21.021  0.00  0.00    +0.000 A 
ATOM      4  C   UNL     1       8.811  12.934  22.349  0.00  0.00    +0.000 A 
ATOM      5  C   UNL     1       8.944  13.936  23.310  0.00  0.00    +0.000 A 
ATOM      6  C   UNL     1       9.474  15.173  22.946  0.00  0.00    +0.000 A 
ATOM      7 BR   UNL     1       9.636  16.532  24.250  0.00  0.00    +0.000 Br
ATOM      8  C   UNL     1       9.847  15.428  21.625  0.00  0.00    +0.000 A 
ATOM      9  C   UNL     1       9.669  14.441  20.642  0.00  0.00    +0.000 A 
ATOM     10  C   UNL     1       9.863  14.720  19.171  0.00  0.00    +0.000 C 
ATOM     11  C   UNL     1       8.532  15.275  18.654  0.00  0.00    +0.000 C 
ATOM     12  O   UNL     1       8.900  15.916  17.453  0.00  0.00    +0.000 OA
ATOM     13  C   UNL     1      10.171  16.286  17.711  0.00  0.00    +0.000 C 
ATOM     14  N   UNL     1      10.646  17.103  16.748  0.00  0.00    +0.000 N 
ATOM     15  N   UNL     1      10.795  15.789  18.738  0.00  0.00    +0.000 NA
ATOM     16  C   UNL     1      10.332  13.382  18.551  0.00  0.00    +0.000 C 
ATOM     17  C   UNL     1      11.081  13.391  17.179  0.00  0.00    +0.000 C 
ATOM     18  O   UNL     1      12.068  12.456  17.697  0.00  0.00    +0.000 OA
ATOM     19  C   UNL     1      11.725  12.877  19.049  0.00  0.00    +0.000 C 
ATOM     20  H   UNL     1      10.096  17.047  15.897  0.00  0.00    +0.000 HD
ATOM     21  H   UNL     1      11.638  16.990  16.583  0.00  0.00    +0.000 HD
ENDROOT
BRANCH   1  23
ATOM     22  C   UNL     1       8.953   9.821  18.873  0.00  0.00    +0.000 C 
ATOM     23  C   UNL     1       9.450  11.002  18.047  0.00  0.00    +0.000 C 
ENDBRANCH   1  23
TORSDOF 1
ENDMDL
MODEL 4
REMARK VINA RESULT:      -6.3      2.911      4.474
REMARK  Name = 
REMARK  2 active torsions:
REMARK  status: ('A' for Active; 'I' for Inactive)
REMARK    1  A    between atoms: C_1  and  C_2
REMARK    2  A    between atoms: C_2  and  C_3
REMARK                            x       y       z     vdW  Elec       q    Type
REMARK                         _______ _______ _______ _____ _____    ______ ____
ROOT
ATOM      1  C   UNL     1       2.045   6.434  19.380  0.00  0.00    +0.000 C 
ATOM      2  O   UNL     1       3.107   7.061  18.635  0.00  0.00    +0.000 OA
ATOM      3  C   UNL     1       3.782   6.295  17.714  0.00  0.00    +0.000 A 
ATOM      4  C   UNL     1       4.714   6.986  16.939  0.00  0.00    +0.000 A 
ATOM      5  C   UNL     1       5.467   6.310  15.978  0.00  0.00    +0.000 A 
ATOM      6  C   UNL     1       5.320   4.932  15.831  0.00  0.00    +0.000 A 
ATOM      7 BR   UNL     1       6.332   4.027  14.516  0.00  0.00    +0.000 Br
ATOM      8  C   UNL     1       4.405   4.225  16.615  0.00  0.00    +0.000 A 
ATOM      9  C   UNL     1       3.608   4.906  17.549  0.00  0.00    +0.000 A 
ATOM     10  C   UNL     1       2.468   4.236  18.278  0.00  0.00    +0.000 C 
ATOM     11  C   UNL     1       1.243   4.342  17.365  0.00  0.00    +0.000 C 
ATOM     12  O   UNL     1       0.382   3.346  17.870  0.00  0.00    +0.000 OA
ATOM     13  C   UNL     1       1.255   2.447  18.368  0.00  0.00    +0.000 C 
ATOM     14  N   UNL     1       0.630   1.306  18.724  0.00  0.00    +0.000 N 
ATOM     15  N   UNL     1       2.504   2.774  18.523  0.00  0.00    +0.000 NA
ATOM     16  C   UNL     1       2.367   4.957  19.644  0.00  0.00    +0.000 C 
ATOM     17  C   UNL     1       1.646   4.249  20.836  0.00  0.00    +0.000 C 
ATOM     18  O   UNL     1       2.725   4.633  21.734  0.00  0.00    +0.000 OA
ATOM     19  C   UNL     1       3.605   4.773  20.581  0.00  0.00    +0.000 C 
ATOM     20  H   UNL     1      -0.370   1.439  18.832  0.00  0.00    +0.000 HD
ATOM     21  H   UNL     1       1.054   0.851  19.523  0.00  0.00    +0.000 HD
ENDROOT
BRANCH   1  23
ATOM     22  C   UNL     1       1.265   8.670  20.296  0.00  0.00    +0.000 C 
ATOM     23  C   UNL     1       1.732   7.261  20.638  0.00  0.00    +0.000 C 
ENDBRANCH   1  23
TORSDOF 1
ENDMDL
MODEL 5
REMARK VINA RESULT:      -6.1      3.995      6.069
REMARK  Name = 
REMARK  2 active torsions:
REMARK  status: ('A' for Active; 'I' for Inactive)
REMARK    1  A    between atoms: C_1  and  C_2
REMARK    2  A    between atoms: C_2  and  C_3
REMARK                            x       y       z     vdW  Elec       q    Type
REMARK                         _______ _______ _______ _____ _____    ______ ____
ROOT
ATOM      1  C   UNL     1       4.075   4.380  17.870  0.00  0.00    +0.000 C 
ATOM      2  O   UNL     1       4.036   5.744  17.406  0.00  0.00    +0.000 OA
ATOM      3  C   UNL     1       3.194   6.617  18.053  0.00  0.00    +0.000 A 
ATOM      4  C   UNL     1       3.291   7.946  17.641  0.00  0.00    +0.000 A 
ATOM      5  C   UNL     1       2.478   8.921  18.218  0.00  0.00    +0.000 A 
ATOM      6  C   UNL     1       1.534   8.553  19.175  0.00  0.00    +0.000 A 
ATOM      7 BR   UNL     1       0.447   9.883  19.966  0.00  0.00    +0.000 Br
ATOM      8  C   UNL     1       1.412   7.223  19.582  0.00  0.00    +0.000 A 
ATOM      9  C   UNL     1       2.261   6.243  19.042  0.00  0.00    +0.000 A 
ATOM     10  C   UNL     1       2.317   4.835  19.582  0.00  0.00    +0.000 C 
ATOM     11  C   UNL     1       3.312   4.853  20.747  0.00  0.00    +0.000 C 
ATOM     12  O   UNL     1       2.984   3.683  21.463  0.00  0.00    +0.000 OA
ATOM     13  C   UNL     1       1.669   3.551  21.198  0.00  0.00    +0.000 C 
ATOM     14  N   UNL     1       1.112   2.590  21.963  0.00  0.00    +0.000 N 
ATOM     15  N   UNL     1       1.126   4.249  20.244  0.00  0.00    +0.000 NA
ATOM     16  C   UNL     1       2.694   3.941  18.376  0.00  0.00    +0.000 C 
ATOM     17  C   UNL     1       2.381   2.411  18.426  0.00  0.00    +0.000 C 
ATOM     18  O   UNL     1       1.857   2.460  17.070  0.00  0.00    +0.000 OA
ATOM     19  C   UNL     1       1.627   3.890  17.234  0.00  0.00    +0.000 C 
ATOM     20  H   UNL     1       1.809   1.967  22.357  0.00  0.00    +0.000 HD
ATOM     21  H   UNL     1       0.361   2.095  21.498  0.00  0.00    +0.000 HD
ENDROOT
BRANCH   1  23
ATOM     22  C   UNL     1       5.315   4.281  15.657  0.00  0.00    +0.000 C 
ATOM     23  C   UNL     1       4.681   3.476  16.785  0.00  0.00    +0.000 C 
ENDBRANCH   1  23
TORSDOF 1
ENDMDL
MODEL 6
REMARK VINA RESULT:      -6.1      8.430     10.177
REMARK  Name = 
REMARK  2 active torsions:
REMARK  status: ('A' for Active; 'I' for Inactive)
REMARK    1  A    between atoms: C_1  and  C_2
REMARK    2  A    between atoms: C_2  and  C_3
REMARK                            x       y       z     vdW  Elec       q    Type
REMARK                         _______ _______ _______ _____ _____    ______ ____
ROOT
ATOM      1  C   UNL     1       0.793  10.083  18.773  0.00  0.00    +0.000 C 
ATOM      2  O   UNL     1      -0.179   9.642  17.804  0.00  0.00    +0.000 OA
ATOM      3  C   UNL     1      -1.402  10.270  17.791  0.00  0.00    +0.000 A 
ATOM      4  C   UNL     1      -2.254   9.886  16.755  0.00  0.00    +0.000 A 
ATOM      5  C   UNL     1      -3.525  10.449  16.646  0.00  0.00    +0.000 A 
ATOM      6  C   UNL     1      -3.960  11.361  17.607  0.00  0.00    +0.000 A 
ATOM      7 BR   UNL     1      -5.678  12.131  17.443  0.00  0.00    +0.000 Br
ATOM      8  C   UNL     1      -3.125  11.739  18.661  0.00  0.00    +0.000 A 
ATOM      9  C   UNL     1      -1.825  11.215  18.748  0.00  0.00    +0.000 A 
ATOM     10  C   UNL     1      -0.811  11.732  19.740  0.00  0.00    +0.000 C 
ATOM     11  C   UNL     1      -0.130  12.935  19.081  0.00  0.00    +0.000 C 
ATOM     12  O   UNL     1       0.441  13.617  20.175  0.00  0.00    +0.000 OA
ATOM     13  C   UNL     1      -0.405  13.299  21.176  0.00  0.00    +0.000 C 
ATOM     14  N   UNL     1      -0.146  14.024  22.283  0.00  0.00    +0.000 N 
ATOM     15  N   UNL     1      -1.266  12.337  21.016  0.00  0.00    +0.000 NA
ATOM     16  C   UNL     1       0.102  10.527  20.070  0.00  0.00    +0.000 C 
ATOM     17  C   UNL     1       0.944  10.537  21.386  0.00  0.00    +0.000 C 
ATOM     18  O   UNL     1       0.556   9.162  21.661  0.00  0.00    +0.000 OA
ATOM     19  C   UNL     1      -0.608   9.342  20.803  0.00  0.00    +0.000 C 
ATOM     20  H   UNL     1       0.782  14.434  22.260  0.00  0.00    +0.000 HD
ATOM     21  H   UNL     1      -0.331  13.521  23.142  0.00  0.00    +0.000 HD
ENDROOT
BRANCH   1  23
ATOM     22  C   UNL     1       2.290   8.383  17.627  0.00  0.00    +0.000 C 
ATOM     23  C   UNL     1       1.875   9.006  18.954  0.00  0.00    +0.000 C 
ENDBRANCH   1  23
TORSDOF 1
ENDMDL
MODEL 7
REMARK VINA RESULT:      -6.1      2.040      4.069
REMARK  Name = 
REMARK  2 active torsions:
REMARK  status: ('A' for Active; 'I' for Inactive)
REMARK    1  A    between atoms: C_1  and  C_2
REMARK    2  A    between atoms: C_2  and  C_3
REMARK                            x       y       z     vdW  Elec       q    Type
REMARK                         _______ _______ _______ _____ _____    ______ ____
ROOT
ATOM      1  C   UNL     1       4.779   3.666  17.851  0.00  0.00    +0.000 C 
ATOM      2  O   UNL     1       4.591   3.247  16.485  0.00  0.00    +0.000 OA
ATOM      3  C   UNL     1       5.400   3.808  15.526  0.00  0.00    +0.000 A 
ATOM      4  C   UNL     1       5.256   3.275  14.245  0.00  0.00    +0.000 A 
ATOM      5  C   UNL     1       6.017   3.772  13.187  0.00  0.00    +0.000 A 
ATOM      6  C   UNL     1       6.886   4.839  13.406  0.00  0.00    +0.000 A 
ATOM      7 BR   UNL     1       7.926   5.498  11.971  0.00  0.00    +0.000 Br
ATOM      8  C   UNL     1       7.025   5.397  14.679  0.00  0.00    +0.000 A 
ATOM      9  C   UNL     1       6.300   4.868  15.759  0.00  0.00    +0.000 A 
ATOM     10  C   UNL     1       6.553   5.290  17.186  0.00  0.00    +0.000 C 
ATOM     11  C   UNL     1       7.695   4.411  17.705  0.00  0.00    +0.000 C 
ATOM     12  O   UNL     1       8.169   5.131  18.821  0.00  0.00    +0.000 OA
ATOM     13  C   UNL     1       7.888   6.403  18.474  0.00  0.00    +0.000 C 
ATOM     14  N   UNL     1       8.452   7.279  19.331  0.00  0.00    +0.000 N 
ATOM     15  N   UNL     1       7.092   6.642  17.474  0.00  0.00    +0.000 NA
ATOM     16  C   UNL     1       5.194   5.143  17.912  0.00  0.00    +0.000 C 
ATOM     17  C   UNL     1       4.944   5.923  19.243  0.00  0.00    +0.000 C 
ATOM     18  O   UNL     1       3.625   6.324  18.775  0.00  0.00    +0.000 OA
ATOM     19  C   UNL     1       4.068   6.101  17.405  0.00  0.00    +0.000 C 
ATOM     20  H   UNL     1       8.714   6.837  20.207  0.00  0.00    +0.000 HD
ATOM     21  H   UNL     1       7.902   8.118  19.464  0.00  0.00    +0.000 HD
ENDROOT
BRANCH   1  23
ATOM     22  C   UNL     1       2.437   2.686  17.830  0.00  0.00    +0.000 C 
ATOM     23  C   UNL     1       3.534   3.311  18.682  0.00  0.00    +0.000 C 
ENDBRANCH   1  23
TORSDOF 1
ENDMDL
MODEL 8
REMARK VINA RESULT:      -5.7      3.246      5.455
REMARK  Name = 
REMARK  2 active torsions:
REMARK  status: ('A' for Active; 'I' for Inactive)
REMARK    1  A    between atoms: C_1  and  C_2
REMARK    2  A    between atoms: C_2  and  C_3
REMARK                            x       y       z     vdW  Elec       q    Type
REMARK                         _______ _______ _______ _____ _____    ______ ____
ROOT
ATOM      1  C   UNL     1       4.808   3.911  19.014  0.00  0.00    +0.000 C 
ATOM      2  O   UNL     1       3.825   4.651  19.765  0.00  0.00    +0.000 OA
ATOM      3  C   UNL     1       3.377   5.838  19.237  0.00  0.00    +0.000 A 
ATOM      4  C   UNL     1       2.339   6.446  19.945  0.00  0.00    +0.000 A 
ATOM      5  C   UNL     1       1.810   7.661  19.511  0.00  0.00    +0.000 A 
ATOM      6  C   UNL     1       2.356   8.291  18.394  0.00  0.00    +0.000 A 
ATOM      7 BR   UNL     1       1.623   9.929  17.801  0.00  0.00    +0.000 Br
ATOM      8  C   UNL     1       3.409   7.704  17.688  0.00  0.00    +0.000 A 
ATOM      9  C   UNL     1       3.913   6.456  18.089  0.00  0.00    +0.000 A 
ATOM     10  C   UNL     1       4.905   5.680  17.257  0.00  0.00    +0.000 C 
ATOM     11  C   UNL     1       4.088   4.867  16.249  0.00  0.00    +0.000 C 
ATOM     12  O   UNL     1       5.036   4.545  15.256  0.00  0.00    +0.000 OA
ATOM     13  C   UNL     1       5.886   5.590  15.331  0.00  0.00    +0.000 C 
ATOM     14  N   UNL     1       6.769   5.575  14.311  0.00  0.00    +0.000 N 
ATOM     15  N   UNL     1       5.831   6.399  16.347  0.00  0.00    +0.000 NA
ATOM     16  C   UNL     1       5.749   4.866  18.267  0.00  0.00    +0.000 C 
ATOM     17  C   UNL     1       7.154   4.330  17.840  0.00  0.00    +0.000 C 
ATOM     18  O   UNL     1       7.723   4.774  19.103  0.00  0.00    +0.000 OA
ATOM     19  C   UNL     1       6.625   5.723  19.238  0.00  0.00    +0.000 C 
ATOM     20  H   UNL     1       6.824   4.662  13.870  0.00  0.00    +0.000 HD
ATOM     21  H   UNL     1       7.677   5.945  14.563  0.00  0.00    +0.000 HD
ENDROOT
BRANCH   1  23
ATOM     22  C   UNL     1       4.548   1.850  20.474  0.00  0.00    +0.000 C 
ATOM     23  C   UNL     1       5.512   2.898  19.932  0.00  0.00    +0.000 C 
ENDBRANCH   1  23
TORSDOF 1
ENDMDL
MODEL 9
REMARK VINA RESULT:      -5.7     10.389     12.373
REMARK  Name = 
REMARK  2 active torsions:
REMARK  status: ('A' for Active; 'I' for Inactive)
REMARK    1  A    between atoms: C_1  and  C_2
REMARK    2  A    between atoms: C_2  and  C_3
REMARK                            x       y       z     vdW  Elec       q    Type
REMARK                         _______ _______ _______ _____ _____    ______ ____
ROOT
ATOM      1  C   UNL     1      -2.260  13.289  23.109  0.00  0.00    +0.000 C 
ATOM      2  O   UNL     1      -1.927  11.941  23.495  0.00  0.00    +0.000 OA
ATOM      3  C   UNL     1      -1.119  11.214  22.654  0.00  0.00    +0.000 A 
ATOM      4  C   UNL     1      -0.732   9.964  23.138  0.00  0.00    +0.000 A 
ATOM      5  C   UNL     1       0.081   9.133  22.367  0.00  0.00    +0.000 A 
ATOM      6  C   UNL     1       0.464   9.536  21.089  0.00  0.00    +0.000 A 
ATOM      7 BR   UNL     1       1.579   8.412  20.057  0.00  0.00    +0.000 Br
ATOM      8  C   UNL     1       0.067  10.777  20.584  0.00  0.00    +0.000 A 
ATOM      9  C   UNL     1      -0.709  11.640  21.373  0.00  0.00    +0.000 A 
ATOM     10  C   UNL     1      -0.999  13.065  20.967  0.00  0.00    +0.000 C 
ATOM     11  C   UNL     1       0.182  13.908  21.456  0.00  0.00    +0.000 C 
ATOM     12  O   UNL     1       0.079  15.081  20.680  0.00  0.00    +0.000 OA
ATOM     13  C   UNL     1      -0.496  14.620  19.550  0.00  0.00    +0.000 C 
ATOM     14  N   UNL     1      -0.499  15.563  18.585  0.00  0.00    +0.000 N 
ATOM     15  N   UNL     1      -1.027  13.433  19.530  0.00  0.00    +0.000 NA
ATOM     16  C   UNL     1      -2.379  13.401  21.582  0.00  0.00    +0.000 C 
ATOM     17  C   UNL     1      -3.217  14.582  20.994  0.00  0.00    +0.000 C 
ATOM     18  O   UNL     1      -4.417  13.760  21.018  0.00  0.00    +0.000 OA
ATOM     19  C   UNL     1      -3.575  12.570  21.014  0.00  0.00    +0.000 C 
ATOM     20  H   UNL     1      -0.353  16.493  18.963  0.00  0.00    +0.000 HD
ATOM     21  H   UNL     1      -1.306  15.508  17.976  0.00  0.00    +0.000 HD
ENDROOT
BRANCH   1  23
ATOM     22  C   UNL     1      -4.189  12.621  24.618  0.00  0.00    +0.000 C 
ATOM     23  C   UNL     1      -3.496  13.765  23.889  0.00  0.00    +0.000 C 
ENDBRANCH   1  23
TORSDOF 1
ENDMDL
