MODEL 1
REMARK VINA RESULT:      -8.6      0.000      0.000
REMARK  Name = 
REMARK  13 active torsions:
REMARK  status: ('A' for Active; 'I' for Inactive)
REMARK    1  A    between atoms: C_1  and  C_2
REMARK    2  A    between atoms: N_4  and  C_5
REMARK    3  A    between atoms: C_5  and  C_6
REMARK    4  A    between atoms: C_5  and  C_16
REMARK    5  A    between atoms: C_6  and  C_7
REMARK    6  A    between atoms: C_16  and  O_18
REMARK    7  A    between atoms: O_18  and  C_19
REMARK    8  A    between atoms: C_19  and  C_20
REMARK    9  A    between atoms: N_22  and  C_23
REMARK   10  A    between atoms: C_26  and  S_27
REMARK   11  A    between atoms: S_27  and  N_30
REMARK   12  A    between atoms: N_30  and  C_31
REMARK   13  A    between atoms: N_30  and  C_32
REMARK                            x       y       z     vdW  Elec       q    Type
REMARK                         _______ _______ _______ _____ _____    ______ ____
ROOT
ATOM      1  C   UNL     1       6.196   5.445  18.049  0.00  0.00    +0.000 C 
ATOM      2  O   UNL     1       6.181   4.265  18.389  0.00  0.00    +0.000 OA
ENDROOT
BRANCH   1   3
ATOM      3  C   UNL     1       5.495   6.016  16.797  0.00  0.00    +0.000 C 
BRANCH   3   7
ATOM      4  C   UNL     1       6.222   3.759  13.817  0.00  0.00    +0.000 C 
ATOM      5  C   UNL     1       6.456   4.858  14.819  0.00  0.00    +0.000 C 
ATOM      6  O   UNL     1       7.496   5.505  14.858  0.00  0.00    +0.000 OA
ATOM      7  N   UNL     1       5.406   5.059  15.684  0.00  0.00    +0.000 N 
ATOM      8  H   UNL     1       4.706   4.328  15.758  0.00  0.00    +0.000 HD
ENDBRANCH   3   7
BRANCH   3   9
ATOM      9  C   UNL     1       4.111   6.594  17.149  0.00  0.00    +0.000 C 
BRANCH   9  10
ATOM     10  C   UNL     1       3.431   5.891  18.290  0.00  0.00    +0.000 A 
ATOM     11  C   UNL     1       3.161   6.441  19.530  0.00  0.00    +0.000 A 
ATOM     12  N   UNL     1       2.653   5.465  20.337  0.00  0.00    +0.000 N 
ATOM     13  C   UNL     1       2.464   4.311  19.616  0.00  0.00    +0.000 A 
ATOM     14  C   UNL     1       1.924   3.085  20.019  0.00  0.00    +0.000 A 
ATOM     15  C   UNL     1       1.788   2.090  19.050  0.00  0.00    +0.000 A 
ATOM     16  C   UNL     1       2.194   2.310  17.736  0.00  0.00    +0.000 A 
ATOM     17  C   UNL     1       2.773   3.529  17.359  0.00  0.00    +0.000 A 
ATOM     18  C   UNL     1       2.909   4.557  18.316  0.00  0.00    +0.000 A 
ATOM     19  H   UNL     1       2.415   5.571  21.314  0.00  0.00    +0.000 HD
ENDBRANCH   9  10
ENDBRANCH   3   9
ENDBRANCH   1   3
BRANCH   1  20
ATOM     20  O   UNL     1       6.786   6.421  18.788  0.00  0.00    +0.000 OA
BRANCH  20  21
ATOM     21  C   UNL     1       8.081   6.831  18.352  0.00  0.00    +0.000 C 
BRANCH  21  22
ATOM     22  C   UNL     1       8.129   8.350  18.294  0.00  0.00    +0.000 C 
ATOM     23  O   UNL     1       7.389   8.958  17.524  0.00  0.00    +0.000 OA
ATOM     24  N   UNL     1       9.083   8.914  19.130  0.00  0.00    +0.000 N 
ATOM     25  H   UNL     1       9.742   8.271  19.566  0.00  0.00    +0.000 HD
BRANCH  24  26
ATOM     26  C   UNL     1       9.313  10.297  19.299  0.00  0.00    +0.000 A 
ATOM     27  C   UNL     1       9.328  10.918  20.553  0.00  0.00    +0.000 A 
ATOM     28  C   UNL     1       9.531  12.290  20.675  0.00  0.00    +0.000 A 
ATOM     29  C   UNL     1       9.751  13.056  19.536  0.00  0.00    +0.000 A 
ATOM     30  C   UNL     1       9.736  12.462  18.271  0.00  0.00    +0.000 A 
ATOM     31  C   UNL     1       9.539  11.079  18.156  0.00  0.00    +0.000 A 
BRANCH  29  32
ATOM     32  S   UNL     1       9.999  14.814  19.702  0.00  0.00    +0.000 S 
ATOM     33  O   UNL     1      10.195  15.079  21.113  0.00  0.00    +0.000 OA
ATOM     34  O   UNL     1      10.988  15.211  18.723  0.00  0.00    +0.000 OA
BRANCH  32  35
ATOM     35  N   UNL     1       8.492  15.458  19.239  0.00  0.00    +0.000 NA
ATOM     36  C   UNL     1       8.328  15.829  17.822  0.00  0.00    +0.000 C 
ATOM     37  C   UNL     1       7.299  14.811  19.812  0.00  0.00    +0.000 C 
ENDBRANCH  32  35
ENDBRANCH  29  32
ENDBRANCH  24  26
ENDBRANCH  21  22
ENDBRANCH  20  21
ENDBRANCH   1  20
TORSDOF 10
ENDMDL
MODEL 2
REMARK VINA RESULT:      -8.2      5.796      8.049
REMARK  Name = 
REMARK  13 active torsions:
REMARK  status: ('A' for Active; 'I' for Inactive)
REMARK    1  A    between atoms: C_1  and  C_2
REMARK    2  A    between atoms: N_4  and  C_5
REMARK    3  A    between atoms: C_5  and  C_6
REMARK    4  A    between atoms: C_5  and  C_16
REMARK    5  A    between atoms: C_6  and  C_7
REMARK    6  A    between atoms: C_16  and  O_18
REMARK    7  A    between atoms: O_18  and  C_19
REMARK    8  A    between atoms: C_19  and  C_20
REMARK    9  A    between atoms: N_22  and  C_23
REMARK   10  A    between atoms: C_26  and  S_27
REMARK   11  A    between atoms: S_27  and  N_30
REMARK   12  A    between atoms: N_30  and  C_31
REMARK   13  A    between atoms: N_30  and  C_32
REMARK                            x       y       z     vdW  Elec       q    Type
REMARK                         _______ _______ _______ _____ _____    ______ ____
ROOT
ATOM      1  C   UNL     1       4.931   5.286  18.881  0.00  0.00    +0.000 C 
ATOM      2  O   UNL     1       5.894   5.341  19.643  0.00  0.00    +0.000 OA
ENDROOT
BRANCH   1   3
ATOM      3  C   UNL     1       4.611   4.104  17.941  0.00  0.00    +0.000 C 
BRANCH   3   7
ATOM      4  C   UNL     1       2.399   1.705  19.905  0.00  0.00    +0.000 C 
ATOM      5  C   UNL     1       3.665   2.408  19.492  0.00  0.00    +0.000 C 
ATOM      6  O   UNL     1       4.730   2.242  20.073  0.00  0.00    +0.000 OA
ATOM      7  N   UNL     1       3.510   3.254  18.418  0.00  0.00    +0.000 N 
ATOM      8  H   UNL     1       2.568   3.531  18.165  0.00  0.00    +0.000 HD
ENDBRANCH   3   7
BRANCH   3   9
ATOM      9  C   UNL     1       4.357   4.592  16.502  0.00  0.00    +0.000 C 
BRANCH   9  10
ATOM     10  C   UNL     1       5.611   4.845  15.715  0.00  0.00    +0.000 A 
ATOM     11  C   UNL     1       6.724   5.529  16.170  0.00  0.00    +0.000 A 
ATOM     12  N   UNL     1       7.604   5.664  15.135  0.00  0.00    +0.000 N 
ATOM     13  C   UNL     1       7.148   4.972  14.039  0.00  0.00    +0.000 A 
ATOM     14  C   UNL     1       7.744   4.795  12.785  0.00  0.00    +0.000 A 
ATOM     15  C   UNL     1       7.082   3.980  11.866  0.00  0.00    +0.000 A 
ATOM     16  C   UNL     1       5.864   3.385  12.184  0.00  0.00    +0.000 A 
ATOM     17  C   UNL     1       5.260   3.609  13.429  0.00  0.00    +0.000 A 
ATOM     18  C   UNL     1       5.915   4.416  14.382  0.00  0.00    +0.000 A 
ATOM     19  H   UNL     1       8.480   6.167  15.167  0.00  0.00    +0.000 HD
ENDBRANCH   9  10
ENDBRANCH   3   9
ENDBRANCH   1   3
BRANCH   1  20
ATOM     20  O   UNL     1       3.975   6.251  18.826  0.00  0.00    +0.000 OA
BRANCH  20  21
ATOM     21  C   UNL     1       2.957   6.170  19.822  0.00  0.00    +0.000 C 
BRANCH  21  22
ATOM     22  C   UNL     1       2.153   7.461  19.816  0.00  0.00    +0.000 C 
ATOM     23  O   UNL     1       2.147   8.175  18.815  0.00  0.00    +0.000 OA
ATOM     24  N   UNL     1       1.512   7.731  21.018  0.00  0.00    +0.000 N 
ATOM     25  H   UNL     1       1.764   7.140  21.809  0.00  0.00    +0.000 HD
BRANCH  24  26
ATOM     26  C   UNL     1       0.674   8.838  21.273  0.00  0.00    +0.000 A 
ATOM     27  C   UNL     1       0.157   9.649  20.257  0.00  0.00    +0.000 A 
ATOM     28  C   UNL     1      -0.644  10.750  20.551  0.00  0.00    +0.000 A 
ATOM     29  C   UNL     1      -0.961  11.034  21.875  0.00  0.00    +0.000 A 
ATOM     30  C   UNL     1      -0.452  10.243  22.909  0.00  0.00    +0.000 A 
ATOM     31  C   UNL     1       0.346   9.132  22.605  0.00  0.00    +0.000 A 
BRANCH  29  32
ATOM     32  S   UNL     1      -1.978  12.452  22.243  0.00  0.00    +0.000 S 
ATOM     33  O   UNL     1      -2.523  12.917  20.984  0.00  0.00    +0.000 OA
ATOM     34  O   UNL     1      -2.845  12.094  23.345  0.00  0.00    +0.000 OA
BRANCH  32  35
ATOM     35  N   UNL     1      -0.848  13.600  22.795  0.00  0.00    +0.000 NA
ATOM     36  C   UNL     1      -0.124  14.375  21.772  0.00  0.00    +0.000 C 
ATOM     37  C   UNL     1      -1.251  14.409  23.959  0.00  0.00    +0.000 C 
ENDBRANCH  32  35
ENDBRANCH  29  32
ENDBRANCH  24  26
ENDBRANCH  21  22
ENDBRANCH  20  21
ENDBRANCH   1  20
TORSDOF 10
ENDMDL
MODEL 3
REMARK VINA RESULT:      -8.1      6.962      9.520
REMARK  Name = 
REMARK  13 active torsions:
REMARK  status: ('A' for Active; 'I' for Inactive)
REMARK    1  A    between atoms: C_1  and  C_2
REMARK    2  A    between atoms: N_4  and  C_5
REMARK    3  A    between atoms: C_5  and  C_6
REMARK    4  A    between atoms: C_5  and  C_16
REMARK    5  A    between atoms: C_6  and  C_7
REMARK    6  A    between atoms: C_16  and  O_18
REMARK    7  A    between atoms: O_18  and  C_19
REMARK    8  A    between atoms: C_19  and  C_20
REMARK    9  A    between atoms: N_22  and  C_23
REMARK   10  A    between atoms: C_26  and  S_27
REMARK   11  A    between atoms: S_27  and  N_30
REMARK   12  A    between atoms: N_30  and  C_31
REMARK   13  A    between atoms: N_30  and  C_32
REMARK                            x       y       z     vdW  Elec       q    Type
REMARK                         _______ _______ _______ _____ _____    ______ ____
ROOT
ATOM      1  C   UNL     1       2.237   6.580  19.760  0.00  0.00    +0.000 C 
ATOM      2  O   UNL     1       2.522   7.366  18.858  0.00  0.00    +0.000 OA
ENDROOT
BRANCH   1   3
ATOM      3  C   UNL     1       2.747   5.126  19.862  0.00  0.00    +0.000 C 
BRANCH   3   7
ATOM      4  C   UNL     1       1.256   2.359  22.012  0.00  0.00    +0.000 C 
ATOM      5  C   UNL     1       2.296   3.076  21.194  0.00  0.00    +0.000 C 
ATOM      6  O   UNL     1       3.442   2.660  21.071  0.00  0.00    +0.000 OA
ATOM      7  N   UNL     1       1.845   4.238  20.610  0.00  0.00    +0.000 N 
ATOM      8  H   UNL     1       0.985   4.643  20.965  0.00  0.00    +0.000 HD
ENDBRANCH   3   7
BRANCH   3   9
ATOM      9  C   UNL     1       3.070   4.551  18.470  0.00  0.00    +0.000 C 
BRANCH   9  10
ATOM     10  C   UNL     1       4.536   4.546  18.140  0.00  0.00    +0.000 A 
ATOM     11  C   UNL     1       5.569   4.543  19.058  0.00  0.00    +0.000 A 
ATOM     12  N   UNL     1       6.750   4.667  18.384  0.00  0.00    +0.000 N 
ATOM     13  C   UNL     1       6.524   4.625  17.030  0.00  0.00    +0.000 A 
ATOM     14  C   UNL     1       7.437   4.667  15.971  0.00  0.00    +0.000 A 
ATOM     15  C   UNL     1       6.930   4.539  14.677  0.00  0.00    +0.000 A 
ATOM     16  C   UNL     1       5.563   4.396  14.454  0.00  0.00    +0.000 A 
ATOM     17  C   UNL     1       4.658   4.400  15.524  0.00  0.00    +0.000 A 
ATOM     18  C   UNL     1       5.145   4.513  16.843  0.00  0.00    +0.000 A 
ATOM     19  H   UNL     1       7.665   4.746  18.806  0.00  0.00    +0.000 HD
ENDBRANCH   9  10
ENDBRANCH   3   9
ENDBRANCH   1   3
BRANCH   1  20
ATOM     20  O   UNL     1       1.479   6.928  20.832  0.00  0.00    +0.000 OA
BRANCH  20  21
ATOM     21  C   UNL     1       1.637   8.269  21.293  0.00  0.00    +0.000 C 
BRANCH  21  22
ATOM     22  C   UNL     1       0.264   8.886  21.510  0.00  0.00    +0.000 C 
ATOM     23  O   UNL     1      -0.730   8.164  21.569  0.00  0.00    +0.000 OA
ATOM     24  N   UNL     1       0.274  10.272  21.577  0.00  0.00    +0.000 N 
ATOM     25  H   UNL     1       1.147  10.733  21.325  0.00  0.00    +0.000 HD
BRANCH  24  26
ATOM     26  C   UNL     1      -0.852  11.093  21.809  0.00  0.00    +0.000 A 
ATOM     27  C   UNL     1      -1.463  11.209  23.062  0.00  0.00    +0.000 A 
ATOM     28  C   UNL     1      -2.590  12.007  23.243  0.00  0.00    +0.000 A 
ATOM     29  C   UNL     1      -3.103  12.725  22.168  0.00  0.00    +0.000 A 
ATOM     30  C   UNL     1      -2.515  12.622  20.904  0.00  0.00    +0.000 A 
ATOM     31  C   UNL     1      -1.376  11.823  20.732  0.00  0.00    +0.000 A 
BRANCH  29  32
ATOM     32  S   UNL     1      -4.552  13.736  22.407  0.00  0.00    +0.000 S 
ATOM     33  O   UNL     1      -4.359  14.461  23.645  0.00  0.00    +0.000 OA
ATOM     34  O   UNL     1      -4.808  14.433  21.165  0.00  0.00    +0.000 OA
BRANCH  32  35
ATOM     35  N   UNL     1      -5.785  12.585  22.645  0.00  0.00    +0.000 NA
ATOM     36  C   UNL     1      -6.498  12.623  23.935  0.00  0.00    +0.000 C 
ATOM     37  C   UNL     1      -6.674  12.331  21.497  0.00  0.00    +0.000 C 
ENDBRANCH  32  35
ENDBRANCH  29  32
ENDBRANCH  24  26
ENDBRANCH  21  22
ENDBRANCH  20  21
ENDBRANCH   1  20
TORSDOF 10
ENDMDL
MODEL 4
REMARK VINA RESULT:      -8.1      5.480      8.181
REMARK  Name = 
REMARK  13 active torsions:
REMARK  status: ('A' for Active; 'I' for Inactive)
REMARK    1  A    between atoms: C_1  and  C_2
REMARK    2  A    between atoms: N_4  and  C_5
REMARK    3  A    between atoms: C_5  and  C_6
REMARK    4  A    between atoms: C_5  and  C_16
REMARK    5  A    between atoms: C_6  and  C_7
REMARK    6  A    between atoms: C_16  and  O_18
REMARK    7  A    between atoms: O_18  and  C_19
REMARK    8  A    between atoms: C_19  and  C_20
REMARK    9  A    between atoms: N_22  and  C_23
REMARK   10  A    between atoms: C_26  and  S_27
REMARK   11  A    between atoms: S_27  and  N_30
REMARK   12  A    between atoms: N_30  and  C_31
REMARK   13  A    between atoms: N_30  and  C_32
REMARK                            x       y       z     vdW  Elec       q    Type
REMARK                         _______ _______ _______ _____ _____    ______ ____
ROOT
ATOM      1  C   UNL     1       1.982   4.643  18.086  0.00  0.00    +0.000 C 
ATOM      2  O   UNL     1       1.027   4.139  17.501  0.00  0.00    +0.000 OA
ENDROOT
BRANCH   1   3
ATOM      3  C   UNL     1       3.016   3.867  18.930  0.00  0.00    +0.000 C 
BRANCH   3   7
ATOM      4  C   UNL     1       1.380   2.190  21.933  0.00  0.00    +0.000 C 
ATOM      5  C   UNL     1       2.097   3.265  21.160  0.00  0.00    +0.000 C 
ATOM      6  O   UNL     1       2.364   4.359  21.643  0.00  0.00    +0.000 OA
ATOM      7  N   UNL     1       2.410   2.910  19.868  0.00  0.00    +0.000 N 
ATOM      8  H   UNL     1       1.935   2.108  19.468  0.00  0.00    +0.000 HD
ENDBRANCH   3   7
BRANCH   3   9
ATOM      9  C   UNL     1       4.065   3.183  18.033  0.00  0.00    +0.000 C 
BRANCH   9  10
ATOM     10  C   UNL     1       4.983   4.143  17.330  0.00  0.00    +0.000 A 
ATOM     11  C   UNL     1       4.999   4.392  15.970  0.00  0.00    +0.000 A 
ATOM     12  N   UNL     1       6.047   5.222  15.694  0.00  0.00    +0.000 N 
ATOM     13  C   UNL     1       6.646   5.627  16.862  0.00  0.00    +0.000 A 
ATOM     14  C   UNL     1       7.715   6.508  17.058  0.00  0.00    +0.000 A 
ATOM     15  C   UNL     1       8.082   6.794  18.373  0.00  0.00    +0.000 A 
ATOM     16  C   UNL     1       7.418   6.204  19.446  0.00  0.00    +0.000 A 
ATOM     17  C   UNL     1       6.379   5.289  19.231  0.00  0.00    +0.000 A 
ATOM     18  C   UNL     1       5.977   4.994  17.911  0.00  0.00    +0.000 A 
ATOM     19  H   UNL     1       6.331   5.529  14.773  0.00  0.00    +0.000 HD
ENDBRANCH   9  10
ENDBRANCH   3   9
ENDBRANCH   1   3
BRANCH   1  20
ATOM     20  O   UNL     1       2.288   5.965  18.001  0.00  0.00    +0.000 OA
BRANCH  20  21
ATOM     21  C   UNL     1       2.724   6.579  19.213  0.00  0.00    +0.000 C 
BRANCH  21  22
ATOM     22  C   UNL     1       1.937   7.862  19.432  0.00  0.00    +0.000 C 
ATOM     23  O   UNL     1       1.734   8.625  18.489  0.00  0.00    +0.000 OA
ATOM     24  N   UNL     1       1.549   8.066  20.749  0.00  0.00    +0.000 N 
ATOM     25  H   UNL     1       1.952   7.438  21.443  0.00  0.00    +0.000 HD
BRANCH  24  26
ATOM     26  C   UNL     1       0.780   9.153  21.221  0.00  0.00    +0.000 A 
ATOM     27  C   UNL     1       0.644  10.351  20.512  0.00  0.00    +0.000 A 
ATOM     28  C   UNL     1      -0.100  11.410  21.025  0.00  0.00    +0.000 A 
ATOM     29  C   UNL     1      -0.745  11.268  22.249  0.00  0.00    +0.000 A 
ATOM     30  C   UNL     1      -0.621  10.083  22.980  0.00  0.00    +0.000 A 
ATOM     31  C   UNL     1       0.124   9.018  22.453  0.00  0.00    +0.000 A 
BRANCH  29  32
ATOM     32  S   UNL     1      -1.687  12.634  22.903  0.00  0.00    +0.000 S 
ATOM     33  O   UNL     1      -2.859  12.070  23.539  0.00  0.00    +0.000 OA
ATOM     34  O   UNL     1      -0.773  13.482  23.639  0.00  0.00    +0.000 OA
BRANCH  32  35
ATOM     35  N   UNL     1      -2.183  13.462  21.500  0.00  0.00    +0.000 NA
ATOM     36  C   UNL     1      -3.561  13.225  21.034  0.00  0.00    +0.000 C 
ATOM     37  C   UNL     1      -1.766  14.871  21.390  0.00  0.00    +0.000 C 
ENDBRANCH  32  35
ENDBRANCH  29  32
ENDBRANCH  24  26
ENDBRANCH  21  22
ENDBRANCH  20  21
ENDBRANCH   1  20
TORSDOF 10
ENDMDL
MODEL 5
REMARK VINA RESULT:      -8.0      5.979      8.089
REMARK  Name = 
REMARK  13 active torsions:
REMARK  status: ('A' for Active; 'I' for Inactive)
REMARK    1  A    between atoms: C_1  and  C_2
REMARK    2  A    between atoms: N_4  and  C_5
REMARK    3  A    between atoms: C_5  and  C_6
REMARK    4  A    between atoms: C_5  and  C_16
REMARK    5  A    between atoms: C_6  and  C_7
REMARK    6  A    between atoms: C_16  and  O_18
REMARK    7  A    between atoms: O_18  and  C_19
REMARK    8  A    between atoms: C_19  and  C_20
REMARK    9  A    between atoms: N_22  and  C_23
REMARK   10  A    between atoms: C_26  and  S_27
REMARK   11  A    between atoms: S_27  and  N_30
REMARK   12  A    between atoms: N_30  and  C_31
REMARK   13  A    between atoms: N_30  and  C_32
REMARK                            x       y       z     vdW  Elec       q    Type
REMARK                         _______ _______ _______ _____ _____    ______ ____
ROOT
ATOM      1  C   UNL     1       3.584   5.298  18.235  0.00  0.00    +0.000 C 
ATOM      2  O   UNL     1       2.615   5.204  17.486  0.00  0.00    +0.000 OA
ENDROOT
BRANCH   1   3
ATOM      3  C   UNL     1       4.905   4.514  18.077  0.00  0.00    +0.000 C 
BRANCH   3   7
ATOM      4  C   UNL     1       4.738   1.660  20.593  0.00  0.00    +0.000 C 
ATOM      5  C   UNL     1       4.250   2.604  19.527  0.00  0.00    +0.000 C 
ATOM      6  O   UNL     1       3.139   2.508  19.019  0.00  0.00    +0.000 OA
ATOM      7  N   UNL     1       5.164   3.570  19.174  0.00  0.00    +0.000 N 
ATOM      8  H   UNL     1       6.132   3.426  19.442  0.00  0.00    +0.000 HD
ENDBRANCH   3   7
BRANCH   3   9
ATOM      9  C   UNL     1       4.974   3.811  16.707  0.00  0.00    +0.000 C 
BRANCH   9  10
ATOM     10  C   UNL     1       6.012   4.381  15.783  0.00  0.00    +0.000 A 
ATOM     11  C   UNL     1       7.031   5.242  16.148  0.00  0.00    +0.000 A 
ATOM     12  N   UNL     1       7.689   5.639  15.019  0.00  0.00    +0.000 N 
ATOM     13  C   UNL     1       7.204   4.958  13.929  0.00  0.00    +0.000 A 
ATOM     14  C   UNL     1       7.611   5.010  12.591  0.00  0.00    +0.000 A 
ATOM     15  C   UNL     1       6.978   4.151  11.691  0.00  0.00    +0.000 A 
ATOM     16  C   UNL     1       5.965   3.293  12.112  0.00  0.00    +0.000 A 
ATOM     17  C   UNL     1       5.540   3.286  13.447  0.00  0.00    +0.000 A 
ATOM     18  C   UNL     1       6.173   4.133  14.381  0.00  0.00    +0.000 A 
ATOM     19  H   UNL     1       8.446   6.308  14.982  0.00  0.00    +0.000 HD
ENDBRANCH   9  10
ENDBRANCH   3   9
ENDBRANCH   1   3
BRANCH   1  20
ATOM     20  O   UNL     1       3.636   6.173  19.273  0.00  0.00    +0.000 OA
BRANCH  20  21
ATOM     21  C   UNL     1       2.511   6.158  20.151  0.00  0.00    +0.000 C 
BRANCH  21  22
ATOM     22  C   UNL     1       1.865   7.535  20.154  0.00  0.00    +0.000 C 
ATOM     23  O   UNL     1       1.835   8.200  19.121  0.00  0.00    +0.000 OA
ATOM     24  N   UNL     1       1.392   7.932  21.398  0.00  0.00    +0.000 N 
ATOM     25  H   UNL     1       1.658   7.350  22.191  0.00  0.00    +0.000 HD
BRANCH  24  26
ATOM     26  C   UNL     1       0.719   9.142  21.674  0.00  0.00    +0.000 A 
ATOM     27  C   UNL     1       0.920  10.310  20.930  0.00  0.00    +0.000 A 
ATOM     28  C   UNL     1       0.258  11.492  21.252  0.00  0.00    +0.000 A 
ATOM     29  C   UNL     1      -0.641  11.508  22.313  0.00  0.00    +0.000 A 
ATOM     30  C   UNL     1      -0.856  10.357  23.076  0.00  0.00    +0.000 A 
ATOM     31  C   UNL     1      -0.192   9.169  22.740  0.00  0.00    +0.000 A 
BRANCH  29  32
ATOM     32  S   UNL     1      -1.476  13.029  22.724  0.00  0.00    +0.000 S 
ATOM     33  O   UNL     1      -2.706  12.665  23.397  0.00  0.00    +0.000 OA
ATOM     34  O   UNL     1      -0.510  13.901  23.357  0.00  0.00    +0.000 OA
BRANCH  32  35
ATOM     35  N   UNL     1      -1.869  13.675  21.198  0.00  0.00    +0.000 NA
ATOM     36  C   UNL     1      -3.129  13.220  20.582  0.00  0.00    +0.000 C 
ATOM     37  C   UNL     1      -1.617  15.114  21.012  0.00  0.00    +0.000 C 
ENDBRANCH  32  35
ENDBRANCH  29  32
ENDBRANCH  24  26
ENDBRANCH  21  22
ENDBRANCH  20  21
ENDBRANCH   1  20
TORSDOF 10
ENDMDL
MODEL 6
REMARK VINA RESULT:      -8.0      1.894      3.454
REMARK  Name = 
REMARK  13 active torsions:
REMARK  status: ('A' for Active; 'I' for Inactive)
REMARK    1  A    between atoms: C_1  and  C_2
REMARK    2  A    between atoms: N_4  and  C_5
REMARK    3  A    between atoms: C_5  and  C_6
REMARK    4  A    between atoms: C_5  and  C_16
REMARK    5  A    between atoms: C_6  and  C_7
REMARK    6  A    between atoms: C_16  and  O_18
REMARK    7  A    between atoms: O_18  and  C_19
REMARK    8  A    between atoms: C_19  and  C_20
REMARK    9  A    between atoms: N_22  and  C_23
REMARK   10  A    between atoms: C_26  and  S_27
REMARK   11  A    between atoms: S_27  and  N_30
REMARK   12  A    between atoms: N_30  and  C_31
REMARK   13  A    between atoms: N_30  and  C_32
REMARK                            x       y       z     vdW  Elec       q    Type
REMARK                         _______ _______ _______ _____ _____    ______ ____
ROOT
ATOM      1  C   UNL     1       5.761   5.248  18.576  0.00  0.00    +0.000 C 
ATOM      2  O   UNL     1       6.046   4.988  19.742  0.00  0.00    +0.000 OA
ENDROOT
BRANCH   1   3
ATOM      3  C   UNL     1       4.418   4.909  17.894  0.00  0.00    +0.000 C 
BRANCH   3   7
ATOM      4  C   UNL     1       2.010   2.162  18.970  0.00  0.00    +0.000 C 
ATOM      5  C   UNL     1       2.678   3.140  18.041  0.00  0.00    +0.000 C 
ATOM      6  O   UNL     1       2.430   3.185  16.842  0.00  0.00    +0.000 OA
ATOM      7  N   UNL     1       3.592   3.963  18.658  0.00  0.00    +0.000 N 
ATOM      8  H   UNL     1       3.926   3.695  19.577  0.00  0.00    +0.000 HD
ENDBRANCH   3   7
BRANCH   3   9
ATOM      9  C   UNL     1       3.631   6.188  17.549  0.00  0.00    +0.000 C 
BRANCH   9  10
ATOM     10  C   UNL     1       2.880   6.772  18.712  0.00  0.00    +0.000 A 
ATOM     11  C   UNL     1       2.738   6.185  19.956  0.00  0.00    +0.000 A 
ATOM     12  N   UNL     1       1.890   6.951  20.703  0.00  0.00    +0.000 N 
ATOM     13  C   UNL     1       1.569   8.098  20.020  0.00  0.00    +0.000 A 
ATOM     14  C   UNL     1       0.777   9.182  20.417  0.00  0.00    +0.000 A 
ATOM     15  C   UNL     1       0.670  10.259  19.536  0.00  0.00    +0.000 A 
ATOM     16  C   UNL     1       1.314  10.242  18.302  0.00  0.00    +0.000 A 
ATOM     17  C   UNL     1       2.068   9.130  17.902  0.00  0.00    +0.000 A 
ATOM     18  C   UNL     1       2.205   8.034  18.779  0.00  0.00    +0.000 A 
ATOM     19  H   UNL     1       1.565   6.734  21.636  0.00  0.00    +0.000 HD
ENDBRANCH   9  10
ENDBRANCH   3   9
ENDBRANCH   1   3
BRANCH   1  20
ATOM     20  O   UNL     1       6.587   5.944  17.750  0.00  0.00    +0.000 OA
BRANCH  20  21
ATOM     21  C   UNL     1       7.821   6.370  18.326  0.00  0.00    +0.000 C 
BRANCH  21  22
ATOM     22  C   UNL     1       7.997   7.860  18.075  0.00  0.00    +0.000 C 
ATOM     23  O   UNL     1       7.474   8.383  17.094  0.00  0.00    +0.000 OA
ATOM     24  N   UNL     1       8.809   8.495  19.006  0.00  0.00    +0.000 N 
ATOM     25  H   UNL     1       9.317   7.892  19.652  0.00  0.00    +0.000 HD
BRANCH  24  26
ATOM     26  C   UNL     1       9.108   9.875  19.031  0.00  0.00    +0.000 A 
ATOM     27  C   UNL     1       9.281  10.636  17.870  0.00  0.00    +0.000 A 
ATOM     28  C   UNL     1       9.604  11.989  17.936  0.00  0.00    +0.000 A 
ATOM     29  C   UNL     1       9.728  12.605  19.176  0.00  0.00    +0.000 A 
ATOM     30  C   UNL     1       9.566  11.866  20.352  0.00  0.00    +0.000 A 
ATOM     31  C   UNL     1       9.233  10.507  20.277  0.00  0.00    +0.000 A 
BRANCH  29  32
ATOM     32  S   UNL     1      10.152  14.335  19.252  0.00  0.00    +0.000 S 
ATOM     33  O   UNL     1      11.163  14.476  20.280  0.00  0.00    +0.000 OA
ATOM     34  O   UNL     1      10.397  14.784  17.898  0.00  0.00    +0.000 OA
BRANCH  32  35
ATOM     35  N   UNL     1       8.714  15.057  19.809  0.00  0.00    +0.000 NA
ATOM     36  C   UNL     1       7.458  14.637  19.163  0.00  0.00    +0.000 C 
ATOM     37  C   UNL     1       8.589  15.227  21.267  0.00  0.00    +0.000 C 
ENDBRANCH  32  35
ENDBRANCH  29  32
ENDBRANCH  24  26
ENDBRANCH  21  22
ENDBRANCH  20  21
ENDBRANCH   1  20
TORSDOF 10
ENDMDL
MODEL 7
REMARK VINA RESULT:      -7.9      5.549      8.418
REMARK  Name = 
REMARK  13 active torsions:
REMARK  status: ('A' for Active; 'I' for Inactive)
REMARK    1  A    between atoms: C_1  and  C_2
REMARK    2  A    between atoms: N_4  and  C_5
REMARK    3  A    between atoms: C_5  and  C_6
REMARK    4  A    between atoms: C_5  and  C_16
REMARK    5  A    between atoms: C_6  and  C_7
REMARK    6  A    between atoms: C_16  and  O_18
REMARK    7  A    between atoms: O_18  and  C_19
REMARK    8  A    between atoms: C_19  and  C_20
REMARK    9  A    between atoms: N_22  and  C_23
REMARK   10  A    between atoms: C_26  and  S_27
REMARK   11  A    between atoms: S_27  and  N_30
REMARK   12  A    between atoms: N_30  and  C_31
REMARK   13  A    between atoms: N_30  and  C_32
REMARK                            x       y       z     vdW  Elec       q    Type
REMARK                         _______ _______ _______ _____ _____    ______ ____
ROOT
ATOM      1  C   UNL     1       1.851   4.710  17.948  0.00  0.00    +0.000 C 
ATOM      2  O   UNL     1       1.019   4.031  17.350  0.00  0.00    +0.000 OA
ENDROOT
BRANCH   1   3
ATOM      3  C   UNL     1       3.057   4.147  18.731  0.00  0.00    +0.000 C 
BRANCH   3   7
ATOM      4  C   UNL     1       1.860   2.175  21.761  0.00  0.00    +0.000 C 
ATOM      5  C   UNL     1       2.298   3.378  20.970  0.00  0.00    +0.000 C 
ATOM      6  O   UNL     1       2.288   4.512  21.434  0.00  0.00    +0.000 OA
ATOM      7  N   UNL     1       2.697   3.088  19.685  0.00  0.00    +0.000 N 
ATOM      8  H   UNL     1       2.432   2.188  19.299  0.00  0.00    +0.000 HD
ENDBRANCH   3   7
BRANCH   3   9
ATOM      9  C   UNL     1       4.173   3.683  17.776  0.00  0.00    +0.000 C 
BRANCH   9  10
ATOM     10  C   UNL     1       5.028   4.802  17.251  0.00  0.00    +0.000 A 
ATOM     11  C   UNL     1       4.893   5.407  16.015  0.00  0.00    +0.000 A 
ATOM     12  N   UNL     1       5.923   6.287  15.848  0.00  0.00    +0.000 N 
ATOM     13  C   UNL     1       6.665   6.366  17.002  0.00  0.00    +0.000 A 
ATOM     14  C   UNL     1       7.772   7.169  17.297  0.00  0.00    +0.000 A 
ATOM     15  C   UNL     1       8.298   7.093  18.588  0.00  0.00    +0.000 A 
ATOM     16  C   UNL     1       7.748   6.233  19.535  0.00  0.00    +0.000 A 
ATOM     17  C   UNL     1       6.666   5.404  19.209  0.00  0.00    +0.000 A 
ATOM     18  C   UNL     1       6.106   5.472  17.916  0.00  0.00    +0.000 A 
ATOM     19  H   UNL     1       6.106   6.831  15.016  0.00  0.00    +0.000 HD
ENDBRANCH   9  10
ENDBRANCH   3   9
ENDBRANCH   1   3
BRANCH   1  20
ATOM     20  O   UNL     1       1.847   6.069  17.931  0.00  0.00    +0.000 OA
BRANCH  20  21
ATOM     21  C   UNL     1       2.525   6.703  19.015  0.00  0.00    +0.000 C 
BRANCH  21  22
ATOM     22  C   UNL     1       1.897   8.065  19.264  0.00  0.00    +0.000 C 
ATOM     23  O   UNL     1       2.127   8.996  18.495  0.00  0.00    +0.000 OA
ATOM     24  N   UNL     1       1.127   8.127  20.417  0.00  0.00    +0.000 N 
ATOM     25  H   UNL     1       1.184   7.327  21.046  0.00  0.00    +0.000 HD
BRANCH  24  26
ATOM     26  C   UNL     1       0.404   9.255  20.865  0.00  0.00    +0.000 A 
ATOM     27  C   UNL     1      -0.166  10.188  19.991  0.00  0.00    +0.000 A 
ATOM     28  C   UNL     1      -0.847  11.303  20.472  0.00  0.00    +0.000 A 
ATOM     29  C   UNL     1      -0.989  11.482  21.844  0.00  0.00    +0.000 A 
ATOM     30  C   UNL     1      -0.424  10.568  22.739  0.00  0.00    +0.000 A 
ATOM     31  C   UNL     1       0.253   9.444  22.247  0.00  0.00    +0.000 A 
BRANCH  29  32
ATOM     32  S   UNL     1      -1.853  12.919  22.451  0.00  0.00    +0.000 S 
ATOM     33  O   UNL     1      -1.232  13.283  23.708  0.00  0.00    +0.000 OA
ATOM     34  O   UNL     1      -1.944  13.867  21.361  0.00  0.00    +0.000 OA
BRANCH  32  35
ATOM     35  N   UNL     1      -3.413  12.318  22.776  0.00  0.00    +0.000 NA
ATOM     36  C   UNL     1      -3.859  12.337  24.181  0.00  0.00    +0.000 C 
ATOM     37  C   UNL     1      -4.473  12.697  21.825  0.00  0.00    +0.000 C 
ENDBRANCH  32  35
ENDBRANCH  29  32
ENDBRANCH  24  26
ENDBRANCH  21  22
ENDBRANCH  20  21
ENDBRANCH   1  20
TORSDOF 10
ENDMDL
MODEL 8
REMARK VINA RESULT:      -7.9      5.448      7.156
REMARK  Name = 
REMARK  13 active torsions:
REMARK  status: ('A' for Active; 'I' for Inactive)
REMARK    1  A    between atoms: C_1  and  C_2
REMARK    2  A    between atoms: N_4  and  C_5
REMARK    3  A    between atoms: C_5  and  C_6
REMARK    4  A    between atoms: C_5  and  C_16
REMARK    5  A    between atoms: C_6  and  C_7
REMARK    6  A    between atoms: C_16  and  O_18
REMARK    7  A    between atoms: O_18  and  C_19
REMARK    8  A    between atoms: C_19  and  C_20
REMARK    9  A    between atoms: N_22  and  C_23
REMARK   10  A    between atoms: C_26  and  S_27
REMARK   11  A    between atoms: S_27  and  N_30
REMARK   12  A    between atoms: N_30  and  C_31
REMARK   13  A    between atoms: N_30  and  C_32
REMARK                            x       y       z     vdW  Elec       q    Type
REMARK                         _______ _______ _______ _____ _____    ______ ____
ROOT
ATOM      1  C   UNL     1       5.118   6.729  17.091  0.00  0.00    +0.000 C 
ATOM      2  O   UNL     1       6.098   7.365  16.710  0.00  0.00    +0.000 OA
ENDROOT
BRANCH   1   3
ATOM      3  C   UNL     1       4.746   5.307  16.620  0.00  0.00    +0.000 C 
BRANCH   3   7
ATOM      4  C   UNL     1       6.761   4.239  13.570  0.00  0.00    +0.000 C 
ATOM      5  C   UNL     1       6.506   4.626  15.002  0.00  0.00    +0.000 C 
ATOM      6  O   UNL     1       7.382   4.600  15.859  0.00  0.00    +0.000 OA
ATOM      7  N   UNL     1       5.206   4.998  15.258  0.00  0.00    +0.000 N 
ATOM      8  H   UNL     1       4.499   4.747  14.576  0.00  0.00    +0.000 HD
ENDBRANCH   3   7
BRANCH   3   9
ATOM      9  C   UNL     1       5.226   4.244  17.626  0.00  0.00    +0.000 C 
BRANCH   9  10
ATOM     10  C   UNL     1       4.135   3.338  18.122  0.00  0.00    +0.000 A 
ATOM     11  C   UNL     1       3.821   2.096  17.602  0.00  0.00    +0.000 A 
ATOM     12  N   UNL     1       2.698   1.635  18.228  0.00  0.00    +0.000 N 
ATOM     13  C   UNL     1       2.339   2.492  19.239  0.00  0.00    +0.000 A 
ATOM     14  C   UNL     1       1.293   2.394  20.163  0.00  0.00    +0.000 A 
ATOM     15  C   UNL     1       1.196   3.389  21.136  0.00  0.00    +0.000 A 
ATOM     16  C   UNL     1       2.099   4.449  21.168  0.00  0.00    +0.000 A 
ATOM     17  C   UNL     1       3.114   4.556  20.208  0.00  0.00    +0.000 A 
ATOM     18  C   UNL     1       3.244   3.555  19.223  0.00  0.00    +0.000 A 
ATOM     19  H   UNL     1       2.213   0.775  18.012  0.00  0.00    +0.000 HD
ENDBRANCH   9  10
ENDBRANCH   3   9
ENDBRANCH   1   3
BRANCH   1  20
ATOM     20  O   UNL     1       4.266   7.186  18.047  0.00  0.00    +0.000 OA
BRANCH  20  21
ATOM     21  C   UNL     1       2.878   7.106  17.727  0.00  0.00    +0.000 C 
BRANCH  21  22
ATOM     22  C   UNL     1       2.218   8.440  18.041  0.00  0.00    +0.000 C 
ATOM     23  O   UNL     1       2.395   9.401  17.296  0.00  0.00    +0.000 OA
ATOM     24  N   UNL     1       1.483   8.440  19.219  0.00  0.00    +0.000 N 
ATOM     25  H   UNL     1       1.585   7.623  19.818  0.00  0.00    +0.000 HD
BRANCH  24  26
ATOM     26  C   UNL     1       0.743   9.531  19.725  0.00  0.00    +0.000 A 
ATOM     27  C   UNL     1      -0.212  10.218  18.968  0.00  0.00    +0.000 A 
ATOM     28  C   UNL     1      -0.902  11.307  19.494  0.00  0.00    +0.000 A 
ATOM     29  C   UNL     1      -0.661  11.703  20.805  0.00  0.00    +0.000 A 
ATOM     30  C   UNL     1       0.291  11.038  21.582  0.00  0.00    +0.000 A 
ATOM     31  C   UNL     1       0.976   9.937  21.048  0.00  0.00    +0.000 A 
BRANCH  29  32
ATOM     32  S   UNL     1      -1.542  13.106  21.467  0.00  0.00    +0.000 S 
ATOM     33  O   UNL     1      -0.760  13.606  22.580  0.00  0.00    +0.000 OA
ATOM     34  O   UNL     1      -1.894  13.965  20.357  0.00  0.00    +0.000 OA
BRANCH  32  35
ATOM     35  N   UNL     1      -2.967  12.407  22.083  0.00  0.00    +0.000 NA
ATOM     36  C   UNL     1      -2.989  12.085  23.521  0.00  0.00    +0.000 C 
ATOM     37  C   UNL     1      -4.238  12.971  21.594  0.00  0.00    +0.000 C 
ENDBRANCH  32  35
ENDBRANCH  29  32
ENDBRANCH  24  26
ENDBRANCH  21  22
ENDBRANCH  20  21
ENDBRANCH   1  20
TORSDOF 10
ENDMDL
MODEL 9
REMARK VINA RESULT:      -7.8      1.383      1.705
REMARK  Name = 
REMARK  13 active torsions:
REMARK  status: ('A' for Active; 'I' for Inactive)
REMARK    1  A    between atoms: C_1  and  C_2
REMARK    2  A    between atoms: N_4  and  C_5
REMARK    3  A    between atoms: C_5  and  C_6
REMARK    4  A    between atoms: C_5  and  C_16
REMARK    5  A    between atoms: C_6  and  C_7
REMARK    6  A    between atoms: C_16  and  O_18
REMARK    7  A    between atoms: O_18  and  C_19
REMARK    8  A    between atoms: C_19  and  C_20
REMARK    9  A    between atoms: N_22  and  C_23
REMARK   10  A    between atoms: C_26  and  S_27
REMARK   11  A    between atoms: S_27  and  N_30
REMARK   12  A    between atoms: N_30  and  C_31
REMARK   13  A    between atoms: N_30  and  C_32
REMARK                            x       y       z     vdW  Elec       q    Type
REMARK                         _______ _______ _______ _____ _____    ______ ____
ROOT
ATOM      1  C   UNL     1       6.277   5.345  17.961  0.00  0.00    +0.000 C 
ATOM      2  O   UNL     1       5.901   4.690  18.930  0.00  0.00    +0.000 OA
ENDROOT
BRANCH   1   3
ATOM      3  C   UNL     1       5.363   5.853  16.826  0.00  0.00    +0.000 C 
BRANCH   3   7
ATOM      4  C   UNL     1       6.816   4.636  13.523  0.00  0.00    +0.000 C 
ATOM      5  C   UNL     1       6.312   4.544  14.938  0.00  0.00    +0.000 C 
ATOM      6  O   UNL     1       6.209   3.478  15.534  0.00  0.00    +0.000 OA
ATOM      7  N   UNL     1       5.973   5.757  15.491  0.00  0.00    +0.000 N 
ATOM      8  H   UNL     1       5.839   6.543  14.864  0.00  0.00    +0.000 HD
ENDBRANCH   3   7
BRANCH   3   9
ATOM      9  C   UNL     1       3.989   5.157  16.864  0.00  0.00    +0.000 C 
BRANCH   9  10
ATOM     10  C   UNL     1       3.253   5.336  18.161  0.00  0.00    +0.000 A 
ATOM     11  C   UNL     1       2.965   6.546  18.765  0.00  0.00    +0.000 A 
ATOM     12  N   UNL     1       2.401   6.300  19.983  0.00  0.00    +0.000 N 
ATOM     13  C   UNL     1       2.195   4.952  20.142  0.00  0.00    +0.000 A 
ATOM     14  C   UNL     1       1.603   4.258  21.203  0.00  0.00    +0.000 A 
ATOM     15  C   UNL     1       1.462   2.876  21.071  0.00  0.00    +0.000 A 
ATOM     16  C   UNL     1       1.915   2.215  19.932  0.00  0.00    +0.000 A 
ATOM     17  C   UNL     1       2.545   2.920  18.897  0.00  0.00    +0.000 A 
ATOM     18  C   UNL     1       2.686   4.320  18.998  0.00  0.00    +0.000 A 
ATOM     19  H   UNL     1       2.138   7.000  20.664  0.00  0.00    +0.000 HD
ENDBRANCH   9  10
ENDBRANCH   3   9
ENDBRANCH   1   3
BRANCH   1  20
ATOM     20  O   UNL     1       7.560   5.769  17.808  0.00  0.00    +0.000 OA
BRANCH  20  21
ATOM     21  C   UNL     1       8.092   6.534  18.888  0.00  0.00    +0.000 C 
BRANCH  21  22
ATOM     22  C   UNL     1       8.206   7.989  18.458  0.00  0.00    +0.000 C 
ATOM     23  O   UNL     1       7.675   8.363  17.415  0.00  0.00    +0.000 OA
ATOM     24  N   UNL     1       8.973   8.769  19.312  0.00  0.00    +0.000 N 
ATOM     25  H   UNL     1       9.498   8.274  20.032  0.00  0.00    +0.000 HD
BRANCH  24  26
ATOM     26  C   UNL     1       9.211  10.154  19.170  0.00  0.00    +0.000 A 
ATOM     27  C   UNL     1       9.905  10.907  20.122  0.00  0.00    +0.000 A 
ATOM     28  C   UNL     1      10.094  12.277  19.959  0.00  0.00    +0.000 A 
ATOM     29  C   UNL     1       9.610  12.906  18.817  0.00  0.00    +0.000 A 
ATOM     30  C   UNL     1       8.908  12.178  17.853  0.00  0.00    +0.000 A 
ATOM     31  C   UNL     1       8.729  10.798  18.021  0.00  0.00    +0.000 A 
BRANCH  29  32
ATOM     32  S   UNL     1       9.847  14.663  18.623  0.00  0.00    +0.000 S 
ATOM     33  O   UNL     1       8.574  15.215  18.205  0.00  0.00    +0.000 OA
ATOM     34  O   UNL     1      10.517  15.148  19.810  0.00  0.00    +0.000 OA
BRANCH  32  35
ATOM     35  N   UNL     1      10.930  14.760  17.312  0.00  0.00    +0.000 NA
ATOM     36  C   UNL     1      10.802  15.927  16.421  0.00  0.00    +0.000 C 
ATOM     37  C   UNL     1      12.330  14.392  17.591  0.00  0.00    +0.000 C 
ENDBRANCH  32  35
ENDBRANCH  29  32
ENDBRANCH  24  26
ENDBRANCH  21  22
ENDBRANCH  20  21
ENDBRANCH   1  20
TORSDOF 10
ENDMDL
