MODEL 1
REMARK VINA RESULT:      -8.9      0.000      0.000
REMARK  Name = 
REMARK  5 active torsions:
REMARK  status: ('A' for Active; 'I' for Inactive)
REMARK    1  A    between atoms: C_2  and  C_11
REMARK    2  A    between atoms: N_3  and  C_4
REMARK    3  A    between atoms: C_4  and  C_5
REMARK    4  A    between atoms: C_5  and  C_6
REMARK    5  A    between atoms: C_15  and  N_16
REMARK                            x       y       z     vdW  Elec       q    Type
REMARK                         _______ _______ _______ _____ _____    ______ ____
ROOT
ATOM      1  C   UNL     1       6.589   5.415  17.558  0.00  0.00    +0.000 A 
ATOM      2  C   UNL     1       6.965   5.022  16.271  0.00  0.00    +0.000 A 
ATOM      3  C   UNL     1       6.119   4.207  15.517  0.00  0.00    +0.000 A 
ATOM      4  C   UNL     1       4.888   3.797  16.038  0.00  0.00    +0.000 A 
ATOM      5  C   UNL     1       4.482   4.227  17.312  0.00  0.00    +0.000 A 
ATOM      6  C   UNL     1       5.344   5.030  18.070  0.00  0.00    +0.000 A 
ENDROOT
BRANCH   5   7
ATOM      7  N   UNL     1       3.194   3.877  17.803  0.00  0.00    +0.000 N 
ATOM      8  N   UNL     1       2.080   3.998  17.025  0.00  0.00    +0.000 NA
ATOM      9  N   UNL     1       1.017   3.656  17.744  0.00  0.00    +0.000 NA
ATOM     10  C   UNL     1       1.445   3.320  18.994  0.00  0.00    +0.000 A 
ATOM     11  C   UNL     1       0.752   2.929  20.146  0.00  0.00    +0.000 A 
ATOM     12  C   UNL     1       1.506   2.680  21.296  0.00  0.00    +0.000 A 
ATOM     13  C   UNL     1       2.886   2.813  21.242  0.00  0.00    +0.000 A 
ATOM     14  N   UNL     1       3.598   3.176  20.152  0.00  0.00    +0.000 NA
ATOM     15  C   UNL     1       2.828   3.424  19.066  0.00  0.00    +0.000 A 
ENDBRANCH   5   7
BRANCH   1  17
ATOM     16  O   UNL     1       8.010   5.860  19.381  0.00  0.00    +0.000 OA
ATOM     17  C   UNL     1       7.499   6.283  18.351  0.00  0.00    +0.000 C 
ATOM     18  N   UNL     1       7.700   7.560  17.863  0.00  0.00    +0.000 N 
ATOM     19  H   UNL     1       7.071   7.917  17.153  0.00  0.00    +0.000 HD
BRANCH  18  20
ATOM     20  C   UNL     1       8.546   8.493  18.582  0.00  0.00    +0.000 C 
BRANCH  20  21
ATOM     21  C   UNL     1       8.521   9.898  17.984  0.00  0.00    +0.000 C 
BRANCH  21  22
ATOM     22  C   UNL     1       9.627  10.721  18.536  0.00  0.00    +0.000 A 
ATOM     23  C   UNL     1       9.995  11.084  19.814  0.00  0.00    +0.000 A 
ATOM     24  C   UNL     1      11.120  11.932  19.677  0.00  0.00    +0.000 A 
ATOM     25  C   UNL     1      11.368  12.026  18.328  0.00  0.00    +0.000 A 
ATOM     26  O   UNL     1      10.468  11.289  17.627  0.00  0.00    +0.000 OA
ENDBRANCH  21  22
ENDBRANCH  20  21
ENDBRANCH  18  20
ENDBRANCH   1  17
TORSDOF 5
ENDMDL
MODEL 2
REMARK VINA RESULT:      -8.4      0.941      1.064
REMARK  Name = 
REMARK  5 active torsions:
REMARK  status: ('A' for Active; 'I' for Inactive)
REMARK    1  A    between atoms: C_2  and  C_11
REMARK    2  A    between atoms: N_3  and  C_4
REMARK    3  A    between atoms: C_4  and  C_5
REMARK    4  A    between atoms: C_5  and  C_6
REMARK    5  A    between atoms: C_15  and  N_16
REMARK                            x       y       z     vdW  Elec       q    Type
REMARK                         _______ _______ _______ _____ _____    ______ ____
ROOT
ATOM      1  C   UNL     1       6.675   5.692  17.389  0.00  0.00    +0.000 A 
ATOM      2  C   UNL     1       6.965   5.572  16.027  0.00  0.00    +0.000 A 
ATOM      3  C   UNL     1       6.135   4.808  15.205  0.00  0.00    +0.000 A 
ATOM      4  C   UNL     1       5.004   4.179  15.735  0.00  0.00    +0.000 A 
ATOM      5  C   UNL     1       4.680   4.335  17.092  0.00  0.00    +0.000 A 
ATOM      6  C   UNL     1       5.527   5.087  17.915  0.00  0.00    +0.000 A 
ENDROOT
BRANCH   5   7
ATOM      7  N   UNL     1       3.484   3.763  17.608  0.00  0.00    +0.000 N 
ATOM      8  N   UNL     1       2.694   2.958  16.841  0.00  0.00    +0.000 NA
ATOM      9  N   UNL     1       1.625   2.609  17.548  0.00  0.00    +0.000 NA
ATOM     10  C   UNL     1       1.721   3.198  18.774  0.00  0.00    +0.000 A 
ATOM     11  C   UNL     1       0.862   3.201  19.880  0.00  0.00    +0.000 A 
ATOM     12  C   UNL     1       1.254   3.945  20.995  0.00  0.00    +0.000 A 
ATOM     13  C   UNL     1       2.463   4.625  20.964  0.00  0.00    +0.000 A 
ATOM     14  N   UNL     1       3.329   4.642  19.926  0.00  0.00    +0.000 NA
ATOM     15  C   UNL     1       2.902   3.922  18.860  0.00  0.00    +0.000 A 
ENDBRANCH   5   7
BRANCH   1  17
ATOM     16  O   UNL     1       8.005   6.040  19.301  0.00  0.00    +0.000 OA
ATOM     17  C   UNL     1       7.567   6.507  18.255  0.00  0.00    +0.000 C 
ATOM     18  N   UNL     1       7.838   7.789  17.814  0.00  0.00    +0.000 N 
ATOM     19  H   UNL     1       7.262   8.185  17.081  0.00  0.00    +0.000 HD
BRANCH  18  20
ATOM     20  C   UNL     1       8.672   8.673  18.605  0.00  0.00    +0.000 C 
BRANCH  20  21
ATOM     21  C   UNL     1       8.519  10.141  18.213  0.00  0.00    +0.000 C 
BRANCH  21  22
ATOM     22  C   UNL     1       9.643  10.947  18.751  0.00  0.00    +0.000 A 
ATOM     23  C   UNL     1      10.745  11.542  18.177  0.00  0.00    +0.000 A 
ATOM     24  C   UNL     1      11.478  12.127  19.237  0.00  0.00    +0.000 A 
ATOM     25  C   UNL     1      10.773  11.857  20.386  0.00  0.00    +0.000 A 
ATOM     26  O   UNL     1       9.654  11.144  20.100  0.00  0.00    +0.000 OA
ENDBRANCH  21  22
ENDBRANCH  20  21
ENDBRANCH  18  20
ENDBRANCH   1  17
TORSDOF 5
ENDMDL
MODEL 3
REMARK VINA RESULT:      -8.4      3.769      6.204
REMARK  Name = 
REMARK  5 active torsions:
REMARK  status: ('A' for Active; 'I' for Inactive)
REMARK    1  A    between atoms: C_2  and  C_11
REMARK    2  A    between atoms: N_3  and  C_4
REMARK    3  A    between atoms: C_4  and  C_5
REMARK    4  A    between atoms: C_5  and  C_6
REMARK    5  A    between atoms: C_15  and  N_16
REMARK                            x       y       z     vdW  Elec       q    Type
REMARK                         _______ _______ _______ _____ _____    ______ ____
ROOT
ATOM      1  C   UNL     1       5.681   5.538  16.325  0.00  0.00    +0.000 A 
ATOM      2  C   UNL     1       5.534   6.889  16.651  0.00  0.00    +0.000 A 
ATOM      3  C   UNL     1       4.430   7.308  17.397  0.00  0.00    +0.000 A 
ATOM      4  C   UNL     1       3.482   6.378  17.835  0.00  0.00    +0.000 A 
ATOM      5  C   UNL     1       3.649   5.012  17.552  0.00  0.00    +0.000 A 
ATOM      6  C   UNL     1       4.748   4.602  16.788  0.00  0.00    +0.000 A 
ENDROOT
BRANCH   5   7
ATOM      7  N   UNL     1       2.728   4.061  18.071  0.00  0.00    +0.000 N 
ATOM      8  N   UNL     1       1.937   3.315  17.246  0.00  0.00    +0.000 NA
ATOM      9  N   UNL     1       1.142   2.554  17.990  0.00  0.00    +0.000 NA
ATOM     10  C   UNL     1       1.413   2.816  19.300  0.00  0.00    +0.000 A 
ATOM     11  C   UNL     1       0.849   2.333  20.487  0.00  0.00    +0.000 A 
ATOM     12  C   UNL     1       1.350   2.838  21.689  0.00  0.00    +0.000 A 
ATOM     13  C   UNL     1       2.378   3.770  21.655  0.00  0.00    +0.000 A 
ATOM     14  N   UNL     1       2.961   4.256  20.536  0.00  0.00    +0.000 NA
ATOM     15  C   UNL     1       2.434   3.752  19.394  0.00  0.00    +0.000 A 
ENDBRANCH   5   7
BRANCH   1  17
ATOM     16  O   UNL     1       7.803   4.548  16.080  0.00  0.00    +0.000 OA
ATOM     17  C   UNL     1       6.860   5.104  15.530  0.00  0.00    +0.000 C 
ATOM     18  N   UNL     1       6.816   5.383  14.177  0.00  0.00    +0.000 N 
ATOM     19  H   UNL     1       6.130   6.045  13.836  0.00  0.00    +0.000 HD
BRANCH  18  20
ATOM     20  C   UNL     1       7.932   5.028  13.321  0.00  0.00    +0.000 C 
BRANCH  20  21
ATOM     21  C   UNL     1       7.525   4.841  11.861  0.00  0.00    +0.000 C 
BRANCH  21  22
ATOM     22  C   UNL     1       6.922   3.501  11.653  0.00  0.00    +0.000 A 
ATOM     23  C   UNL     1       7.420   2.293  11.213  0.00  0.00    +0.000 A 
ATOM     24  C   UNL     1       6.323   1.399  11.183  0.00  0.00    +0.000 A 
ATOM     25  C   UNL     1       5.231   2.117  11.611  0.00  0.00    +0.000 A 
ATOM     26  O   UNL     1       5.586   3.394  11.903  0.00  0.00    +0.000 OA
ENDBRANCH  21  22
ENDBRANCH  20  21
ENDBRANCH  18  20
ENDBRANCH   1  17
TORSDOF 5
ENDMDL
MODEL 4
REMARK VINA RESULT:      -8.3      5.899      7.371
REMARK  Name = 
REMARK  5 active torsions:
REMARK  status: ('A' for Active; 'I' for Inactive)
REMARK    1  A    between atoms: C_2  and  C_11
REMARK    2  A    between atoms: N_3  and  C_4
REMARK    3  A    between atoms: C_4  and  C_5
REMARK    4  A    between atoms: C_5  and  C_6
REMARK    5  A    between atoms: C_15  and  N_16
REMARK                            x       y       z     vdW  Elec       q    Type
REMARK                         _______ _______ _______ _____ _____    ______ ____
ROOT
ATOM      1  C   UNL     1       2.385   7.396  18.981  0.00  0.00    +0.000 A 
ATOM      2  C   UNL     1       2.488   8.189  17.836  0.00  0.00    +0.000 A 
ATOM      3  C   UNL     1       1.915   9.461  17.817  0.00  0.00    +0.000 A 
ATOM      4  C   UNL     1       1.254   9.953  18.947  0.00  0.00    +0.000 A 
ATOM      5  C   UNL     1       1.188   9.181  20.118  0.00  0.00    +0.000 A 
ATOM      6  C   UNL     1       1.750   7.898  20.124  0.00  0.00    +0.000 A 
ENDROOT
BRANCH   5   7
ATOM      7  N   UNL     1       0.590   9.718  21.291  0.00  0.00    +0.000 N 
ATOM      8  N   UNL     1       0.942   9.279  22.534  0.00  0.00    +0.000 NA
ATOM      9  N   UNL     1       0.196   9.907  23.436  0.00  0.00    +0.000 NA
ATOM     10  C   UNL     1      -0.647  10.749  22.774  0.00  0.00    +0.000 A 
ATOM     11  C   UNL     1      -1.657  11.606  23.225  0.00  0.00    +0.000 A 
ATOM     12  C   UNL     1      -2.368  12.324  22.261  0.00  0.00    +0.000 A 
ATOM     13  C   UNL     1      -2.037  12.171  20.922  0.00  0.00    +0.000 A 
ATOM     14  N   UNL     1      -1.063  11.367  20.441  0.00  0.00    +0.000 NA
ATOM     15  C   UNL     1      -0.411  10.676  21.407  0.00  0.00    +0.000 A 
ENDBRANCH   5   7
BRANCH   1  17
ATOM     16  O   UNL     1       3.380   5.544  20.043  0.00  0.00    +0.000 OA
ATOM     17  C   UNL     1       2.999   6.042  18.989  0.00  0.00    +0.000 C 
ATOM     18  N   UNL     1       3.117   5.421  17.760  0.00  0.00    +0.000 N 
ATOM     19  H   UNL     1       3.006   5.975  16.920  0.00  0.00    +0.000 HD
BRANCH  18  20
ATOM     20  C   UNL     1       3.731   4.111  17.659  0.00  0.00    +0.000 C 
BRANCH  20  21
ATOM     21  C   UNL     1       4.951   4.096  16.741  0.00  0.00    +0.000 C 
BRANCH  21  22
ATOM     22  C   UNL     1       5.980   5.052  17.221  0.00  0.00    +0.000 A 
ATOM     23  C   UNL     1       7.088   4.927  18.033  0.00  0.00    +0.000 A 
ATOM     24  C   UNL     1       7.637   6.225  18.156  0.00  0.00    +0.000 A 
ATOM     25  C   UNL     1       6.835   7.054  17.409  0.00  0.00    +0.000 A 
ATOM     26  O   UNL     1       5.828   6.349  16.833  0.00  0.00    +0.000 OA
ENDBRANCH  21  22
ENDBRANCH  20  21
ENDBRANCH  18  20
ENDBRANCH   1  17
TORSDOF 5
ENDMDL
MODEL 5
REMARK VINA RESULT:      -8.3      4.386      6.109
REMARK  Name = 
REMARK  5 active torsions:
REMARK  status: ('A' for Active; 'I' for Inactive)
REMARK    1  A    between atoms: C_2  and  C_11
REMARK    2  A    between atoms: N_3  and  C_4
REMARK    3  A    between atoms: C_4  and  C_5
REMARK    4  A    between atoms: C_5  and  C_6
REMARK    5  A    between atoms: C_15  and  N_16
REMARK                            x       y       z     vdW  Elec       q    Type
REMARK                         _______ _______ _______ _____ _____    ______ ____
ROOT
ATOM      1  C   UNL     1       3.257   4.809  18.577  0.00  0.00    +0.000 A 
ATOM      2  C   UNL     1       2.732   4.249  19.745  0.00  0.00    +0.000 A 
ATOM      3  C   UNL     1       1.997   5.042  20.627  0.00  0.00    +0.000 A 
ATOM      4  C   UNL     1       1.768   6.391  20.338  0.00  0.00    +0.000 A 
ATOM      5  C   UNL     1       2.252   6.949  19.144  0.00  0.00    +0.000 A 
ATOM      6  C   UNL     1       3.004   6.152  18.272  0.00  0.00    +0.000 A 
ENDROOT
BRANCH   5   7
ATOM      7  N   UNL     1       1.945   8.298  18.814  0.00  0.00    +0.000 N 
ATOM      8  N   UNL     1       2.344   8.849  17.631  0.00  0.00    +0.000 NA
ATOM      9  N   UNL     1       1.973  10.124  17.607  0.00  0.00    +0.000 NA
ATOM     10  C   UNL     1       1.340  10.401  18.782  0.00  0.00    +0.000 A 
ATOM     11  C   UNL     1       0.793  11.584  19.293  0.00  0.00    +0.000 A 
ATOM     12  C   UNL     1       0.231  11.532  20.571  0.00  0.00    +0.000 A 
ATOM     13  C   UNL     1       0.226  10.327  21.260  0.00  0.00    +0.000 A 
ATOM     14  N   UNL     1       0.730   9.159  20.803  0.00  0.00    +0.000 NA
ATOM     15  C   UNL     1       1.280   9.258  19.568  0.00  0.00    +0.000 A 
ENDBRANCH   5   7
BRANCH   1  17
ATOM     16  O   UNL     1       4.137   2.750  17.850  0.00  0.00    +0.000 OA
ATOM     17  C   UNL     1       4.039   3.954  17.645  0.00  0.00    +0.000 C 
ATOM     18  N   UNL     1       4.638   4.603  16.583  0.00  0.00    +0.000 N 
ATOM     19  H   UNL     1       4.716   5.613  16.607  0.00  0.00    +0.000 HD
BRANCH  18  20
ATOM     20  C   UNL     1       5.448   3.861  15.636  0.00  0.00    +0.000 C 
BRANCH  20  21
ATOM     21  C   UNL     1       6.856   4.434  15.483  0.00  0.00    +0.000 C 
BRANCH  21  22
ATOM     22  C   UNL     1       7.222   5.249  16.667  0.00  0.00    +0.000 A 
ATOM     23  C   UNL     1       7.631   4.936  17.946  0.00  0.00    +0.000 A 
ATOM     24  C   UNL     1       7.775   6.168  18.629  0.00  0.00    +0.000 A 
ATOM     25  C   UNL     1       7.452   7.149  17.722  0.00  0.00    +0.000 A 
ATOM     26  O   UNL     1       7.119   6.601  16.526  0.00  0.00    +0.000 OA
ENDBRANCH  21  22
ENDBRANCH  20  21
ENDBRANCH  18  20
ENDBRANCH   1  17
TORSDOF 5
ENDMDL
MODEL 6
REMARK VINA RESULT:      -8.2      6.078      8.690
REMARK  Name = 
REMARK  5 active torsions:
REMARK  status: ('A' for Active; 'I' for Inactive)
REMARK    1  A    between atoms: C_2  and  C_11
REMARK    2  A    between atoms: N_3  and  C_4
REMARK    3  A    between atoms: C_4  and  C_5
REMARK    4  A    between atoms: C_5  and  C_6
REMARK    5  A    between atoms: C_15  and  N_16
REMARK                            x       y       z     vdW  Elec       q    Type
REMARK                         _______ _______ _______ _____ _____    ______ ____
ROOT
ATOM      1  C   UNL     1       2.433   7.552  18.927  0.00  0.00    +0.000 A 
ATOM      2  C   UNL     1       2.373   8.327  17.766  0.00  0.00    +0.000 A 
ATOM      3  C   UNL     1       1.645   9.518  17.761  0.00  0.00    +0.000 A 
ATOM      4  C   UNL     1       0.992   9.949  18.921  0.00  0.00    +0.000 A 
ATOM      5  C   UNL     1       1.088   9.200  20.105  0.00  0.00    +0.000 A 
ATOM      6  C   UNL     1       1.804   7.997  20.096  0.00  0.00    +0.000 A 
ENDROOT
BRANCH   5   7
ATOM      7  N   UNL     1       0.493   9.684  21.302  0.00  0.00    +0.000 N 
ATOM      8  N   UNL     1       0.808   9.152  22.518  0.00  0.00    +0.000 NA
ATOM      9  N   UNL     1       0.074   9.750  23.450  0.00  0.00    +0.000 NA
ATOM     10  C   UNL     1      -0.725  10.666  22.833  0.00  0.00    +0.000 A 
ATOM     11  C   UNL     1      -1.708  11.532  23.326  0.00  0.00    +0.000 A 
ATOM     12  C   UNL     1      -2.376  12.338  22.401  0.00  0.00    +0.000 A 
ATOM     13  C   UNL     1      -2.030  12.259  21.060  0.00  0.00    +0.000 A 
ATOM     14  N   UNL     1      -1.081  11.449  20.540  0.00  0.00    +0.000 NA
ATOM     15  C   UNL     1      -0.471  10.672  21.468  0.00  0.00    +0.000 A 
ENDBRANCH   5   7
BRANCH   1  17
ATOM     16  O   UNL     1       3.291   5.606  19.936  0.00  0.00    +0.000 OA
ATOM     17  C   UNL     1       3.211   6.285  18.919  0.00  0.00    +0.000 C 
ATOM     18  N   UNL     1       3.826   5.957  17.726  0.00  0.00    +0.000 N 
ATOM     19  H   UNL     1       3.917   6.668  17.011  0.00  0.00    +0.000 HD
BRANCH  18  20
ATOM     20  C   UNL     1       4.633   4.756  17.626  0.00  0.00    +0.000 C 
BRANCH  20  21
ATOM     21  C   UNL     1       3.907   3.609  16.927  0.00  0.00    +0.000 C 
BRANCH  21  22
ATOM     22  C   UNL     1       2.912   2.988  17.837  0.00  0.00    +0.000 A 
ATOM     23  C   UNL     1       2.986   1.994  18.789  0.00  0.00    +0.000 A 
ATOM     24  C   UNL     1       1.671   1.817  19.281  0.00  0.00    +0.000 A 
ATOM     25  C   UNL     1       0.883   2.716  18.602  0.00  0.00    +0.000 A 
ATOM     26  O   UNL     1       1.630   3.436  17.726  0.00  0.00    +0.000 OA
ENDBRANCH  21  22
ENDBRANCH  20  21
ENDBRANCH  18  20
ENDBRANCH   1  17
TORSDOF 5
ENDMDL
MODEL 7
REMARK VINA RESULT:      -8.2      6.217      9.046
REMARK  Name = 
REMARK  5 active torsions:
REMARK  status: ('A' for Active; 'I' for Inactive)
REMARK    1  A    between atoms: C_2  and  C_11
REMARK    2  A    between atoms: N_3  and  C_4
REMARK    3  A    between atoms: C_4  and  C_5
REMARK    4  A    between atoms: C_5  and  C_6
REMARK    5  A    between atoms: C_15  and  N_16
REMARK                            x       y       z     vdW  Elec       q    Type
REMARK                         _______ _______ _______ _____ _____    ______ ____
ROOT
ATOM      1  C   UNL     1       2.247   7.322  19.545  0.00  0.00    +0.000 A 
ATOM      2  C   UNL     1       2.569   7.712  18.242  0.00  0.00    +0.000 A 
ATOM      3  C   UNL     1       2.105   8.932  17.747  0.00  0.00    +0.000 A 
ATOM      4  C   UNL     1       1.334   9.774  18.556  0.00  0.00    +0.000 A 
ATOM      5  C   UNL     1       1.047   9.410  19.881  0.00  0.00    +0.000 A 
ATOM      6  C   UNL     1       1.500   8.176  20.365  0.00  0.00    +0.000 A 
ENDROOT
BRANCH   5   7
ATOM      7  N   UNL     1       0.336  10.306  20.726  0.00  0.00    +0.000 N 
ATOM      8  N   UNL     1       0.675  10.467  22.038  0.00  0.00    +0.000 NA
ATOM      9  N   UNL     1      -0.179  11.314  22.599  0.00  0.00    +0.000 NA
ATOM     10  C   UNL     1      -1.079  11.697  21.650  0.00  0.00    +0.000 A 
ATOM     11  C   UNL     1      -2.201  12.532  21.706  0.00  0.00    +0.000 A 
ATOM     12  C   UNL     1      -2.942  12.694  20.533  0.00  0.00    +0.000 A 
ATOM     13  C   UNL     1      -2.531  12.043  19.378  0.00  0.00    +0.000 A 
ATOM     14  N   UNL     1      -1.450  11.238  19.272  0.00  0.00    +0.000 NA
ATOM     15  C   UNL     1      -0.771  11.095  20.436  0.00  0.00    +0.000 A 
ENDBRANCH   5   7
BRANCH   1  17
ATOM     16  O   UNL     1       3.808   5.563  19.654  0.00  0.00    +0.000 OA
ATOM     17  C   UNL     1       2.746   6.020  20.061  0.00  0.00    +0.000 C 
ATOM     18  N   UNL     1       1.940   5.383  20.985  0.00  0.00    +0.000 N 
ATOM     19  H   UNL     1       0.982   5.693  21.094  0.00  0.00    +0.000 HD
BRANCH  18  20
ATOM     20  C   UNL     1       2.325   4.093  21.524  0.00  0.00    +0.000 C 
BRANCH  20  21
ATOM     21  C   UNL     1       1.540   2.935  20.912  0.00  0.00    +0.000 C 
BRANCH  21  22
ATOM     22  C   UNL     1       2.056   2.610  19.559  0.00  0.00    +0.000 A 
ATOM     23  C   UNL     1       1.575   2.816  18.283  0.00  0.00    +0.000 A 
ATOM     24  C   UNL     1       2.513   2.224  17.405  0.00  0.00    +0.000 A 
ATOM     25  C   UNL     1       3.506   1.701  18.200  0.00  0.00    +0.000 A 
ATOM     26  O   UNL     1       3.239   1.935  19.510  0.00  0.00    +0.000 OA
ENDBRANCH  21  22
ENDBRANCH  20  21
ENDBRANCH  18  20
ENDBRANCH   1  17
TORSDOF 5
ENDMDL
MODEL 8
REMARK VINA RESULT:      -8.2      6.086      7.904
REMARK  Name = 
REMARK  5 active torsions:
REMARK  status: ('A' for Active; 'I' for Inactive)
REMARK    1  A    between atoms: C_2  and  C_11
REMARK    2  A    between atoms: N_3  and  C_4
REMARK    3  A    between atoms: C_4  and  C_5
REMARK    4  A    between atoms: C_5  and  C_6
REMARK    5  A    between atoms: C_15  and  N_16
REMARK                            x       y       z     vdW  Elec       q    Type
REMARK                         _______ _______ _______ _____ _____    ______ ____
ROOT
ATOM      1  C   UNL     1       2.241   7.349  19.243  0.00  0.00    +0.000 A 
ATOM      2  C   UNL     1       2.392   8.066  18.054  0.00  0.00    +0.000 A 
ATOM      3  C   UNL     1       1.845   9.346  17.940  0.00  0.00    +0.000 A 
ATOM      4  C   UNL     1       1.165   9.920  19.018  0.00  0.00    +0.000 A 
ATOM      5  C   UNL     1       1.051   9.224  20.232  0.00  0.00    +0.000 A 
ATOM      6  C   UNL     1       1.586   7.933  20.334  0.00  0.00    +0.000 A 
ENDROOT
BRANCH   5   7
ATOM      7  N   UNL     1       0.432   9.845  21.352  0.00  0.00    +0.000 N 
ATOM      8  N   UNL     1       0.741   9.478  22.629  0.00  0.00    +0.000 NA
ATOM      9  N   UNL     1      -0.015  10.175  23.469  0.00  0.00    +0.000 NA
ATOM     10  C   UNL     1      -0.823  10.990  22.733  0.00  0.00    +0.000 A 
ATOM     11  C   UNL     1      -1.828  11.892  23.101  0.00  0.00    +0.000 A 
ATOM     12  C   UNL     1      -2.498  12.561  22.074  0.00  0.00    +0.000 A 
ATOM     13  C   UNL     1      -2.133  12.318  20.757  0.00  0.00    +0.000 A 
ATOM     14  N   UNL     1      -1.163  11.467  20.355  0.00  0.00    +0.000 NA
ATOM     15  C   UNL     1      -0.552  10.827  21.380  0.00  0.00    +0.000 A 
ENDBRANCH   5   7
BRANCH   1  17
ATOM     16  O   UNL     1       2.806   5.392  20.425  0.00  0.00    +0.000 OA
ATOM     17  C   UNL     1       2.827   5.987  19.353  0.00  0.00    +0.000 C 
ATOM     18  N   UNL     1       3.390   5.472  18.200  0.00  0.00    +0.000 N 
ATOM     19  H   UNL     1       3.584   6.100  17.429  0.00  0.00    +0.000 HD
BRANCH  18  20
ATOM     20  C   UNL     1       4.014   4.164  18.213  0.00  0.00    +0.000 C 
BRANCH  20  21
ATOM     21  C   UNL     1       5.537   4.232  18.112  0.00  0.00    +0.000 C 
BRANCH  21  22
ATOM     22  C   UNL     1       5.962   4.383  16.699  0.00  0.00    +0.000 A 
ATOM     23  C   UNL     1       7.168   4.668  16.094  0.00  0.00    +0.000 A 
ATOM     24  C   UNL     1       6.911   4.728  14.704  0.00  0.00    +0.000 A 
ATOM     25  C   UNL     1       5.569   4.470  14.550  0.00  0.00    +0.000 A 
ATOM     26  O   UNL     1       4.985   4.254  15.757  0.00  0.00    +0.000 OA
ENDBRANCH  21  22
ENDBRANCH  20  21
ENDBRANCH  18  20
ENDBRANCH   1  17
TORSDOF 5
ENDMDL
MODEL 9
REMARK VINA RESULT:      -8.1      4.824      6.410
REMARK  Name = 
REMARK  5 active torsions:
REMARK  status: ('A' for Active; 'I' for Inactive)
REMARK    1  A    between atoms: C_2  and  C_11
REMARK    2  A    between atoms: N_3  and  C_4
REMARK    3  A    between atoms: C_4  and  C_5
REMARK    4  A    between atoms: C_5  and  C_6
REMARK    5  A    between atoms: C_15  and  N_16
REMARK                            x       y       z     vdW  Elec       q    Type
REMARK                         _______ _______ _______ _____ _____    ______ ____
ROOT
ATOM      1  C   UNL     1       3.053   6.077  18.565  0.00  0.00    +0.000 A 
ATOM      2  C   UNL     1       2.627   4.873  19.134  0.00  0.00    +0.000 A 
ATOM      3  C   UNL     1       1.825   4.889  20.276  0.00  0.00    +0.000 A 
ATOM      4  C   UNL     1       1.430   6.106  20.843  0.00  0.00    +0.000 A 
ATOM      5  C   UNL     1       1.815   7.319  20.249  0.00  0.00    +0.000 A 
ATOM      6  C   UNL     1       2.634   7.295  19.114  0.00  0.00    +0.000 A 
ENDROOT
BRANCH   5   7
ATOM      7  N   UNL     1       1.341   8.550  20.780  0.00  0.00    +0.000 N 
ATOM      8  N   UNL     1       1.466   8.848  22.106  0.00  0.00    +0.000 NA
ATOM      9  N   UNL     1       0.897  10.026  22.335  0.00  0.00    +0.000 NA
ATOM     10  C   UNL     1       0.396  10.489  21.154  0.00  0.00    +0.000 A 
ATOM     11  C   UNL     1      -0.327  11.644  20.834  0.00  0.00    +0.000 A 
ATOM     12  C   UNL     1      -0.723  11.805  19.504  0.00  0.00    +0.000 A 
ATOM     13  C   UNL     1      -0.375  10.838  18.572  0.00  0.00    +0.000 A 
ATOM     14  N   UNL     1       0.331   9.715  18.831  0.00  0.00    +0.000 NA
ATOM     15  C   UNL     1       0.680   9.589  20.135  0.00  0.00    +0.000 A 
ENDBRANCH   5   7
BRANCH   1  17
ATOM     16  O   UNL     1       4.142   7.082  16.736  0.00  0.00    +0.000 OA
ATOM     17  C   UNL     1       3.908   6.047  17.349  0.00  0.00    +0.000 C 
ATOM     18  N   UNL     1       4.383   4.806  16.971  0.00  0.00    +0.000 N 
ATOM     19  H   UNL     1       3.963   3.978  17.374  0.00  0.00    +0.000 HD
BRANCH  18  20
ATOM     20  C   UNL     1       5.200   4.669  15.780  0.00  0.00    +0.000 C 
BRANCH  20  21
ATOM     21  C   UNL     1       6.666   4.379  16.096  0.00  0.00    +0.000 C 
BRANCH  21  22
ATOM     22  C   UNL     1       7.200   5.373  17.060  0.00  0.00    +0.000 A 
ATOM     23  C   UNL     1       7.646   5.290  18.362  0.00  0.00    +0.000 A 
ATOM     24  C   UNL     1       7.980   6.608  18.752  0.00  0.00    +0.000 A 
ATOM     25  C   UNL     1       7.722   7.408  17.663  0.00  0.00    +0.000 A 
ATOM     26  O   UNL     1       7.253   6.665  16.629  0.00  0.00    +0.000 OA
ENDBRANCH  21  22
ENDBRANCH  20  21
ENDBRANCH  18  20
ENDBRANCH   1  17
TORSDOF 5
ENDMDL
