MODEL 1
REMARK VINA RESULT:      -7.1      0.000      0.000
REMARK  Name = 
REMARK  7 active torsions:
REMARK  status: ('A' for Active; 'I' for Inactive)
REMARK    1  A    between atoms: C_1  and  C_2
REMARK    2  A    between atoms: C_2  and  O_3
REMARK    3  A    between atoms: O_3  and  C_4
REMARK    4  A    between atoms: C_9  and  N_10
REMARK    5  A    between atoms: C_15  and  C_16
REMARK    6  A    between atoms: N_20  and  C_21
REMARK    7  A    between atoms: C_21  and  C_22
REMARK                            x       y       z     vdW  Elec       q    Type
REMARK                         _______ _______ _______ _____ _____    ______ ____
ROOT
ATOM      1  N   UNL     1      -0.579  12.514  21.482  0.00  0.00    +0.000 N 
ATOM      2  C   UNL     1      -0.051  11.373  20.957  0.00  0.00    +0.000 A 
ATOM      3  N   UNL     1       0.413  10.318  21.589  0.00  0.00    +0.000 NA
ATOM      4  C   UNL     1       0.922   9.487  20.612  0.00  0.00    +0.000 A 
ATOM      5  C   UNL     1       1.582   8.252  20.734  0.00  0.00    +0.000 A 
ATOM      6  C   UNL     1       2.044   7.608  19.570  0.00  0.00    +0.000 A 
ATOM      7  C   UNL     1       2.745   6.284  19.652  0.00  0.00    +0.000 C 
ATOM      8  C   UNL     1       1.828   8.188  18.312  0.00  0.00    +0.000 A 
ATOM      9  C   UNL     1       1.159   9.407  18.173  0.00  0.00    +0.000 A 
ATOM     10  C   UNL     1       0.719  10.027  19.351  0.00  0.00    +0.000 A 
ATOM     11  N   UNL     1       0.060  11.212  19.593  0.00  0.00    +0.000 N 
ATOM     12  H   UNL     1       0.005  13.328  21.292  0.00  0.00    +0.000 HD
ENDROOT
BRANCH   1  18
ATOM     13  C   UNL     1      -4.650  14.731  23.151  0.00  0.00    +0.000 C 
ATOM     14  O   UNL     1      -5.734  14.179  23.001  0.00  0.00    +0.000 OA
ATOM     15  N   UNL     1      -3.435  14.112  22.927  0.00  0.00    +0.000 N 
ATOM     16  C   UNL     1      -3.446  12.780  22.341  0.00  0.00    +0.000 C 
ATOM     17  C   UNL     1      -2.421  11.904  23.038  0.00  0.00    +0.000 C 
ATOM     18  C   UNL     1      -1.015  12.501  22.892  0.00  0.00    +0.000 C 
ATOM     19  C   UNL     1      -1.021  13.939  23.455  0.00  0.00    +0.000 C 
ATOM     20  C   UNL     1      -2.151  14.808  22.892  0.00  0.00    +0.000 C 
BRANCH  13  21
ATOM     21  O   UNL     1      -4.519  16.038  23.509  0.00  0.00    +0.000 OA
BRANCH  21  23
ATOM     22  C   UNL     1      -4.920  17.592  25.274  0.00  0.00    +0.000 C 
ATOM     23  C   UNL     1      -5.536  16.514  24.400  0.00  0.00    +0.000 C 
ENDBRANCH  21  23
ENDBRANCH  13  21
ENDBRANCH   1  18
BRANCH  11  24
ATOM     24  C   UNL     1      -0.467  12.100  18.572  0.00  0.00    +0.000 C 
BRANCH  24  25
ATOM     25  C   UNL     1      -1.880  11.750  18.167  0.00  0.00    +0.000 A 
ATOM     26  C   UNL     1      -2.172  11.073  16.969  0.00  0.00    +0.000 A 
ATOM     27  C   UNL     1      -3.493  10.831  16.596  0.00  0.00    +0.000 A 
ATOM     28  C   UNL     1      -4.523  11.231  17.435  0.00  0.00    +0.000 A 
ATOM     29  F   UNL     1      -5.793  11.031  17.061  0.00  0.00    +0.000 F 
ATOM     30  C   UNL     1      -4.257  11.839  18.655  0.00  0.00    +0.000 A 
ATOM     31  C   UNL     1      -2.936  12.089  19.028  0.00  0.00    +0.000 A 
ENDBRANCH  24  25
ENDBRANCH  11  24
TORSDOF 5
ENDMDL
MODEL 2
REMARK VINA RESULT:      -7.0      0.627      1.152
REMARK  Name = 
REMARK  7 active torsions:
REMARK  status: ('A' for Active; 'I' for Inactive)
REMARK    1  A    between atoms: C_1  and  C_2
REMARK    2  A    between atoms: C_2  and  O_3
REMARK    3  A    between atoms: O_3  and  C_4
REMARK    4  A    between atoms: C_9  and  N_10
REMARK    5  A    between atoms: C_15  and  C_16
REMARK    6  A    between atoms: N_20  and  C_21
REMARK    7  A    between atoms: C_21  and  C_22
REMARK                            x       y       z     vdW  Elec       q    Type
REMARK                         _______ _______ _______ _____ _____    ______ ____
ROOT
ATOM      1  N   UNL     1      -0.773  12.593  21.638  0.00  0.00    +0.000 N 
ATOM      2  C   UNL     1      -0.221  11.490  21.061  0.00  0.00    +0.000 A 
ATOM      3  N   UNL     1       0.315  10.441  21.645  0.00  0.00    +0.000 NA
ATOM      4  C   UNL     1       0.816   9.656  20.626  0.00  0.00    +0.000 A 
ATOM      5  C   UNL     1       1.533   8.449  20.688  0.00  0.00    +0.000 A 
ATOM      6  C   UNL     1       1.971   7.854  19.489  0.00  0.00    +0.000 A 
ATOM      7  C   UNL     1       2.732   6.561  19.506  0.00  0.00    +0.000 C 
ATOM      8  C   UNL     1       1.676   8.455  18.257  0.00  0.00    +0.000 A 
ATOM      9  C   UNL     1       0.951   9.647  18.178  0.00  0.00    +0.000 A 
ATOM     10  C   UNL     1       0.536  10.218  19.389  0.00  0.00    +0.000 A 
ATOM     11  N   UNL     1      -0.161  11.367  19.690  0.00  0.00    +0.000 N 
ATOM     12  H   UNL     1      -0.233  13.436  21.444  0.00  0.00    +0.000 HD
ENDROOT
BRANCH   1  18
ATOM     13  C   UNL     1      -4.886  14.542  23.525  0.00  0.00    +0.000 C 
ATOM     14  O   UNL     1      -5.943  13.933  23.408  0.00  0.00    +0.000 OA
ATOM     15  N   UNL     1      -3.650  13.997  23.236  0.00  0.00    +0.000 N 
ATOM     16  C   UNL     1      -3.611  12.679  22.621  0.00  0.00    +0.000 C 
ATOM     17  C   UNL     1      -2.510  11.848  23.255  0.00  0.00    +0.000 C 
ATOM     18  C   UNL     1      -1.147  12.527  23.064  0.00  0.00    +0.000 C 
ATOM     19  C   UNL     1      -1.210  13.950  23.659  0.00  0.00    +0.000 C 
ATOM     20  C   UNL     1      -2.409  14.765  23.164  0.00  0.00    +0.000 C 
BRANCH  13  21
ATOM     21  O   UNL     1      -4.812  15.846  23.907  0.00  0.00    +0.000 OA
BRANCH  21  23
ATOM     22  C   UNL     1      -5.280  17.167  21.975  0.00  0.00    +0.000 C 
ATOM     23  C   UNL     1      -5.808  16.694  23.318  0.00  0.00    +0.000 C 
ENDBRANCH  21  23
ENDBRANCH  13  21
ENDBRANCH   1  18
BRANCH  11  24
ATOM     24  C   UNL     1      -0.770  12.256  18.715  0.00  0.00    +0.000 C 
BRANCH  24  25
ATOM     25  C   UNL     1      -2.205  11.892  18.411  0.00  0.00    +0.000 A 
ATOM     26  C   UNL     1      -3.278  12.341  19.204  0.00  0.00    +0.000 A 
ATOM     27  C   UNL     1      -4.580  11.926  18.933  0.00  0.00    +0.000 A 
ATOM     28  C   UNL     1      -4.820  11.092  17.851  0.00  0.00    +0.000 A 
ATOM     29  F   UNL     1      -6.065  10.664  17.612  0.00  0.00    +0.000 F 
ATOM     30  C   UNL     1      -3.786  10.692  17.014  0.00  0.00    +0.000 A 
ATOM     31  C   UNL     1      -2.480  11.099  17.286  0.00  0.00    +0.000 A 
ENDBRANCH  24  25
ENDBRANCH  11  24
TORSDOF 5
ENDMDL
MODEL 3
REMARK VINA RESULT:      -6.8      4.621      7.038
REMARK  Name = 
REMARK  7 active torsions:
REMARK  status: ('A' for Active; 'I' for Inactive)
REMARK    1  A    between atoms: C_1  and  C_2
REMARK    2  A    between atoms: C_2  and  O_3
REMARK    3  A    between atoms: O_3  and  C_4
REMARK    4  A    between atoms: C_9  and  N_10
REMARK    5  A    between atoms: C_15  and  C_16
REMARK    6  A    between atoms: N_20  and  C_21
REMARK    7  A    between atoms: C_21  and  C_22
REMARK                            x       y       z     vdW  Elec       q    Type
REMARK                         _______ _______ _______ _____ _____    ______ ____
ROOT
ATOM      1  N   UNL     1       1.347  12.682  20.174  0.00  0.00    +0.000 N 
ATOM      2  C   UNL     1       0.198  12.262  19.575  0.00  0.00    +0.000 A 
ATOM      3  N   UNL     1      -1.025  12.716  19.738  0.00  0.00    +0.000 NA
ATOM      4  C   UNL     1      -1.837  11.894  18.984  0.00  0.00    +0.000 A 
ATOM      5  C   UNL     1      -3.235  11.896  18.838  0.00  0.00    +0.000 A 
ATOM      6  C   UNL     1      -3.837  10.916  18.026  0.00  0.00    +0.000 A 
ATOM      7  C   UNL     1      -5.325  10.885  17.834  0.00  0.00    +0.000 C 
ATOM      8  C   UNL     1      -3.044   9.969  17.362  0.00  0.00    +0.000 A 
ATOM      9  C   UNL     1      -1.652   9.964  17.483  0.00  0.00    +0.000 A 
ATOM     10  C   UNL     1      -1.084  10.947  18.305  0.00  0.00    +0.000 A 
ATOM     11  N   UNL     1       0.215  11.227  18.666  0.00  0.00    +0.000 N 
ATOM     12  H   UNL     1       1.742  11.967  20.784  0.00  0.00    +0.000 HD
ENDROOT
BRANCH   1  18
ATOM     13  C   UNL     1       4.302  16.421  18.925  0.00  0.00    +0.000 C 
ATOM     14  O   UNL     1       4.010  17.115  17.958  0.00  0.00    +0.000 OA
ATOM     15  N   UNL     1       3.446  15.498  19.494  0.00  0.00    +0.000 N 
ATOM     16  C   UNL     1       2.184  15.232  18.822  0.00  0.00    +0.000 C 
ATOM     17  C   UNL     1       1.067  15.131  19.845  0.00  0.00    +0.000 C 
ATOM     18  C   UNL     1       1.350  13.999  20.841  0.00  0.00    +0.000 C 
ATOM     19  C   UNL     1       2.721  14.248  21.506  0.00  0.00    +0.000 C 
ATOM     20  C   UNL     1       3.846  14.518  20.501  0.00  0.00    +0.000 C 
BRANCH  13  21
ATOM     21  O   UNL     1       5.526  16.443  19.519  0.00  0.00    +0.000 OA
BRANCH  21  23
ATOM     22  C   UNL     1       5.050  18.102  21.167  0.00  0.00    +0.000 C 
ATOM     23  C   UNL     1       5.934  17.736  19.988  0.00  0.00    +0.000 C 
ENDBRANCH  21  23
ENDBRANCH  13  21
ENDBRANCH   1  18
BRANCH  11  24
ATOM     24  C   UNL     1       1.393  10.569  18.129  0.00  0.00    +0.000 C 
BRANCH  24  25
ATOM     25  C   UNL     1       1.640   9.215  18.752  0.00  0.00    +0.000 A 
ATOM     26  C   UNL     1       1.263   8.916  20.074  0.00  0.00    +0.000 A 
ATOM     27  C   UNL     1       1.572   7.680  20.637  0.00  0.00    +0.000 A 
ATOM     28  C   UNL     1       2.227   6.726  19.872  0.00  0.00    +0.000 A 
ATOM     29  F   UNL     1       2.556   5.551  20.423  0.00  0.00    +0.000 F 
ATOM     30  C   UNL     1       2.548   6.972  18.544  0.00  0.00    +0.000 A 
ATOM     31  C   UNL     1       2.247   8.212  17.979  0.00  0.00    +0.000 A 
ENDBRANCH  24  25
ENDBRANCH  11  24
TORSDOF 5
ENDMDL
MODEL 4
REMARK VINA RESULT:      -6.8      2.619      3.565
REMARK  Name = 
REMARK  7 active torsions:
REMARK  status: ('A' for Active; 'I' for Inactive)
REMARK    1  A    between atoms: C_1  and  C_2
REMARK    2  A    between atoms: C_2  and  O_3
REMARK    3  A    between atoms: O_3  and  C_4
REMARK    4  A    between atoms: C_9  and  N_10
REMARK    5  A    between atoms: C_15  and  C_16
REMARK    6  A    between atoms: N_20  and  C_21
REMARK    7  A    between atoms: C_21  and  C_22
REMARK                            x       y       z     vdW  Elec       q    Type
REMARK                         _______ _______ _______ _____ _____    ______ ____
ROOT
ATOM      1  N   UNL     1      -0.477  12.619  21.504  0.00  0.00    +0.000 N 
ATOM      2  C   UNL     1       0.039  11.475  20.974  0.00  0.00    +0.000 A 
ATOM      3  N   UNL     1       0.350  10.355  21.588  0.00  0.00    +0.000 NA
ATOM      4  C   UNL     1       0.924   9.546  20.629  0.00  0.00    +0.000 A 
ATOM      5  C   UNL     1       1.482   8.261  20.751  0.00  0.00    +0.000 A 
ATOM      6  C   UNL     1       2.046   7.653  19.613  0.00  0.00    +0.000 A 
ATOM      7  C   UNL     1       2.645   6.279  19.693  0.00  0.00    +0.000 C 
ATOM      8  C   UNL     1       2.029   8.317  18.378  0.00  0.00    +0.000 A 
ATOM      9  C   UNL     1       1.463   9.588  18.238  0.00  0.00    +0.000 A 
ATOM     10  C   UNL     1       0.918  10.170  19.390  0.00  0.00    +0.000 A 
ATOM     11  N   UNL     1       0.312  11.383  19.627  0.00  0.00    +0.000 N 
ATOM     12  H   UNL     1       0.178  13.398  21.440  0.00  0.00    +0.000 HD
ENDROOT
BRANCH   1  18
ATOM     13  C   UNL     1      -4.710  14.822  22.731  0.00  0.00    +0.000 C 
ATOM     14  O   UNL     1      -5.770  14.290  22.424  0.00  0.00    +0.000 OA
ATOM     15  N   UNL     1      -3.481  14.196  22.638  0.00  0.00    +0.000 N 
ATOM     16  C   UNL     1      -3.428  12.888  22.004  0.00  0.00    +0.000 C 
ATOM     17  C   UNL     1      -2.506  11.973  22.789  0.00  0.00    +0.000 C 
ATOM     18  C   UNL     1      -1.089  12.558  22.846  0.00  0.00    +0.000 C 
ATOM     19  C   UNL     1      -1.155  13.973  23.460  0.00  0.00    +0.000 C 
ATOM     20  C   UNL     1      -2.198  14.877  22.794  0.00  0.00    +0.000 C 
BRANCH  13  21
ATOM     21  O   UNL     1      -4.615  16.112  23.154  0.00  0.00    +0.000 OA
BRANCH  21  23
ATOM     22  C   UNL     1      -4.336  17.333  25.185  0.00  0.00    +0.000 C 
ATOM     23  C   UNL     1      -5.227  16.366  24.426  0.00  0.00    +0.000 C 
ENDBRANCH  21  23
ENDBRANCH  13  21
ENDBRANCH   1  18
BRANCH  11  24
ATOM     24  C   UNL     1      -0.024  12.364  18.609  0.00  0.00    +0.000 C 
BRANCH  24  25
ATOM     25  C   UNL     1       0.970  13.500  18.543  0.00  0.00    +0.000 A 
ATOM     26  C   UNL     1       0.616  14.827  18.849  0.00  0.00    +0.000 A 
ATOM     27  C   UNL     1       1.543  15.858  18.708  0.00  0.00    +0.000 A 
ATOM     28  C   UNL     1       2.834  15.563  18.294  0.00  0.00    +0.000 A 
ATOM     29  F   UNL     1       3.715  16.556  18.124  0.00  0.00    +0.000 F 
ATOM     30  C   UNL     1       3.226  14.252  18.053  0.00  0.00    +0.000 A 
ATOM     31  C   UNL     1       2.299  13.219  18.186  0.00  0.00    +0.000 A 
ENDBRANCH  24  25
ENDBRANCH  11  24
TORSDOF 5
ENDMDL
MODEL 5
REMARK VINA RESULT:      -6.7      3.955      7.012
REMARK  Name = 
REMARK  7 active torsions:
REMARK  status: ('A' for Active; 'I' for Inactive)
REMARK    1  A    between atoms: C_1  and  C_2
REMARK    2  A    between atoms: C_2  and  O_3
REMARK    3  A    between atoms: O_3  and  C_4
REMARK    4  A    between atoms: C_9  and  N_10
REMARK    5  A    between atoms: C_15  and  C_16
REMARK    6  A    between atoms: N_20  and  C_21
REMARK    7  A    between atoms: C_21  and  C_22
REMARK                            x       y       z     vdW  Elec       q    Type
REMARK                         _______ _______ _______ _____ _____    ______ ____
ROOT
ATOM      1  N   UNL     1       1.406   8.553  18.530  0.00  0.00    +0.000 N 
ATOM      2  C   UNL     1       2.502   7.859  18.116  0.00  0.00    +0.000 A 
ATOM      3  N   UNL     1       3.255   8.070  17.059  0.00  0.00    +0.000 NA
ATOM      4  C   UNL     1       4.169   7.037  17.035  0.00  0.00    +0.000 A 
ATOM      5  C   UNL     1       5.173   6.744  16.095  0.00  0.00    +0.000 A 
ATOM      6  C   UNL     1       5.964   5.594  16.279  0.00  0.00    +0.000 A 
ATOM      7  C   UNL     1       7.053   5.247  15.306  0.00  0.00    +0.000 C 
ATOM      8  C   UNL     1       5.758   4.770  17.394  0.00  0.00    +0.000 A 
ATOM      9  C   UNL     1       4.775   5.056  18.346  0.00  0.00    +0.000 A 
ATOM     10  C   UNL     1       4.000   6.203  18.130  0.00  0.00    +0.000 A 
ATOM     11  N   UNL     1       2.956   6.770  18.828  0.00  0.00    +0.000 N 
ATOM     12  H   UNL     1       0.557   7.990  18.483  0.00  0.00    +0.000 HD
ENDROOT
BRANCH   1  18
ATOM     13  C   UNL     1      -0.991  12.164  20.874  0.00  0.00    +0.000 C 
ATOM     14  O   UNL     1      -0.399  12.820  21.723  0.00  0.00    +0.000 OA
ATOM     15  N   UNL     1      -0.367  11.287  20.007  0.00  0.00    +0.000 N 
ATOM     16  C   UNL     1       1.049  11.019  20.210  0.00  0.00    +0.000 C 
ATOM     17  C   UNL     1       1.764  10.990  18.871  0.00  0.00    +0.000 C 
ATOM     18  C   UNL     1       1.173   9.898  17.969  0.00  0.00    +0.000 C 
ATOM     19  C   UNL     1      -0.342  10.148  17.808  0.00  0.00    +0.000 C 
ATOM     20  C   UNL     1      -1.071  10.346  19.141  0.00  0.00    +0.000 C 
BRANCH  13  21
ATOM     21  O   UNL     1      -2.343  12.186  20.720  0.00  0.00    +0.000 OA
BRANCH  21  23
ATOM     22  C   UNL     1      -3.801  12.690  22.540  0.00  0.00    +0.000 C 
ATOM     23  C   UNL     1      -2.999  13.272  21.390  0.00  0.00    +0.000 C 
ENDBRANCH  21  23
ENDBRANCH  13  21
ENDBRANCH   1  18
BRANCH  11  24
ATOM     24  C   UNL     1       2.467   6.316  20.118  0.00  0.00    +0.000 C 
BRANCH  24  25
ATOM     25  C   UNL     1       2.061   4.861  20.109  0.00  0.00    +0.000 A 
ATOM     26  C   UNL     1       2.254   4.020  21.220  0.00  0.00    +0.000 A 
ATOM     27  C   UNL     1       1.932   2.666  21.148  0.00  0.00    +0.000 A 
ATOM     28  C   UNL     1       1.384   2.156  19.980  0.00  0.00    +0.000 A 
ATOM     29  F   UNL     1       1.108   0.849  19.898  0.00  0.00    +0.000 F 
ATOM     30  C   UNL     1       1.120   2.980  18.895  0.00  0.00    +0.000 A 
ATOM     31  C   UNL     1       1.449   4.335  18.960  0.00  0.00    +0.000 A 
ENDBRANCH  24  25
ENDBRANCH  11  24
TORSDOF 5
ENDMDL
MODEL 6
REMARK VINA RESULT:      -6.5      5.035      7.611
REMARK  Name = 
REMARK  7 active torsions:
REMARK  status: ('A' for Active; 'I' for Inactive)
REMARK    1  A    between atoms: C_1  and  C_2
REMARK    2  A    between atoms: C_2  and  O_3
REMARK    3  A    between atoms: O_3  and  C_4
REMARK    4  A    between atoms: C_9  and  N_10
REMARK    5  A    between atoms: C_15  and  C_16
REMARK    6  A    between atoms: N_20  and  C_21
REMARK    7  A    between atoms: C_21  and  C_22
REMARK                            x       y       z     vdW  Elec       q    Type
REMARK                         _______ _______ _______ _____ _____    ______ ____
ROOT
ATOM      1  N   UNL     1       1.641  12.780  19.637  0.00  0.00    +0.000 N 
ATOM      2  C   UNL     1       0.464  12.298  19.149  0.00  0.00    +0.000 A 
ATOM      3  N   UNL     1      -0.739  12.818  19.249  0.00  0.00    +0.000 NA
ATOM      4  C   UNL     1      -1.596  11.900  18.678  0.00  0.00    +0.000 A 
ATOM      5  C   UNL     1      -2.996  11.925  18.562  0.00  0.00    +0.000 A 
ATOM      6  C   UNL     1      -3.650  10.832  17.960  0.00  0.00    +0.000 A 
ATOM      7  C   UNL     1      -5.143  10.820  17.807  0.00  0.00    +0.000 C 
ATOM      8  C   UNL     1      -2.906   9.750  17.470  0.00  0.00    +0.000 A 
ATOM      9  C   UNL     1      -1.511   9.717  17.564  0.00  0.00    +0.000 A 
ATOM     10  C   UNL     1      -0.891  10.815  18.175  0.00  0.00    +0.000 A 
ATOM     11  N   UNL     1       0.425  11.110  18.451  0.00  0.00    +0.000 N 
ATOM     12  H   UNL     1       2.029  12.178  20.362  0.00  0.00    +0.000 HD
ENDROOT
BRANCH   1  18
ATOM     13  C   UNL     1       5.774  15.461  19.734  0.00  0.00    +0.000 C 
ATOM     14  O   UNL     1       6.204  15.932  18.687  0.00  0.00    +0.000 OA
ATOM     15  N   UNL     1       4.522  14.889  19.861  0.00  0.00    +0.000 N 
ATOM     16  C   UNL     1       3.730  14.704  18.655  0.00  0.00    +0.000 C 
ATOM     17  C   UNL     1       2.284  15.075  18.927  0.00  0.00    +0.000 C 
ATOM     18  C   UNL     1       1.704  14.198  20.044  0.00  0.00    +0.000 C 
ATOM     19  C   UNL     1       2.584  14.345  21.304  0.00  0.00    +0.000 C 
ATOM     20  C   UNL     1       4.077  14.137  21.032  0.00  0.00    +0.000 C 
BRANCH  13  21
ATOM     21  O   UNL     1       6.501  15.403  20.882  0.00  0.00    +0.000 OA
BRANCH  21  23
ATOM     22  C   UNL     1       8.876  15.536  21.069  0.00  0.00    +0.000 C 
ATOM     23  C   UNL     1       7.590  16.334  20.944  0.00  0.00    +0.000 C 
ENDBRANCH  21  23
ENDBRANCH  13  21
ENDBRANCH   1  18
BRANCH  11  24
ATOM     24  C   UNL     1       1.567  10.321  18.025  0.00  0.00    +0.000 C 
BRANCH  24  25
ATOM     25  C   UNL     1       1.697   9.023  18.788  0.00  0.00    +0.000 A 
ATOM     26  C   UNL     1       1.255   8.886  20.117  0.00  0.00    +0.000 A 
ATOM     27  C   UNL     1       1.457   7.695  20.811  0.00  0.00    +0.000 A 
ATOM     28  C   UNL     1       2.069   6.627  20.171  0.00  0.00    +0.000 A 
ATOM     29  F   UNL     1       2.296   5.495  20.848  0.00  0.00    +0.000 F 
ATOM     30  C   UNL     1       2.452   6.716  18.839  0.00  0.00    +0.000 A 
ATOM     31  C   UNL     1       2.258   7.910  18.143  0.00  0.00    +0.000 A 
ENDBRANCH  24  25
ENDBRANCH  11  24
TORSDOF 5
ENDMDL
MODEL 7
REMARK VINA RESULT:      -6.5      2.913      4.491
REMARK  Name = 
REMARK  7 active torsions:
REMARK  status: ('A' for Active; 'I' for Inactive)
REMARK    1  A    between atoms: C_1  and  C_2
REMARK    2  A    between atoms: C_2  and  O_3
REMARK    3  A    between atoms: O_3  and  C_4
REMARK    4  A    between atoms: C_9  and  N_10
REMARK    5  A    between atoms: C_15  and  C_16
REMARK    6  A    between atoms: N_20  and  C_21
REMARK    7  A    between atoms: C_21  and  C_22
REMARK                            x       y       z     vdW  Elec       q    Type
REMARK                         _______ _______ _______ _____ _____    ______ ____
ROOT
ATOM      1  N   UNL     1      -0.933  12.216  21.517  0.00  0.00    +0.000 N 
ATOM      2  C   UNL     1       0.230  12.690  20.988  0.00  0.00    +0.000 A 
ATOM      3  N   UNL     1       1.060  13.575  21.494  0.00  0.00    +0.000 NA
ATOM      4  C   UNL     1       2.025  13.781  20.530  0.00  0.00    +0.000 A 
ATOM      5  C   UNL     1       3.120  14.662  20.526  0.00  0.00    +0.000 A 
ATOM      6  C   UNL     1       3.951  14.712  19.390  0.00  0.00    +0.000 A 
ATOM      7  C   UNL     1       5.137  15.630  19.344  0.00  0.00    +0.000 C 
ATOM      8  C   UNL     1       3.692  13.878  18.292  0.00  0.00    +0.000 A 
ATOM      9  C   UNL     1       2.617  12.985  18.288  0.00  0.00    +0.000 A 
ATOM     10  C   UNL     1       1.804  12.966  19.430  0.00  0.00    +0.000 A 
ATOM     11  N   UNL     1       0.676  12.249  19.761  0.00  0.00    +0.000 N 
ATOM     12  H   UNL     1      -1.744  12.492  20.964  0.00  0.00    +0.000 HD
ENDROOT
BRANCH   1  18
ATOM     13  C   UNL     1      -4.791  14.682  23.336  0.00  0.00    +0.000 C 
ATOM     14  O   UNL     1      -5.876  14.118  23.413  0.00  0.00    +0.000 OA
ATOM     15  N   UNL     1      -3.605  14.030  23.054  0.00  0.00    +0.000 N 
ATOM     16  C   UNL     1      -3.670  12.624  22.687  0.00  0.00    +0.000 C 
ATOM     17  C   UNL     1      -2.551  11.861  23.372  0.00  0.00    +0.000 C 
ATOM     18  C   UNL     1      -1.185  12.423  22.957  0.00  0.00    +0.000 C 
ATOM     19  C   UNL     1      -1.142  13.930  23.288  0.00  0.00    +0.000 C 
ATOM     20  C   UNL     1      -2.347  14.707  22.749  0.00  0.00    +0.000 C 
BRANCH  13  21
ATOM     21  O   UNL     1      -4.635  16.027  23.469  0.00  0.00    +0.000 OA
BRANCH  21  23
ATOM     22  C   UNL     1      -4.964  17.558  25.269  0.00  0.00    +0.000 C 
ATOM     23  C   UNL     1      -5.653  16.668  24.250  0.00  0.00    +0.000 C 
ENDBRANCH  21  23
ENDBRANCH  13  21
ENDBRANCH   1  18
BRANCH  11  24
ATOM     24  C   UNL     1       0.102  11.177  18.967  0.00  0.00    +0.000 C 
BRANCH  24  25
ATOM     25  C   UNL     1       0.914   9.904  19.030  0.00  0.00    +0.000 A 
ATOM     26  C   UNL     1       1.615   9.405  17.917  0.00  0.00    +0.000 A 
ATOM     27  C   UNL     1       2.294   8.190  17.994  0.00  0.00    +0.000 A 
ATOM     28  C   UNL     1       2.304   7.490  19.192  0.00  0.00    +0.000 A 
ATOM     29  F   UNL     1       2.926   6.306  19.257  0.00  0.00    +0.000 F 
ATOM     30  C   UNL     1       1.678   7.997  20.323  0.00  0.00    +0.000 A 
ATOM     31  C   UNL     1       0.991   9.209  20.246  0.00  0.00    +0.000 A 
ENDBRANCH  24  25
ENDBRANCH  11  24
TORSDOF 5
ENDMDL
MODEL 8
REMARK VINA RESULT:      -6.4      7.473     10.262
REMARK  Name = 
REMARK  7 active torsions:
REMARK  status: ('A' for Active; 'I' for Inactive)
REMARK    1  A    between atoms: C_1  and  C_2
REMARK    2  A    between atoms: C_2  and  O_3
REMARK    3  A    between atoms: O_3  and  C_4
REMARK    4  A    between atoms: C_9  and  N_10
REMARK    5  A    between atoms: C_15  and  C_16
REMARK    6  A    between atoms: N_20  and  C_21
REMARK    7  A    between atoms: C_21  and  C_22
REMARK                            x       y       z     vdW  Elec       q    Type
REMARK                         _______ _______ _______ _____ _____    ______ ____
ROOT
ATOM      1  N   UNL     1       5.314  15.807  19.519  0.00  0.00    +0.000 N 
ATOM      2  C   UNL     1       4.069  16.153  19.087  0.00  0.00    +0.000 A 
ATOM      3  N   UNL     1       3.734  17.066  18.202  0.00  0.00    +0.000 NA
ATOM      4  C   UNL     1       2.355  17.095  18.194  0.00  0.00    +0.000 A 
ATOM      5  C   UNL     1       1.475  17.921  17.473  0.00  0.00    +0.000 A 
ATOM      6  C   UNL     1       0.088  17.777  17.671  0.00  0.00    +0.000 A 
ATOM      7  C   UNL     1      -0.888  18.631  16.916  0.00  0.00    +0.000 C 
ATOM      8  C   UNL     1      -0.398  16.810  18.562  0.00  0.00    +0.000 A 
ATOM      9  C   UNL     1       0.463  15.970  19.274  0.00  0.00    +0.000 A 
ATOM     10  C   UNL     1       1.837  16.144  19.061  0.00  0.00    +0.000 A 
ATOM     11  N   UNL     1       2.949  15.528  19.589  0.00  0.00    +0.000 N 
ATOM     12  H   UNL     1       5.454  16.036  20.503  0.00  0.00    +0.000 HD
ENDROOT
BRANCH   1  18
ATOM     13  C   UNL     1       9.291  13.007  18.734  0.00  0.00    +0.000 C 
ATOM     14  O   UNL     1       9.244  12.130  17.880  0.00  0.00    +0.000 OA
ATOM     15  N   UNL     1       8.326  13.985  18.885  0.00  0.00    +0.000 N 
ATOM     16  C   UNL     1       7.118  13.881  18.082  0.00  0.00    +0.000 C 
ATOM     17  C   UNL     1       6.732  15.251  17.554  0.00  0.00    +0.000 C 
ATOM     18  C   UNL     1       6.478  16.223  18.714  0.00  0.00    +0.000 C 
ATOM     19  C   UNL     1       7.740  16.281  19.603  0.00  0.00    +0.000 C 
ATOM     20  C   UNL     1       8.255  14.901  20.021  0.00  0.00    +0.000 C 
BRANCH  13  21
ATOM     21  O   UNL     1      10.277  13.089  19.668  0.00  0.00    +0.000 OA
BRANCH  21  23
ATOM     22  C   UNL     1      12.332  11.889  19.841  0.00  0.00    +0.000 C 
ATOM     23  C   UNL     1      10.831  11.825  20.059  0.00  0.00    +0.000 C 
ENDBRANCH  21  23
ENDBRANCH  13  21
ENDBRANCH   1  18
BRANCH  11  24
ATOM     24  C   UNL     1       2.927  14.380  20.480  0.00  0.00    +0.000 C 
BRANCH  24  25
ATOM     25  C   UNL     1       2.338  13.150  19.830  0.00  0.00    +0.000 A 
ATOM     26  C   UNL     1       1.399  12.331  20.485  0.00  0.00    +0.000 A 
ATOM     27  C   UNL     1       0.933  11.165  19.881  0.00  0.00    +0.000 A 
ATOM     28  C   UNL     1       1.375  10.832  18.609  0.00  0.00    +0.000 A 
ATOM     29  F   UNL     1       0.955   9.694  18.043  0.00  0.00    +0.000 F 
ATOM     30  C   UNL     1       2.248  11.660  17.915  0.00  0.00    +0.000 A 
ATOM     31  C   UNL     1       2.723  12.824  18.520  0.00  0.00    +0.000 A 
ENDBRANCH  24  25
ENDBRANCH  11  24
TORSDOF 5
ENDMDL
MODEL 9
REMARK VINA RESULT:      -6.4      3.345      5.194
REMARK  Name = 
REMARK  7 active torsions:
REMARK  status: ('A' for Active; 'I' for Inactive)
REMARK    1  A    between atoms: C_1  and  C_2
REMARK    2  A    between atoms: C_2  and  O_3
REMARK    3  A    between atoms: O_3  and  C_4
REMARK    4  A    between atoms: C_9  and  N_10
REMARK    5  A    between atoms: C_15  and  C_16
REMARK    6  A    between atoms: N_20  and  C_21
REMARK    7  A    between atoms: C_21  and  C_22
REMARK                            x       y       z     vdW  Elec       q    Type
REMARK                         _______ _______ _______ _____ _____    ______ ____
ROOT
ATOM      1  N   UNL     1      -2.037  14.488  20.077  0.00  0.00    +0.000 N 
ATOM      2  C   UNL     1      -0.709  14.623  19.805  0.00  0.00    +0.000 A 
ATOM      3  N   UNL     1       0.110  15.584  20.175  0.00  0.00    +0.000 NA
ATOM      4  C   UNL     1       1.315  15.309  19.563  0.00  0.00    +0.000 A 
ATOM      5  C   UNL     1       2.518  16.036  19.574  0.00  0.00    +0.000 A 
ATOM      6  C   UNL     1       3.612  15.556  18.828  0.00  0.00    +0.000 A 
ATOM      7  C   UNL     1       4.918  16.294  18.818  0.00  0.00    +0.000 C 
ATOM      8  C   UNL     1       3.499  14.360  18.105  0.00  0.00    +0.000 A 
ATOM      9  C   UNL     1       2.315  13.617  18.097  0.00  0.00    +0.000 A 
ATOM     10  C   UNL     1       1.243  14.126  18.842  0.00  0.00    +0.000 A 
ATOM     11  N   UNL     1      -0.046  13.685  19.044  0.00  0.00    +0.000 N 
ATOM     12  H   UNL     1      -2.608  14.561  19.235  0.00  0.00    +0.000 HD
ENDROOT
BRANCH   1  18
ATOM     13  C   UNL     1      -5.738  12.989  22.962  0.00  0.00    +0.000 C 
ATOM     14  O   UNL     1      -5.499  12.226  23.891  0.00  0.00    +0.000 OA
ATOM     15  N   UNL     1      -4.762  13.642  22.234  0.00  0.00    +0.000 N 
ATOM     16  C   UNL     1      -3.373  13.294  22.489  0.00  0.00    +0.000 C 
ATOM     17  C   UNL     1      -2.523  14.551  22.515  0.00  0.00    +0.000 C 
ATOM     18  C   UNL     1      -2.615  15.290  21.173  0.00  0.00    +0.000 C 
ATOM     19  C   UNL     1      -4.097  15.601  20.873  0.00  0.00    +0.000 C 
ATOM     20  C   UNL     1      -5.013  14.380  20.999  0.00  0.00    +0.000 C 
BRANCH  13  21
ATOM     21  O   UNL     1      -6.995  13.242  22.507  0.00  0.00    +0.000 OA
BRANCH  21  23
ATOM     22  C   UNL     1      -7.462  11.491  20.955  0.00  0.00    +0.000 C 
ATOM     23  C   UNL     1      -7.804  12.073  22.315  0.00  0.00    +0.000 C 
ENDBRANCH  21  23
ENDBRANCH  13  21
ENDBRANCH   1  18
BRANCH  11  24
ATOM     24  C   UNL     1      -0.582  12.420  18.574  0.00  0.00    +0.000 C 
BRANCH  24  25
ATOM     25  C   UNL     1      -0.163  11.252  19.436  0.00  0.00    +0.000 A 
ATOM     26  C   UNL     1      -0.615  11.094  20.759  0.00  0.00    +0.000 A 
ATOM     27  C   UNL     1      -0.150  10.043  21.547  0.00  0.00    +0.000 A 
ATOM     28  C   UNL     1       0.741   9.128  21.005  0.00  0.00    +0.000 A 
ATOM     29  F   UNL     1       1.216   8.139  21.772  0.00  0.00    +0.000 F 
ATOM     30  C   UNL     1       1.148   9.223  19.681  0.00  0.00    +0.000 A 
ATOM     31  C   UNL     1       0.690  10.279  18.892  0.00  0.00    +0.000 A 
ENDBRANCH  24  25
ENDBRANCH  11  24
TORSDOF 5
ENDMDL
