MODEL 1
REMARK VINA RESULT:      -7.1      0.000      0.000
REMARK  Name = 
REMARK  2 active torsions:
REMARK  status: ('A' for Active; 'I' for Inactive)
REMARK    1  A    between atoms: C_1  and  N_2
REMARK    2  A    between atoms: C_20  and  S_21
REMARK                            x       y       z     vdW  Elec       q    Type
REMARK                         _______ _______ _______ _____ _____    ______ ____
ROOT
ATOM      1  C   UNL     1       7.239   7.835  17.408  0.00  0.00    +0.000 C 
ATOM      2  N   UNL     1       6.337   6.713  17.499  0.00  0.00    +0.000 N 
ATOM      3  C   UNL     1       5.095   6.537  16.906  0.00  0.00    +0.000 C 
ATOM      4  O   UNL     1       4.607   7.205  16.015  0.00  0.00    +0.000 OA
ATOM      5  C   UNL     1       4.370   5.462  17.759  0.00  0.00    +0.000 C 
ATOM      6  C   UNL     1       3.684   4.145  17.360  0.00  0.00    +0.000 C 
ATOM      7  C   UNL     1       3.143   3.614  18.790  0.00  0.00    +0.000 C 
ATOM      8  C   UNL     1       4.193   3.111  19.816  0.00  0.00    +0.000 C 
ATOM      9  C   UNL     1       4.536   1.792  19.234  0.00  0.00    +0.000 C 
ATOM     10  C   UNL     1       3.403   1.255  18.768  0.00  0.00    +0.000 C 
ATOM     11  C   UNL     1       2.312   2.312  18.671  0.00  0.00    +0.000 C 
ATOM     12  C   UNL     1       2.584   4.924  19.288  0.00  0.00    +0.000 A 
ATOM     13  C   UNL     1       1.661   5.167  20.285  0.00  0.00    +0.000 A 
ATOM     14  C   UNL     1       1.319   6.495  20.558  0.00  0.00    +0.000 A 
ATOM     15  C   UNL     1       1.860   7.542  19.798  0.00  0.00    +0.000 A 
ATOM     16 BR   UNL     1       1.278   9.316  20.105  0.00  0.00    +0.000 Br
ATOM     17  C   UNL     1       2.829   7.305  18.826  0.00  0.00    +0.000 A 
ATOM     18  C   UNL     1       3.242   5.993  18.635  0.00  0.00    +0.000 A 
ATOM     19  N   UNL     1       5.501   4.976  18.565  0.00  0.00    +0.000 NA
ATOM     20  C   UNL     1       6.503   5.726  18.374  0.00  0.00    +0.000 C 
ENDROOT
BRANCH  20  21
ATOM     21  S   UNL     1       7.952   5.381  19.228  0.00  0.00    +0.000 S 
ATOM     22  H   UNL     1       7.638   6.190  20.260  0.00  0.00    +0.000 HD
ENDBRANCH  20  21
TORSDOF 1
ENDMDL
MODEL 2
REMARK VINA RESULT:      -7.1      3.259      5.749
REMARK  Name = 
REMARK  2 active torsions:
REMARK  status: ('A' for Active; 'I' for Inactive)
REMARK    1  A    between atoms: C_1  and  N_2
REMARK    2  A    between atoms: C_20  and  S_21
REMARK                            x       y       z     vdW  Elec       q    Type
REMARK                         _______ _______ _______ _____ _____    ______ ____
ROOT
ATOM      1  C   UNL     1       2.117   2.314  18.445  0.00  0.00    +0.000 C 
ATOM      2  N   UNL     1       3.111   3.356  18.368  0.00  0.00    +0.000 N 
ATOM      3  C   UNL     1       3.094   4.531  17.631  0.00  0.00    +0.000 C 
ATOM      4  O   UNL     1       2.141   5.026  17.061  0.00  0.00    +0.000 OA
ATOM      5  C   UNL     1       4.579   4.964  17.495  0.00  0.00    +0.000 C 
ATOM      6  C   UNL     1       5.280   6.296  17.810  0.00  0.00    +0.000 C 
ATOM      7  C   UNL     1       6.804   5.974  17.374  0.00  0.00    +0.000 C 
ATOM      8  C   UNL     1       7.613   4.988  18.259  0.00  0.00    +0.000 C 
ATOM      9  C   UNL     1       7.921   5.852  19.422  0.00  0.00    +0.000 C 
ATOM     10  C   UNL     1       8.196   7.073  18.951  0.00  0.00    +0.000 C 
ATOM     11  C   UNL     1       7.737   7.203  17.505  0.00  0.00    +0.000 C 
ATOM     12  C   UNL     1       6.494   5.292  16.065  0.00  0.00    +0.000 A 
ATOM     13  C   UNL     1       7.311   5.056  14.978  0.00  0.00    +0.000 A 
ATOM     14  C   UNL     1       6.768   4.383  13.878  0.00  0.00    +0.000 A 
ATOM     15  C   UNL     1       5.416   4.010  13.866  0.00  0.00    +0.000 A 
ATOM     16 BR   UNL     1       4.681   3.220  12.312  0.00  0.00    +0.000 Br
ATOM     17  C   UNL     1       4.603   4.200  14.980  0.00  0.00    +0.000 A 
ATOM     18  C   UNL     1       5.178   4.772  16.107  0.00  0.00    +0.000 A 
ATOM     19  N   UNL     1       5.195   4.063  18.482  0.00  0.00    +0.000 NA
ATOM     20  C   UNL     1       4.334   3.222  18.874  0.00  0.00    +0.000 C 
ENDROOT
BRANCH  20  21
ATOM     21  S   UNL     1       4.817   2.036  20.017  0.00  0.00    +0.000 S 
ATOM     22  H   UNL     1       6.102   2.042  19.610  0.00  0.00    +0.000 HD
ENDBRANCH  20  21
TORSDOF 1
ENDMDL
MODEL 3
REMARK VINA RESULT:      -6.3      2.698      4.504
REMARK  Name = 
REMARK  2 active torsions:
REMARK  status: ('A' for Active; 'I' for Inactive)
REMARK    1  A    between atoms: C_1  and  N_2
REMARK    2  A    between atoms: C_20  and  S_21
REMARK                            x       y       z     vdW  Elec       q    Type
REMARK                         _______ _______ _______ _____ _____    ______ ____
ROOT
ATOM      1  C   UNL     1       0.873   2.809  20.598  0.00  0.00    +0.000 C 
ATOM      2  N   UNL     1       2.074   3.409  20.070  0.00  0.00    +0.000 N 
ATOM      3  C   UNL     1       2.870   4.405  20.618  0.00  0.00    +0.000 C 
ATOM      4  O   UNL     1       2.837   4.826  21.757  0.00  0.00    +0.000 OA
ATOM      5  C   UNL     1       3.652   5.021  19.427  0.00  0.00    +0.000 C 
ATOM      6  C   UNL     1       5.156   5.260  19.216  0.00  0.00    +0.000 C 
ATOM      7  C   UNL     1       5.174   5.965  17.759  0.00  0.00    +0.000 C 
ATOM      8  C   UNL     1       4.831   5.083  16.529  0.00  0.00    +0.000 C 
ATOM      9  C   UNL     1       6.087   4.309  16.388  0.00  0.00    +0.000 C 
ATOM     10  C   UNL     1       7.101   5.143  16.644  0.00  0.00    +0.000 C 
ATOM     11  C   UNL     1       6.593   6.406  17.324  0.00  0.00    +0.000 C 
ATOM     12  C   UNL     1       4.031   6.921  17.990  0.00  0.00    +0.000 A 
ATOM     13  C   UNL     1       3.697   8.076  17.311  0.00  0.00    +0.000 A 
ATOM     14  C   UNL     1       2.564   8.782  17.728  0.00  0.00    +0.000 A 
ATOM     15  C   UNL     1       1.825   8.353  18.841  0.00  0.00    +0.000 A 
ATOM     16 BR   UNL     1       0.376   9.402  19.459  0.00  0.00    +0.000 Br
ATOM     17  C   UNL     1       2.128   7.163  19.495  0.00  0.00    +0.000 A 
ATOM     18  C   UNL     1       3.190   6.412  19.008  0.00  0.00    +0.000 A 
ATOM     19  N   UNL     1       3.362   4.018  18.389  0.00  0.00    +0.000 NA
ATOM     20  C   UNL     1       2.487   3.212  18.822  0.00  0.00    +0.000 C 
ENDROOT
BRANCH  20  21
ATOM     21  S   UNL     1       1.956   1.953  17.781  0.00  0.00    +0.000 S 
ATOM     22  H   UNL     1       0.760   1.836  18.391  0.00  0.00    +0.000 HD
ENDBRANCH  20  21
TORSDOF 1
ENDMDL
MODEL 4
REMARK VINA RESULT:      -6.2      7.781     10.332
REMARK  Name = 
REMARK  2 active torsions:
REMARK  status: ('A' for Active; 'I' for Inactive)
REMARK    1  A    between atoms: C_1  and  N_2
REMARK    2  A    between atoms: C_20  and  S_21
REMARK                            x       y       z     vdW  Elec       q    Type
REMARK                         _______ _______ _______ _____ _____    ______ ____
ROOT
ATOM      1  C   UNL     1      -2.620  11.080  16.546  0.00  0.00    +0.000 C 
ATOM      2  N   UNL     1      -2.550  11.789  17.800  0.00  0.00    +0.000 N 
ATOM      3  C   UNL     1      -1.447  12.346  18.432  0.00  0.00    +0.000 C 
ATOM      4  O   UNL     1      -0.346  12.536  17.953  0.00  0.00    +0.000 OA
ATOM      5  C   UNL     1      -1.837  12.468  19.930  0.00  0.00    +0.000 C 
ATOM      6  C   UNL     1      -1.796  13.665  20.894  0.00  0.00    +0.000 C 
ATOM      7  C   UNL     1      -2.320  12.994  22.270  0.00  0.00    +0.000 C 
ATOM      8  C   UNL     1      -3.817  12.590  22.350  0.00  0.00    +0.000 C 
ATOM      9  C   UNL     1      -4.450  13.918  22.526  0.00  0.00    +0.000 C 
ATOM     10  C   UNL     1      -3.665  14.629  23.341  0.00  0.00    +0.000 C 
ATOM     11  C   UNL     1      -2.295  13.978  23.465  0.00  0.00    +0.000 C 
ATOM     12  C   UNL     1      -1.493  11.734  22.202  0.00  0.00    +0.000 A 
ATOM     13  C   UNL     1      -1.154  10.846  23.203  0.00  0.00    +0.000 A 
ATOM     14  C   UNL     1      -0.373   9.736  22.864  0.00  0.00    +0.000 A 
ATOM     15  C   UNL     1       0.096   9.567  21.553  0.00  0.00    +0.000 A 
ATOM     16 BR   UNL     1       1.258   8.127  21.157  0.00  0.00    +0.000 Br
ATOM     17  C   UNL     1      -0.286  10.432  20.531  0.00  0.00    +0.000 A 
ATOM     18  C   UNL     1      -1.149  11.471  20.854  0.00  0.00    +0.000 A 
ATOM     19  N   UNL     1      -3.283  12.211  19.835  0.00  0.00    +0.000 NA
ATOM     20  C   UNL     1      -3.563  11.831  18.660  0.00  0.00    +0.000 C 
ENDROOT
BRANCH  20  21
ATOM     21  S   UNL     1      -5.196  11.441  18.299  0.00  0.00    +0.000 S 
ATOM     22  H   UNL     1      -5.266  10.483  19.243  0.00  0.00    +0.000 HD
ENDBRANCH  20  21
TORSDOF 1
ENDMDL
MODEL 5
REMARK VINA RESULT:      -6.1      3.175      5.479
REMARK  Name = 
REMARK  2 active torsions:
REMARK  status: ('A' for Active; 'I' for Inactive)
REMARK    1  A    between atoms: C_1  and  N_2
REMARK    2  A    between atoms: C_20  and  S_21
REMARK                            x       y       z     vdW  Elec       q    Type
REMARK                         _______ _______ _______ _____ _____    ______ ____
ROOT
ATOM      1  C   UNL     1       2.430   1.527  19.311  0.00  0.00    +0.000 C 
ATOM      2  N   UNL     1       2.177   2.917  19.018  0.00  0.00    +0.000 N 
ATOM      3  C   UNL     1       2.046   3.543  17.787  0.00  0.00    +0.000 C 
ATOM      4  O   UNL     1       1.905   3.009  16.704  0.00  0.00    +0.000 OA
ATOM      5  C   UNL     1       2.337   5.045  18.046  0.00  0.00    +0.000 C 
ATOM      6  C   UNL     1       1.532   6.309  17.703  0.00  0.00    +0.000 C 
ATOM      7  C   UNL     1       2.503   7.477  18.261  0.00  0.00    +0.000 C 
ATOM      8  C   UNL     1       2.648   7.619  19.799  0.00  0.00    +0.000 C 
ATOM      9  C   UNL     1       1.357   8.259  20.140  0.00  0.00    +0.000 C 
ATOM     10  C   UNL     1       1.084   9.145  19.176  0.00  0.00    +0.000 C 
ATOM     11  C   UNL     1       1.966   8.898  17.960  0.00  0.00    +0.000 C 
ATOM     12  C   UNL     1       3.798   6.935  17.710  0.00  0.00    +0.000 A 
ATOM     13  C   UNL     1       5.001   7.577  17.492  0.00  0.00    +0.000 A 
ATOM     14  C   UNL     1       6.064   6.829  16.974  0.00  0.00    +0.000 A 
ATOM     15  C   UNL     1       5.888   5.479  16.636  0.00  0.00    +0.000 A 
ATOM     16 BR   UNL     1       7.306   4.531  15.816  0.00  0.00    +0.000 Br
ATOM     17  C   UNL     1       4.693   4.816  16.901  0.00  0.00    +0.000 A 
ATOM     18  C   UNL     1       3.678   5.539  17.515  0.00  0.00    +0.000 A 
ATOM     19  N   UNL     1       2.299   5.059  19.518  0.00  0.00    +0.000 NA
ATOM     20  C   UNL     1       2.236   3.869  19.944  0.00  0.00    +0.000 C 
ENDROOT
BRANCH  20  21
ATOM     21  S   UNL     1       2.205   3.614  21.642  0.00  0.00    +0.000 S 
ATOM     22  H   UNL     1       1.435   2.512  21.550  0.00  0.00    +0.000 HD
ENDBRANCH  20  21
TORSDOF 1
ENDMDL
MODEL 6
REMARK VINA RESULT:      -5.9      9.629     11.464
REMARK  Name = 
REMARK  2 active torsions:
REMARK  status: ('A' for Active; 'I' for Inactive)
REMARK    1  A    between atoms: C_1  and  N_2
REMARK    2  A    between atoms: C_20  and  S_21
REMARK                            x       y       z     vdW  Elec       q    Type
REMARK                         _______ _______ _______ _____ _____    ______ ____
ROOT
ATOM      1  C   UNL     1      -7.875  13.723  19.612  0.00  0.00    +0.000 C 
ATOM      2  N   UNL     1      -6.904  12.818  19.048  0.00  0.00    +0.000 N 
ATOM      3  C   UNL     1      -6.174  11.816  19.671  0.00  0.00    +0.000 C 
ATOM      4  O   UNL     1      -6.362  11.353  20.779  0.00  0.00    +0.000 OA
ATOM      5  C   UNL     1      -4.942  11.565  18.761  0.00  0.00    +0.000 C 
ATOM      6  C   UNL     1      -4.383  10.272  18.145  0.00  0.00    +0.000 C 
ATOM      7  C   UNL     1      -3.076  10.821  17.365  0.00  0.00    +0.000 C 
ATOM      8  C   UNL     1      -3.305  11.687  16.097  0.00  0.00    +0.000 C 
ATOM      9  C   UNL     1      -3.693  10.645  15.119  0.00  0.00    +0.000 C 
ATOM     10  C   UNL     1      -2.927   9.574  15.351  0.00  0.00    +0.000 C 
ATOM     11  C   UNL     1      -2.249   9.688  16.709  0.00  0.00    +0.000 C 
ATOM     12  C   UNL     1      -2.553  11.715  18.462  0.00  0.00    +0.000 A 
ATOM     13  C   UNL     1      -1.289  12.239  18.645  0.00  0.00    +0.000 A 
ATOM     14  C   UNL     1      -1.070  13.059  19.757  0.00  0.00    +0.000 A 
ATOM     15  C   UNL     1      -2.096  13.293  20.685  0.00  0.00    +0.000 A 
ATOM     16 BR   UNL     1      -1.731  14.299  22.245  0.00  0.00    +0.000 Br
ATOM     17  C   UNL     1      -3.385  12.809  20.475  0.00  0.00    +0.000 A 
ATOM     18  C   UNL     1      -3.621  12.085  19.314  0.00  0.00    +0.000 A 
ATOM     19  N   UNL     1      -5.359  12.310  17.562  0.00  0.00    +0.000 NA
ATOM     20  C   UNL     1      -6.408  12.969  17.824  0.00  0.00    +0.000 C 
ENDROOT
BRANCH  20  21
ATOM     21  S   UNL     1      -7.084  13.948  16.586  0.00  0.00    +0.000 S 
ATOM     22  H   UNL     1      -7.322  12.902  15.770  0.00  0.00    +0.000 HD
ENDBRANCH  20  21
TORSDOF 1
ENDMDL
MODEL 7
REMARK VINA RESULT:      -5.9      9.090     11.835
REMARK  Name = 
REMARK  2 active torsions:
REMARK  status: ('A' for Active; 'I' for Inactive)
REMARK    1  A    between atoms: C_1  and  N_2
REMARK    2  A    between atoms: C_20  and  S_21
REMARK                            x       y       z     vdW  Elec       q    Type
REMARK                         _______ _______ _______ _____ _____    ______ ____
ROOT
ATOM      1  C   UNL     1       5.476  14.900  20.885  0.00  0.00    +0.000 C 
ATOM      2  N   UNL     1       6.612  15.249  20.069  0.00  0.00    +0.000 N 
ATOM      3  C   UNL     1       6.821  15.025  18.716  0.00  0.00    +0.000 C 
ATOM      4  O   UNL     1       5.995  14.678  17.894  0.00  0.00    +0.000 OA
ATOM      5  C   UNL     1       8.358  15.090  18.511  0.00  0.00    +0.000 C 
ATOM      6  C   UNL     1       9.218  15.908  17.533  0.00  0.00    +0.000 C 
ATOM      7  C   UNL     1      10.709  15.404  17.907  0.00  0.00    +0.000 C 
ATOM      8  C   UNL     1      11.297  15.848  19.273  0.00  0.00    +0.000 C 
ATOM      9  C   UNL     1      11.636  17.260  18.980  0.00  0.00    +0.000 C 
ATOM     10  C   UNL     1      12.120  17.303  17.734  0.00  0.00    +0.000 C 
ATOM     11  C   UNL     1      11.796  16.015  16.990  0.00  0.00    +0.000 C 
ATOM     12  C   UNL     1      10.404  13.928  17.979  0.00  0.00    +0.000 A 
ATOM     13  C   UNL     1      11.260  12.846  17.912  0.00  0.00    +0.000 A 
ATOM     14  C   UNL     1      10.712  11.564  18.017  0.00  0.00    +0.000 A 
ATOM     15  C   UNL     1       9.324  11.388  18.132  0.00  0.00    +0.000 A 
ATOM     16 BR   UNL     1       8.605   9.638  18.141  0.00  0.00    +0.000 Br
ATOM     17  C   UNL     1       8.465  12.476  18.252  0.00  0.00    +0.000 A 
ATOM     18  C   UNL     1       9.028  13.746  18.255  0.00  0.00    +0.000 A 
ATOM     19  N   UNL     1       8.761  15.658  19.808  0.00  0.00    +0.000 NA
ATOM     20  C   UNL     1       7.760  15.680  20.582  0.00  0.00    +0.000 C 
ENDROOT
BRANCH  20  21
ATOM     21  S   UNL     1       7.979  16.280  22.177  0.00  0.00    +0.000 S 
ATOM     22  H   UNL     1       9.133  16.907  21.875  0.00  0.00    +0.000 HD
ENDBRANCH  20  21
TORSDOF 1
ENDMDL
MODEL 8
REMARK VINA RESULT:      -5.7      7.854      9.862
REMARK  Name = 
REMARK  2 active torsions:
REMARK  status: ('A' for Active; 'I' for Inactive)
REMARK    1  A    between atoms: C_1  and  N_2
REMARK    2  A    between atoms: C_20  and  S_21
REMARK                            x       y       z     vdW  Elec       q    Type
REMARK                         _______ _______ _______ _____ _____    ______ ____
ROOT
ATOM      1  C   UNL     1       2.492  12.675  18.205  0.00  0.00    +0.000 C 
ATOM      2  N   UNL     1       1.356  12.622  19.091  0.00  0.00    +0.000 N 
ATOM      3  C   UNL     1       0.655  11.517  19.554  0.00  0.00    +0.000 C 
ATOM      4  O   UNL     1       0.990  10.351  19.475  0.00  0.00    +0.000 OA
ATOM      5  C   UNL     1      -0.736  12.053  19.987  0.00  0.00    +0.000 C 
ATOM      6  C   UNL     1      -1.515  11.903  21.305  0.00  0.00    +0.000 C 
ATOM      7  C   UNL     1      -2.880  12.703  20.970  0.00  0.00    +0.000 C 
ATOM      8  C   UNL     1      -2.796  14.248  20.841  0.00  0.00    +0.000 C 
ATOM      9  C   UNL     1      -2.686  14.637  22.266  0.00  0.00    +0.000 C 
ATOM     10  C   UNL     1      -3.498  13.834  22.963  0.00  0.00    +0.000 C 
ATOM     11  C   UNL     1      -3.913  12.636  22.122  0.00  0.00    +0.000 C 
ATOM     12  C   UNL     1      -3.115  12.125  19.597  0.00  0.00    +0.000 A 
ATOM     13  C   UNL     1      -4.272  12.081  18.844  0.00  0.00    +0.000 A 
ATOM     14  C   UNL     1      -4.214  11.487  17.579  0.00  0.00    +0.000 A 
ATOM     15  C   UNL     1      -3.023  10.906  17.117  0.00  0.00    +0.000 A 
ATOM     16 BR   UNL     1      -3.012   9.997  15.458  0.00  0.00    +0.000 Br
ATOM     17  C   UNL     1      -1.843  10.995  17.851  0.00  0.00    +0.000 A 
ATOM     18  C   UNL     1      -1.885  11.680  19.058  0.00  0.00    +0.000 A 
ATOM     19  N   UNL     1      -0.467  13.500  19.964  0.00  0.00    +0.000 NA
ATOM     20  C   UNL     1       0.669  13.704  19.444  0.00  0.00    +0.000 C 
ENDROOT
BRANCH  20  21
ATOM     21  S   UNL     1       1.207  15.327  19.278  0.00  0.00    +0.000 S 
ATOM     22  H   UNL     1       1.889  15.075  18.144  0.00  0.00    +0.000 HD
ENDBRANCH  20  21
TORSDOF 1
ENDMDL
MODEL 9
REMARK VINA RESULT:      -5.7      9.270     10.926
REMARK  Name = 
REMARK  2 active torsions:
REMARK  status: ('A' for Active; 'I' for Inactive)
REMARK    1  A    between atoms: C_1  and  N_2
REMARK    2  A    between atoms: C_20  and  S_21
REMARK                            x       y       z     vdW  Elec       q    Type
REMARK                         _______ _______ _______ _____ _____    ______ ____
ROOT
ATOM      1  C   UNL     1       9.400  18.601  18.286  0.00  0.00    +0.000 C 
ATOM      2  N   UNL     1       9.300  17.163  18.257  0.00  0.00    +0.000 N 
ATOM      3  C   UNL     1       8.197  16.356  18.491  0.00  0.00    +0.000 C 
ATOM      4  O   UNL     1       7.034  16.705  18.560  0.00  0.00    +0.000 OA
ATOM      5  C   UNL     1       8.767  14.962  18.867  0.00  0.00    +0.000 C 
ATOM      6  C   UNL     1       8.476  13.561  18.304  0.00  0.00    +0.000 C 
ATOM      7  C   UNL     1       9.426  12.633  19.229  0.00  0.00    +0.000 C 
ATOM      8  C   UNL     1      10.960  12.734  19.014  0.00  0.00    +0.000 C 
ATOM      9  C   UNL     1      11.111  11.973  17.752  0.00  0.00    +0.000 C 
ATOM     10  C   UNL     1      10.277  10.929  17.814  0.00  0.00    +0.000 C 
ATOM     11  C   UNL     1       9.262  11.123  18.931  0.00  0.00    +0.000 C 
ATOM     12  C   UNL     1       9.090  13.269  20.555  0.00  0.00    +0.000 A 
ATOM     13  C   UNL     1       9.257  12.779  21.835  0.00  0.00    +0.000 A 
ATOM     14  C   UNL     1       8.865  13.588  22.907  0.00  0.00    +0.000 A 
ATOM     15  C   UNL     1       8.270  14.838  22.678  0.00  0.00    +0.000 A 
ATOM     16 BR   UNL     1       7.634  15.850  24.145  0.00  0.00    +0.000 Br
ATOM     17  C   UNL     1       8.148  15.356  21.392  0.00  0.00    +0.000 A 
ATOM     18  C   UNL     1       8.637  14.592  20.340  0.00  0.00    +0.000 A 
ATOM     19  N   UNL     1      10.174  15.153  18.478  0.00  0.00    +0.000 NA
ATOM     20  C   UNL     1      10.366  16.370  18.190  0.00  0.00    +0.000 C 
ENDROOT
BRANCH  20  21
ATOM     21  S   UNL     1      11.946  16.857  17.726  0.00  0.00    +0.000 S 
ATOM     22  H   UNL     1      12.327  15.608  17.396  0.00  0.00    +0.000 HD
ENDBRANCH  20  21
TORSDOF 1
ENDMDL
