MODEL 1
REMARK VINA RESULT:      -7.4      0.000      0.000
REMARK  Name = 
REMARK  7 active torsions:
REMARK  status: ('A' for Active; 'I' for Inactive)
REMARK    1  A    between atoms: C_1  and  C_2
REMARK    2  A    between atoms: C_2  and  O_3
REMARK    3  A    between atoms: O_3  and  C_4
REMARK    4  A    between atoms: C_7  and  C_8
REMARK    5  A    between atoms: N_9  and  N_10
REMARK    6  A    between atoms: C_13  and  N_14
REMARK    7  A    between atoms: C_23  and  O_24
REMARK                            x       y       z     vdW  Elec       q    Type
REMARK                         _______ _______ _______ _____ _____    ______ ____
ROOT
ATOM      1  N   UNL     1       3.723   7.657  17.064  0.00  0.00    +0.000 N 
ATOM      2  C   UNL     1       4.225   6.338  16.980  0.00  0.00    +0.000 A 
ATOM      3  C   UNL     1       3.622   5.313  17.698  0.00  0.00    +0.000 A 
ATOM      4  C   UNL     1       4.131   4.034  17.607  0.00  0.00    +0.000 A 
ATOM      5  N   UNL     1       5.183   3.799  16.804  0.00  0.00    +0.000 NA
ATOM      6  C   UNL     1       5.698   4.844  16.137  0.00  0.00    +0.000 A 
ATOM      7  N   UNL     1       5.278   6.115  16.184  0.00  0.00    +0.000 NA
ATOM      8  H   UNL     1       4.365   8.290  16.589  0.00  0.00    +0.000 HD
ENDROOT
BRANCH   4   9
ATOM      9  N   UNL     1       3.551   2.982  18.287  0.00  0.00    +0.000 N 
ATOM     10  C   UNL     1       2.322   2.309  17.843  0.00  0.00    +0.000 C 
ATOM     11  C   UNL     1       1.206   2.486  18.888  0.00  0.00    +0.000 C 
ATOM     12  O   UNL     1       1.629   2.073  20.196  0.00  0.00    +0.000 OA
ATOM     13  C   UNL     1       2.759   2.856  20.619  0.00  0.00    +0.000 C 
ATOM     14  C   UNL     1       3.950   2.682  19.666  0.00  0.00    +0.000 C 
ENDBRANCH   4   9
BRANCH   1  16
ATOM     15  C   UNL     1       1.948   8.551  18.144  0.00  0.00    +0.000 C 
ATOM     16  N   UNL     1       3.117   8.006  18.225  0.00  0.00    +0.000 NA
BRANCH  15  20
ATOM     17  C   UNL     1       0.314  10.096  21.785  0.00  0.00    +0.000 A 
ATOM     18  C   UNL     1       0.145  10.780  20.572  0.00  0.00    +0.000 A 
ATOM     19  C   UNL     1       0.633  10.254  19.371  0.00  0.00    +0.000 A 
ATOM     20  C   UNL     1       1.307   9.031  19.387  0.00  0.00    +0.000 A 
ATOM     21  C   UNL     1       1.427   8.330  20.595  0.00  0.00    +0.000 A 
ATOM     22  C   UNL     1       0.928   8.851  21.790  0.00  0.00    +0.000 A 
BRANCH  21  23
ATOM     23  O   UNL     1       2.053   7.112  20.684  0.00  0.00    +0.000 OA
ATOM     24  H   UNL     1       1.956   6.687  19.805  0.00  0.00    +0.000 HD
ENDBRANCH  21  23
BRANCH  17  25
ATOM     25  O   UNL     1      -0.149  10.770  22.881  0.00  0.00    +0.000 OA
BRANCH  25  27
ATOM     26  C   UNL     1      -2.316  11.874  23.184  0.00  0.00    +0.000 C 
ATOM     27  C   UNL     1      -0.879  11.984  22.694  0.00  0.00    +0.000 C 
ENDBRANCH  25  27
ENDBRANCH  17  25
ENDBRANCH  15  20
ENDBRANCH   1  16
TORSDOF 6
ENDMDL
MODEL 2
REMARK VINA RESULT:      -7.3      2.565      4.320
REMARK  Name = 
REMARK  7 active torsions:
REMARK  status: ('A' for Active; 'I' for Inactive)
REMARK    1  A    between atoms: C_1  and  C_2
REMARK    2  A    between atoms: C_2  and  O_3
REMARK    3  A    between atoms: O_3  and  C_4
REMARK    4  A    between atoms: C_7  and  C_8
REMARK    5  A    between atoms: N_9  and  N_10
REMARK    6  A    between atoms: C_13  and  N_14
REMARK    7  A    between atoms: C_23  and  O_24
REMARK                            x       y       z     vdW  Elec       q    Type
REMARK                         _______ _______ _______ _____ _____    ______ ____
ROOT
ATOM      1  N   UNL     1       2.137   5.278  21.130  0.00  0.00    +0.000 N 
ATOM      2  C   UNL     1       3.051   4.436  20.454  0.00  0.00    +0.000 A 
ATOM      3  C   UNL     1       3.847   4.943  19.435  0.00  0.00    +0.000 A 
ATOM      4  C   UNL     1       4.728   4.104  18.784  0.00  0.00    +0.000 A 
ATOM      5  N   UNL     1       4.819   2.819  19.168  0.00  0.00    +0.000 NA
ATOM      6  C   UNL     1       4.022   2.414  20.169  0.00  0.00    +0.000 A 
ATOM      7  N   UNL     1       3.129   3.156  20.837  0.00  0.00    +0.000 NA
ATOM      8  H   UNL     1       1.550   4.712  21.739  0.00  0.00    +0.000 HD
ENDROOT
BRANCH   4   9
ATOM      9  N   UNL     1       5.552   4.569  17.780  0.00  0.00    +0.000 N 
ATOM     10  C   UNL     1       6.987   4.830  17.964  0.00  0.00    +0.000 C 
ATOM     11  C   UNL     1       7.294   6.322  17.741  0.00  0.00    +0.000 C 
ATOM     12  O   UNL     1       6.800   6.786  16.476  0.00  0.00    +0.000 OA
ATOM     13  C   UNL     1       5.372   6.614  16.412  0.00  0.00    +0.000 C 
ATOM     14  C   UNL     1       4.979   5.137  16.555  0.00  0.00    +0.000 C 
ENDBRANCH   4   9
BRANCH   1  16
ATOM     15  C   UNL     1       1.740   7.497  20.937  0.00  0.00    +0.000 C 
ATOM     16  N   UNL     1       1.628   6.316  20.422  0.00  0.00    +0.000 NA
BRANCH  15  20
ATOM     17  C   UNL     1      -0.302  10.623  18.847  0.00  0.00    +0.000 A 
ATOM     18  C   UNL     1      -0.564  10.371  20.201  0.00  0.00    +0.000 A 
ATOM     19  C   UNL     1       0.137   9.383  20.903  0.00  0.00    +0.000 A 
ATOM     20  C   UNL     1       1.108   8.634  20.235  0.00  0.00    +0.000 A 
ATOM     21  C   UNL     1       1.399   8.925  18.896  0.00  0.00    +0.000 A 
ATOM     22  C   UNL     1       0.707   9.920  18.201  0.00  0.00    +0.000 A 
BRANCH  21  23
ATOM     23  O   UNL     1       2.356   8.249  18.182  0.00  0.00    +0.000 OA
ATOM     24  H   UNL     1       2.435   8.712  17.320  0.00  0.00    +0.000 HD
ENDBRANCH  21  23
BRANCH  17  25
ATOM     25  O   UNL     1      -1.117  11.563  18.280  0.00  0.00    +0.000 OA
BRANCH  25  27
ATOM     26  C   UNL     1      -3.009  10.140  17.646  0.00  0.00    +0.000 C 
ATOM     27  C   UNL     1      -1.985  11.177  17.211  0.00  0.00    +0.000 C 
ENDBRANCH  25  27
ENDBRANCH  17  25
ENDBRANCH  15  20
ENDBRANCH   1  16
TORSDOF 6
ENDMDL
MODEL 3
REMARK VINA RESULT:      -7.2      2.600      4.067
REMARK  Name = 
REMARK  7 active torsions:
REMARK  status: ('A' for Active; 'I' for Inactive)
REMARK    1  A    between atoms: C_1  and  C_2
REMARK    2  A    between atoms: C_2  and  O_3
REMARK    3  A    between atoms: O_3  and  C_4
REMARK    4  A    between atoms: C_7  and  C_8
REMARK    5  A    between atoms: N_9  and  N_10
REMARK    6  A    between atoms: C_13  and  N_14
REMARK    7  A    between atoms: C_23  and  O_24
REMARK                            x       y       z     vdW  Elec       q    Type
REMARK                         _______ _______ _______ _____ _____    ______ ____
ROOT
ATOM      1  N   UNL     1       2.152   5.882  20.965  0.00  0.00    +0.000 N 
ATOM      2  C   UNL     1       2.914   5.049  20.113  0.00  0.00    +0.000 A 
ATOM      3  C   UNL     1       3.589   5.591  19.027  0.00  0.00    +0.000 A 
ATOM      4  C   UNL     1       4.324   4.762  18.205  0.00  0.00    +0.000 A 
ATOM      5  N   UNL     1       4.395   3.450  18.487  0.00  0.00    +0.000 NA
ATOM      6  C   UNL     1       3.722   3.010  19.562  0.00  0.00    +0.000 A 
ATOM      7  N   UNL     1       2.973   3.743  20.398  0.00  0.00    +0.000 NA
ATOM      8  H   UNL     1       1.623   5.301  21.613  0.00  0.00    +0.000 HD
ENDROOT
BRANCH   4   9
ATOM      9  N   UNL     1       5.026   5.260  17.126  0.00  0.00    +0.000 N 
ATOM     10  C   UNL     1       5.549   4.419  16.040  0.00  0.00    +0.000 C 
ATOM     11  C   UNL     1       7.086   4.499  15.992  0.00  0.00    +0.000 C 
ATOM     12  O   UNL     1       7.547   5.856  15.919  0.00  0.00    +0.000 OA
ATOM     13  C   UNL     1       7.103   6.590  17.074  0.00  0.00    +0.000 C 
ATOM     14  C   UNL     1       5.570   6.622  17.162  0.00  0.00    +0.000 C 
ENDBRANCH   4   9
BRANCH   1  16
ATOM     15  C   UNL     1       1.480   8.033  21.159  0.00  0.00    +0.000 C 
ATOM     16  N   UNL     1       1.608   6.990  20.405  0.00  0.00    +0.000 NA
BRANCH  15  20
ATOM     17  C   UNL     1      -0.703  11.320  19.504  0.00  0.00    +0.000 A 
ATOM     18  C   UNL     1      -0.843  10.969  20.854  0.00  0.00    +0.000 A 
ATOM     19  C   UNL     1      -0.094   9.928  21.413  0.00  0.00    +0.000 A 
ATOM     20  C   UNL     1       0.801   9.224  20.605  0.00  0.00    +0.000 A 
ATOM     21  C   UNL     1       0.972   9.612  19.270  0.00  0.00    +0.000 A 
ATOM     22  C   UNL     1       0.232  10.660  18.717  0.00  0.00    +0.000 A 
BRANCH  21  23
ATOM     23  O   UNL     1       1.850   8.985  18.422  0.00  0.00    +0.000 OA
ATOM     24  H   UNL     1       2.616   9.590  18.322  0.00  0.00    +0.000 HD
ENDBRANCH  21  23
BRANCH  17  25
ATOM     25  O   UNL     1      -1.555  12.305  19.086  0.00  0.00    +0.000 OA
BRANCH  25  27
ATOM     26  C   UNL     1      -3.899  11.752  18.634  0.00  0.00    +0.000 C 
ATOM     27  C   UNL     1      -2.886  12.341  19.605  0.00  0.00    +0.000 C 
ENDBRANCH  25  27
ENDBRANCH  17  25
ENDBRANCH  15  20
ENDBRANCH   1  16
TORSDOF 6
ENDMDL
MODEL 4
REMARK VINA RESULT:      -7.2      2.644      4.239
REMARK  Name = 
REMARK  7 active torsions:
REMARK  status: ('A' for Active; 'I' for Inactive)
REMARK    1  A    between atoms: C_1  and  C_2
REMARK    2  A    between atoms: C_2  and  O_3
REMARK    3  A    between atoms: O_3  and  C_4
REMARK    4  A    between atoms: C_7  and  C_8
REMARK    5  A    between atoms: N_9  and  N_10
REMARK    6  A    between atoms: C_13  and  N_14
REMARK    7  A    between atoms: C_23  and  O_24
REMARK                            x       y       z     vdW  Elec       q    Type
REMARK                         _______ _______ _______ _____ _____    ______ ____
ROOT
ATOM      1  N   UNL     1       1.999   5.467  20.996  0.00  0.00    +0.000 N 
ATOM      2  C   UNL     1       3.019   4.750  20.329  0.00  0.00    +0.000 A 
ATOM      3  C   UNL     1       3.877   5.403  19.454  0.00  0.00    +0.000 A 
ATOM      4  C   UNL     1       4.863   4.685  18.809  0.00  0.00    +0.000 A 
ATOM      5  N   UNL     1       4.991   3.371  19.061  0.00  0.00    +0.000 NA
ATOM      6  C   UNL     1       4.127   2.819  19.929  0.00  0.00    +0.000 A 
ATOM      7  N   UNL     1       3.135   3.440  20.580  0.00  0.00    +0.000 NA
ATOM      8  H   UNL     1       1.390   4.809  21.479  0.00  0.00    +0.000 HD
ENDROOT
BRANCH   4   9
ATOM      9  N   UNL     1       5.749   5.297  17.948  0.00  0.00    +0.000 N 
ATOM     10  C   UNL     1       5.454   6.548  17.234  0.00  0.00    +0.000 C 
ATOM     11  C   UNL     1       5.459   6.312  15.713  0.00  0.00    +0.000 C 
ATOM     12  O   UNL     1       6.676   5.692  15.273  0.00  0.00    +0.000 OA
ATOM     13  C   UNL     1       6.841   4.417  15.919  0.00  0.00    +0.000 C 
ATOM     14  C   UNL     1       6.918   4.567  17.444  0.00  0.00    +0.000 C 
ENDBRANCH   4   9
BRANCH   1  16
ATOM     15  C   UNL     1       1.631   7.699  20.939  0.00  0.00    +0.000 C 
ATOM     16  N   UNL     1       1.500   6.552  20.355  0.00  0.00    +0.000 NA
BRANCH  15  20
ATOM     17  C   UNL     1      -0.376  10.969  19.044  0.00  0.00    +0.000 A 
ATOM     18  C   UNL     1      -0.672  10.610  20.367  0.00  0.00    +0.000 A 
ATOM     19  C   UNL     1       0.017   9.575  21.009  0.00  0.00    +0.000 A 
ATOM     20  C   UNL     1       1.010   8.884  20.311  0.00  0.00    +0.000 A 
ATOM     21  C   UNL     1       1.334   9.280  19.007  0.00  0.00    +0.000 A 
ATOM     22  C   UNL     1       0.654  10.323  18.373  0.00  0.00    +0.000 A 
BRANCH  21  23
ATOM     23  O   UNL     1       2.315   8.666  18.269  0.00  0.00    +0.000 OA
ATOM     24  H   UNL     1       2.734   8.006  18.862  0.00  0.00    +0.000 HD
ENDBRANCH  21  23
BRANCH  17  25
ATOM     25  O   UNL     1      -1.182  11.946  18.530  0.00  0.00    +0.000 OA
BRANCH  25  27
ATOM     26  C   UNL     1      -2.577  11.128  16.689  0.00  0.00    +0.000 C 
ATOM     27  C   UNL     1      -2.513  11.611  18.130  0.00  0.00    +0.000 C 
ENDBRANCH  25  27
ENDBRANCH  17  25
ENDBRANCH  15  20
ENDBRANCH   1  16
TORSDOF 6
ENDMDL
MODEL 5
REMARK VINA RESULT:      -7.2      0.931      1.056
REMARK  Name = 
REMARK  7 active torsions:
REMARK  status: ('A' for Active; 'I' for Inactive)
REMARK    1  A    between atoms: C_1  and  C_2
REMARK    2  A    between atoms: C_2  and  O_3
REMARK    3  A    between atoms: O_3  and  C_4
REMARK    4  A    between atoms: C_7  and  C_8
REMARK    5  A    between atoms: N_9  and  N_10
REMARK    6  A    between atoms: C_13  and  N_14
REMARK    7  A    between atoms: C_23  and  O_24
REMARK                            x       y       z     vdW  Elec       q    Type
REMARK                         _______ _______ _______ _____ _____    ______ ____
ROOT
ATOM      1  N   UNL     1       3.162   8.115  17.648  0.00  0.00    +0.000 N 
ATOM      2  C   UNL     1       3.637   6.785  17.568  0.00  0.00    +0.000 A 
ATOM      3  C   UNL     1       2.969   5.763  18.229  0.00  0.00    +0.000 A 
ATOM      4  C   UNL     1       3.451   4.473  18.143  0.00  0.00    +0.000 A 
ATOM      5  N   UNL     1       4.541   4.226  17.398  0.00  0.00    +0.000 NA
ATOM      6  C   UNL     1       5.120   5.270  16.783  0.00  0.00    +0.000 A 
ATOM      7  N   UNL     1       4.729   6.550  16.830  0.00  0.00    +0.000 NA
ATOM      8  H   UNL     1       3.846   8.739  17.225  0.00  0.00    +0.000 HD
ENDROOT
BRANCH   4   9
ATOM      9  N   UNL     1       2.807   3.424  18.767  0.00  0.00    +0.000 N 
ATOM     10  C   UNL     1       1.348   3.250  18.762  0.00  0.00    +0.000 C 
ATOM     11  C   UNL     1       0.793   3.327  20.197  0.00  0.00    +0.000 C 
ATOM     12  O   UNL     1       1.463   2.412  21.077  0.00  0.00    +0.000 OA
ATOM     13  C   UNL     1       2.868   2.716  21.129  0.00  0.00    +0.000 C 
ATOM     14  C   UNL     1       3.519   2.594  19.744  0.00  0.00    +0.000 C 
ENDBRANCH   4   9
BRANCH   1  16
ATOM     15  C   UNL     1       1.383   9.097  18.642  0.00  0.00    +0.000 C 
ATOM     16  N   UNL     1       2.498   8.457  18.779  0.00  0.00    +0.000 NA
BRANCH  15  20
ATOM     17  C   UNL     1      -0.417  10.630  22.208  0.00  0.00    +0.000 A 
ATOM     18  C   UNL     1      -0.581  11.285  20.979  0.00  0.00    +0.000 A 
ATOM     19  C   UNL     1      -0.037  10.761  19.801  0.00  0.00    +0.000 A 
ATOM     20  C   UNL     1       0.687   9.569  19.858  0.00  0.00    +0.000 A 
ATOM     21  C   UNL     1       0.804   8.894  21.081  0.00  0.00    +0.000 A 
ATOM     22  C   UNL     1       0.249   9.412  22.253  0.00  0.00    +0.000 A 
BRANCH  21  23
ATOM     23  O   UNL     1       1.478   7.706  21.209  0.00  0.00    +0.000 OA
ATOM     24  H   UNL     1       1.735   7.435  20.301  0.00  0.00    +0.000 HD
ENDBRANCH  21  23
BRANCH  17  25
ATOM     25  O   UNL     1      -0.939  11.301  23.279  0.00  0.00    +0.000 OA
BRANCH  25  27
ATOM     26  C   UNL     1      -2.301  13.329  23.468  0.00  0.00    +0.000 C 
ATOM     27  C   UNL     1      -2.262  11.834  23.189  0.00  0.00    +0.000 C 
ENDBRANCH  25  27
ENDBRANCH  17  25
ENDBRANCH  15  20
ENDBRANCH   1  16
TORSDOF 6
ENDMDL
MODEL 6
REMARK VINA RESULT:      -7.1      2.487      4.194
REMARK  Name = 
REMARK  7 active torsions:
REMARK  status: ('A' for Active; 'I' for Inactive)
REMARK    1  A    between atoms: C_1  and  C_2
REMARK    2  A    between atoms: C_2  and  O_3
REMARK    3  A    between atoms: O_3  and  C_4
REMARK    4  A    between atoms: C_7  and  C_8
REMARK    5  A    between atoms: N_9  and  N_10
REMARK    6  A    between atoms: C_13  and  N_14
REMARK    7  A    between atoms: C_23  and  O_24
REMARK                            x       y       z     vdW  Elec       q    Type
REMARK                         _______ _______ _______ _____ _____    ______ ____
ROOT
ATOM      1  N   UNL     1       2.091   5.992  20.825  0.00  0.00    +0.000 N 
ATOM      2  C   UNL     1       2.657   5.128  19.859  0.00  0.00    +0.000 A 
ATOM      3  C   UNL     1       3.461   5.640  18.849  0.00  0.00    +0.000 A 
ATOM      4  C   UNL     1       4.000   4.781  17.913  0.00  0.00    +0.000 A 
ATOM      5  N   UNL     1       3.759   3.463  18.013  0.00  0.00    +0.000 NA
ATOM      6  C   UNL     1       2.980   3.051  19.026  0.00  0.00    +0.000 A 
ATOM      7  N   UNL     1       2.405   3.818  19.962  0.00  0.00    +0.000 NA
ATOM      8  H   UNL     1       1.428   5.467  21.394  0.00  0.00    +0.000 HD
ENDROOT
BRANCH   4   9
ATOM      9  N   UNL     1       4.821   5.244  16.905  0.00  0.00    +0.000 N 
ATOM     10  C   UNL     1       5.509   4.363  15.951  0.00  0.00    +0.000 C 
ATOM     11  C   UNL     1       7.035   4.502  16.095  0.00  0.00    +0.000 C 
ATOM     12  O   UNL     1       7.458   5.870  15.997  0.00  0.00    +0.000 OA
ATOM     13  C   UNL     1       6.842   6.652  17.037  0.00  0.00    +0.000 C 
ATOM     14  C   UNL     1       5.311   6.627  16.924  0.00  0.00    +0.000 C 
ENDBRANCH   4   9
BRANCH   1  16
ATOM     15  C   UNL     1       1.083   7.983  21.199  0.00  0.00    +0.000 C 
ATOM     16  N   UNL     1       1.831   7.262  20.429  0.00  0.00    +0.000 NA
BRANCH  15  20
ATOM     17  C   UNL     1       0.250  11.964  19.871  0.00  0.00    +0.000 A 
ATOM     18  C   UNL     1       0.502  10.936  18.952  0.00  0.00    +0.000 A 
ATOM     19  C   UNL     1       0.725   9.622  19.378  0.00  0.00    +0.000 A 
ATOM     20  C   UNL     1       0.703   9.337  20.745  0.00  0.00    +0.000 A 
ATOM     21  C   UNL     1       0.401  10.360  21.654  0.00  0.00    +0.000 A 
ATOM     22  C   UNL     1       0.167  11.668  21.225  0.00  0.00    +0.000 A 
BRANCH  21  23
ATOM     23  O   UNL     1       0.336  10.151  23.009  0.00  0.00    +0.000 OA
ATOM     24  H   UNL     1       1.253  10.249  23.347  0.00  0.00    +0.000 HD
ENDBRANCH  21  23
BRANCH  17  25
ATOM     25  O   UNL     1       0.128  13.205  19.310  0.00  0.00    +0.000 OA
BRANCH  25  27
ATOM     26  C   UNL     1       2.186  14.257  18.497  0.00  0.00    +0.000 C 
ATOM     27  C   UNL     1       1.123  14.194  19.583  0.00  0.00    +0.000 C 
ENDBRANCH  25  27
ENDBRANCH  17  25
ENDBRANCH  15  20
ENDBRANCH   1  16
TORSDOF 6
ENDMDL
MODEL 7
REMARK VINA RESULT:      -7.1      3.245      8.599
REMARK  Name = 
REMARK  7 active torsions:
REMARK  status: ('A' for Active; 'I' for Inactive)
REMARK    1  A    between atoms: C_1  and  C_2
REMARK    2  A    between atoms: C_2  and  O_3
REMARK    3  A    between atoms: O_3  and  C_4
REMARK    4  A    between atoms: C_7  and  C_8
REMARK    5  A    between atoms: N_9  and  N_10
REMARK    6  A    between atoms: C_13  and  N_14
REMARK    7  A    between atoms: C_23  and  O_24
REMARK                            x       y       z     vdW  Elec       q    Type
REMARK                         _______ _______ _______ _____ _____    ______ ____
ROOT
ATOM      1  N   UNL     1       1.924   7.212  20.922  0.00  0.00    +0.000 N 
ATOM      2  C   UNL     1       1.141   8.383  21.044  0.00  0.00    +0.000 A 
ATOM      3  C   UNL     1       0.623   9.000  19.912  0.00  0.00    +0.000 A 
ATOM      4  C   UNL     1      -0.134  10.144  20.052  0.00  0.00    +0.000 A 
ATOM      5  N   UNL     1      -0.379  10.626  21.282  0.00  0.00    +0.000 NA
ATOM      6  C   UNL     1       0.150   9.962  22.323  0.00  0.00    +0.000 A 
ATOM      7  N   UNL     1       0.909   8.859  22.273  0.00  0.00    +0.000 NA
ATOM      8  H   UNL     1       2.328   6.984  21.828  0.00  0.00    +0.000 HD
ENDROOT
BRANCH   4   9
ATOM      9  N   UNL     1      -0.684  10.778  18.957  0.00  0.00    +0.000 N 
ATOM     10  C   UNL     1      -1.465  12.020  19.046  0.00  0.00    +0.000 C 
ATOM     11  C   UNL     1      -2.908  11.783  18.565  0.00  0.00    +0.000 C 
ATOM     12  O   UNL     1      -2.944  11.193  17.257  0.00  0.00    +0.000 OA
ATOM     13  C   UNL     1      -2.268   9.923  17.270  0.00  0.00    +0.000 C 
ATOM     14  C   UNL     1      -0.795  10.077  17.673  0.00  0.00    +0.000 C 
ENDBRANCH   4   9
BRANCH   1  16
ATOM     15  C   UNL     1       3.327   5.988  19.636  0.00  0.00    +0.000 C 
ATOM     16  N   UNL     1       2.635   7.071  19.776  0.00  0.00    +0.000 NA
BRANCH  15  20
ATOM     17  C   UNL     1       5.609   5.477  16.053  0.00  0.00    +0.000 A 
ATOM     18  C   UNL     1       4.800   6.608  16.237  0.00  0.00    +0.000 A 
ATOM     19  C   UNL     1       4.091   6.805  17.427  0.00  0.00    +0.000 A 
ATOM     20  C   UNL     1       4.189   5.852  18.443  0.00  0.00    +0.000 A 
ATOM     21  C   UNL     1       5.038   4.750  18.271  0.00  0.00    +0.000 A 
ATOM     22  C   UNL     1       5.754   4.562  17.087  0.00  0.00    +0.000 A 
BRANCH  21  23
ATOM     23  O   UNL     1       5.205   3.787  19.234  0.00  0.00    +0.000 OA
ATOM     24  H   UNL     1       6.024   3.300  18.997  0.00  0.00    +0.000 HD
ENDBRANCH  21  23
BRANCH  17  25
ATOM     25  O   UNL     1       6.177   5.386  14.812  0.00  0.00    +0.000 OA
BRANCH  25  27
ATOM     26  C   UNL     1       6.047   3.740  13.002  0.00  0.00    +0.000 C 
ATOM     27  C   UNL     1       6.641   4.115  14.351  0.00  0.00    +0.000 C 
ENDBRANCH  25  27
ENDBRANCH  17  25
ENDBRANCH  15  20
ENDBRANCH   1  16
TORSDOF 6
ENDMDL
MODEL 8
REMARK VINA RESULT:      -7.1      1.113      1.513
REMARK  Name = 
REMARK  7 active torsions:
REMARK  status: ('A' for Active; 'I' for Inactive)
REMARK    1  A    between atoms: C_1  and  C_2
REMARK    2  A    between atoms: C_2  and  O_3
REMARK    3  A    between atoms: O_3  and  C_4
REMARK    4  A    between atoms: C_7  and  C_8
REMARK    5  A    between atoms: N_9  and  N_10
REMARK    6  A    between atoms: C_13  and  N_14
REMARK    7  A    between atoms: C_23  and  O_24
REMARK                            x       y       z     vdW  Elec       q    Type
REMARK                         _______ _______ _______ _____ _____    ______ ____
ROOT
ATOM      1  N   UNL     1       3.599   7.516  17.241  0.00  0.00    +0.000 N 
ATOM      2  C   UNL     1       3.987   6.157  17.277  0.00  0.00    +0.000 A 
ATOM      3  C   UNL     1       3.290   5.251  18.066  0.00  0.00    +0.000 A 
ATOM      4  C   UNL     1       3.688   3.930  18.092  0.00  0.00    +0.000 A 
ATOM      5  N   UNL     1       4.724   3.539  17.331  0.00  0.00    +0.000 NA
ATOM      6  C   UNL     1       5.336   4.477  16.589  0.00  0.00    +0.000 A 
ATOM      7  N   UNL     1       5.026   5.779  16.522  0.00  0.00    +0.000 NA
ATOM      8  H   UNL     1       4.299   8.049  16.728  0.00  0.00    +0.000 HD
ENDROOT
BRANCH   4   9
ATOM      9  N   UNL     1       3.012   2.992  18.845  0.00  0.00    +0.000 N 
ATOM     10  C   UNL     1       1.606   2.629  18.618  0.00  0.00    +0.000 C 
ATOM     11  C   UNL     1       0.754   2.985  19.850  0.00  0.00    +0.000 C 
ATOM     12  O   UNL     1       1.291   2.415  21.053  0.00  0.00    +0.000 OA
ATOM     13  C   UNL     1       2.624   2.907  21.280  0.00  0.00    +0.000 C 
ATOM     14  C   UNL     1       3.563   2.534  20.125  0.00  0.00    +0.000 C 
ENDBRANCH   4   9
BRANCH   1  16
ATOM     15  C   UNL     1       1.833   8.527  18.231  0.00  0.00    +0.000 C 
ATOM     16  N   UNL     1       3.013   8.011  18.358  0.00  0.00    +0.000 NA
BRANCH  15  20
ATOM     17  C   UNL     1      -0.189  10.208  21.605  0.00  0.00    +0.000 A 
ATOM     18  C   UNL     1       0.559   9.029  21.728  0.00  0.00    +0.000 A 
ATOM     19  C   UNL     1       1.263   8.502  20.640  0.00  0.00    +0.000 A 
ATOM     20  C   UNL     1       1.211   9.162  19.411  0.00  0.00    +0.000 A 
ATOM     21  C   UNL     1       0.502  10.367  19.309  0.00  0.00    +0.000 A 
ATOM     22  C   UNL     1      -0.190  10.898  20.400  0.00  0.00    +0.000 A 
BRANCH  21  23
ATOM     23  O   UNL     1       0.426  11.085  18.142  0.00  0.00    +0.000 OA
ATOM     24  H   UNL     1       1.143  10.746  17.563  0.00  0.00    +0.000 HD
ENDBRANCH  21  23
BRANCH  17  25
ATOM     25  O   UNL     1      -0.882  10.556  22.732  0.00  0.00    +0.000 OA
BRANCH  25  27
ATOM     26  C   UNL     1      -2.720  12.100  23.228  0.00  0.00    +0.000 C 
ATOM     27  C   UNL     1      -1.237  11.926  22.935  0.00  0.00    +0.000 C 
ENDBRANCH  25  27
ENDBRANCH  17  25
ENDBRANCH  15  20
ENDBRANCH   1  16
TORSDOF 6
ENDMDL
MODEL 9
REMARK VINA RESULT:      -7.1      3.115      8.833
REMARK  Name = 
REMARK  7 active torsions:
REMARK  status: ('A' for Active; 'I' for Inactive)
REMARK    1  A    between atoms: C_1  and  C_2
REMARK    2  A    between atoms: C_2  and  O_3
REMARK    3  A    between atoms: O_3  and  C_4
REMARK    4  A    between atoms: C_7  and  C_8
REMARK    5  A    between atoms: N_9  and  N_10
REMARK    6  A    between atoms: C_13  and  N_14
REMARK    7  A    between atoms: C_23  and  O_24
REMARK                            x       y       z     vdW  Elec       q    Type
REMARK                         _______ _______ _______ _____ _____    ______ ____
ROOT
ATOM      1  N   UNL     1       2.007   6.851  20.426  0.00  0.00    +0.000 N 
ATOM      2  C   UNL     1       1.439   8.116  20.701  0.00  0.00    +0.000 A 
ATOM      3  C   UNL     1       1.368   9.082  19.706  0.00  0.00    +0.000 A 
ATOM      4  C   UNL     1       0.814  10.313  19.996  0.00  0.00    +0.000 A 
ATOM      5  N   UNL     1       0.330  10.543  21.227  0.00  0.00    +0.000 NA
ATOM      6  C   UNL     1       0.429   9.551  22.127  0.00  0.00    +0.000 A 
ATOM      7  N   UNL     1       0.966   8.339  21.933  0.00  0.00    +0.000 NA
ATOM      8  H   UNL     1       2.100   6.331  21.297  0.00  0.00    +0.000 HD
ENDROOT
BRANCH   4   9
ATOM      9  N   UNL     1       0.705  11.294  19.032  0.00  0.00    +0.000 N 
ATOM     10  C   UNL     1       1.833  12.129  18.594  0.00  0.00    +0.000 C 
ATOM     11  C   UNL     1       1.562  13.610  18.917  0.00  0.00    +0.000 C 
ATOM     12  O   UNL     1       0.302  14.050  18.389  0.00  0.00    +0.000 OA
ATOM     13  C   UNL     1      -0.768  13.271  18.953  0.00  0.00    +0.000 C 
ATOM     14  C   UNL     1      -0.615  11.781  18.617  0.00  0.00    +0.000 C 
ENDBRANCH   4   9
BRANCH   1  16
ATOM     15  C   UNL     1       3.548   5.673  19.262  0.00  0.00    +0.000 C 
ATOM     16  N   UNL     1       2.968   6.809  19.472  0.00  0.00    +0.000 NA
BRANCH  15  20
ATOM     17  C   UNL     1       6.624   5.374  16.303  0.00  0.00    +0.000 A 
ATOM     18  C   UNL     1       5.669   6.399  16.249  0.00  0.00    +0.000 A 
ATOM     19  C   UNL     1       4.692   6.532  17.241  0.00  0.00    +0.000 A 
ATOM     20  C   UNL     1       4.667   5.620  18.298  0.00  0.00    +0.000 A 
ATOM     21  C   UNL     1       5.656   4.629  18.372  0.00  0.00    +0.000 A 
ATOM     22  C   UNL     1       6.638   4.506  17.387  0.00  0.00    +0.000 A 
BRANCH  21  23
ATOM     23  O   UNL     1       5.711   3.714  19.393  0.00  0.00    +0.000 OA
ATOM     24  H   UNL     1       6.318   4.089  20.067  0.00  0.00    +0.000 HD
ENDBRANCH  21  23
BRANCH  17  25
ATOM     25  O   UNL     1       7.465   5.329  15.226  0.00  0.00    +0.000 OA
BRANCH  25  27
ATOM     26  C   UNL     1       6.154   3.757  13.879  0.00  0.00    +0.000 C 
ATOM     27  C   UNL     1       6.921   5.070  13.929  0.00  0.00    +0.000 C 
ENDBRANCH  25  27
ENDBRANCH  17  25
ENDBRANCH  15  20
ENDBRANCH   1  16
TORSDOF 6
ENDMDL
