MODEL 1
REMARK VINA RESULT:      -8.7      0.000      0.000
REMARK  Name = 
REMARK  6 active torsions:
REMARK  status: ('A' for Active; 'I' for Inactive)
REMARK    1  A    between atoms: C_2  and  C_3
REMARK    2  A    between atoms: C_3  and  C_4
REMARK    3  A    between atoms: N_10  and  C_11
REMARK    4  A    between atoms: C_11  and  C_12
REMARK    5  A    between atoms: C_12  and  C_13
REMARK    6  A    between atoms: C_13  and  N_14
REMARK                            x       y       z     vdW  Elec       q    Type
REMARK                         _______ _______ _______ _____ _____    ______ ____
ROOT
ATOM      1  N   UNL     1       4.200   5.921  16.803  0.00  0.00    +0.000 N 
ATOM      2  C   UNL     1       3.796   6.921  17.691  0.00  0.00    +0.000 A 
ATOM      3  O   UNL     1       4.146   8.098  17.604  0.00  0.00    +0.000 OA
ATOM      4  C   UNL     1       2.949   6.517  18.830  0.00  0.00    +0.000 A 
ATOM      5  C   UNL     1       2.332   7.480  19.625  0.00  0.00    +0.000 A 
ATOM      6  C   UNL     1       1.509   7.066  20.659  0.00  0.00    +0.000 A 
ATOM      7  F   UNL     1       0.890   7.990  21.410  0.00  0.00    +0.000 F 
ATOM      8  C   UNL     1       1.298   5.719  20.920  0.00  0.00    +0.000 A 
ATOM      9  C   UNL     1       1.965   4.753  20.154  0.00  0.00    +0.000 A 
ATOM     10  C   UNL     1       2.826   5.155  19.131  0.00  0.00    +0.000 A 
ATOM     11  N   UNL     1       3.540   4.261  18.329  0.00  0.00    +0.000 N 
ATOM     12  C   UNL     1       4.049   3.014  18.579  0.00  0.00    +0.000 A 
ATOM     13  S   UNL     1       4.354   2.232  20.020  0.00  0.00    +0.000 S 
ATOM     14  N   UNL     1       4.539   2.560  17.355  0.00  0.00    +0.000 N 
ATOM     15  N   UNL     1       4.655   3.622  16.503  0.00  0.00    +0.000 NA
ATOM     16  C   UNL     1       4.112   4.606  17.165  0.00  0.00    +0.000 A 
ATOM     17  H   UNL     1       5.165   1.764  17.253  0.00  0.00    +0.000 HD
ENDROOT
BRANCH   1  18
ATOM     18  C   UNL     1       5.187   6.279  15.789  0.00  0.00    +0.000 C 
BRANCH  18  19
ATOM     19  C   UNL     1       6.548   5.662  16.137  0.00  0.00    +0.000 C 
BRANCH  19  20
ATOM     20  C   UNL     1       7.142   6.283  17.398  0.00  0.00    +0.000 C 
BRANCH  20  23
ATOM     21  O   UNL     1       8.781   7.947  19.018  0.00  0.00    +0.000 OA
ATOM     22  C   UNL     1       8.180   8.435  18.069  0.00  0.00    +0.000 C 
ATOM     23  N   UNL     1       7.351   7.708  17.232  0.00  0.00    +0.000 N 
ATOM     24  H   UNL     1       6.819   8.195  16.516  0.00  0.00    +0.000 HD
BRANCH  22  25
ATOM     25  C   UNL     1       8.275   9.910  17.699  0.00  0.00    +0.000 C 
BRANCH  25  26
ATOM     26  C   UNL     1       9.357  10.651  18.451  0.00  0.00    +0.000 A 
ATOM     27  C   UNL     1       9.259  10.821  19.839  0.00  0.00    +0.000 A 
ATOM     28  C   UNL     1      10.234  11.535  20.539  0.00  0.00    +0.000 A 
ATOM     29  C   UNL     1      11.324  12.074  19.861  0.00  0.00    +0.000 A 
ATOM     30  C   UNL     1      11.451  11.883  18.487  0.00  0.00    +0.000 A 
ATOM     31  C   UNL     1      10.475  11.170  17.784  0.00  0.00    +0.000 A 
ENDBRANCH  25  26
ENDBRANCH  22  25
ENDBRANCH  20  23
ENDBRANCH  19  20
ENDBRANCH  18  19
ENDBRANCH   1  18
TORSDOF 6
ENDMDL
MODEL 2
REMARK VINA RESULT:      -8.5      5.272      9.064
REMARK  Name = 
REMARK  6 active torsions:
REMARK  status: ('A' for Active; 'I' for Inactive)
REMARK    1  A    between atoms: C_2  and  C_3
REMARK    2  A    between atoms: C_3  and  C_4
REMARK    3  A    between atoms: N_10  and  C_11
REMARK    4  A    between atoms: C_11  and  C_12
REMARK    5  A    between atoms: C_12  and  C_13
REMARK    6  A    between atoms: C_13  and  N_14
REMARK                            x       y       z     vdW  Elec       q    Type
REMARK                         _______ _______ _______ _____ _____    ______ ____
ROOT
ATOM      1  N   UNL     1       2.364   7.317  18.910  0.00  0.00    +0.000 N 
ATOM      2  C   UNL     1       1.972   6.602  20.045  0.00  0.00    +0.000 A 
ATOM      3  O   UNL     1       1.369   7.101  20.995  0.00  0.00    +0.000 OA
ATOM      4  C   UNL     1       2.362   5.182  20.121  0.00  0.00    +0.000 A 
ATOM      5  C   UNL     1       1.825   4.356  21.106  0.00  0.00    +0.000 A 
ATOM      6  C   UNL     1       2.180   3.017  21.123  0.00  0.00    +0.000 A 
ATOM      7  F   UNL     1       1.643   2.212  22.054  0.00  0.00    +0.000 F 
ATOM      8  C   UNL     1       3.061   2.490  20.189  0.00  0.00    +0.000 A 
ATOM      9  C   UNL     1       3.643   3.336  19.234  0.00  0.00    +0.000 A 
ATOM     10  C   UNL     1       3.323   4.695  19.227  0.00  0.00    +0.000 A 
ATOM     11  N   UNL     1       3.866   5.610  18.320  0.00  0.00    +0.000 N 
ATOM     12  C   UNL     1       5.078   5.657  17.684  0.00  0.00    +0.000 A 
ATOM     13  S   UNL     1       6.513   4.873  18.016  0.00  0.00    +0.000 S 
ATOM     14  N   UNL     1       4.992   6.729  16.797  0.00  0.00    +0.000 N 
ATOM     15  N   UNL     1       3.926   7.509  17.148  0.00  0.00    +0.000 NA
ATOM     16  C   UNL     1       3.346   6.827  18.096  0.00  0.00    +0.000 A 
ATOM     17  H   UNL     1       5.795   7.153  16.338  0.00  0.00    +0.000 HD
ENDROOT
BRANCH   1  18
ATOM     18  C   UNL     1       2.147   8.760  18.915  0.00  0.00    +0.000 C 
BRANCH  18  19
ATOM     19  C   UNL     1       1.155   9.147  17.809  0.00  0.00    +0.000 C 
BRANCH  19  20
ATOM     20  C   UNL     1       0.105  10.134  18.314  0.00  0.00    +0.000 C 
BRANCH  20  23
ATOM     21  O   UNL     1      -1.927  12.115  18.161  0.00  0.00    +0.000 OA
ATOM     22  C   UNL     1      -2.036  11.088  17.502  0.00  0.00    +0.000 C 
ATOM     23  N   UNL     1      -1.105  10.064  17.520  0.00  0.00    +0.000 N 
ATOM     24  H   UNL     1      -1.301   9.206  17.012  0.00  0.00    +0.000 HD
BRANCH  22  25
ATOM     25  C   UNL     1      -3.218  10.819  16.579  0.00  0.00    +0.000 C 
BRANCH  25  26
ATOM     26  C   UNL     1      -4.557  11.133  17.207  0.00  0.00    +0.000 A 
ATOM     27  C   UNL     1      -5.091  10.285  18.186  0.00  0.00    +0.000 A 
ATOM     28  C   UNL     1      -6.342  10.546  18.748  0.00  0.00    +0.000 A 
ATOM     29  C   UNL     1      -7.067  11.665  18.346  0.00  0.00    +0.000 A 
ATOM     30  C   UNL     1      -6.533  12.535  17.399  0.00  0.00    +0.000 A 
ATOM     31  C   UNL     1      -5.279  12.274  16.834  0.00  0.00    +0.000 A 
ENDBRANCH  25  26
ENDBRANCH  22  25
ENDBRANCH  20  23
ENDBRANCH  19  20
ENDBRANCH  18  19
ENDBRANCH   1  18
TORSDOF 6
ENDMDL
MODEL 3
REMARK VINA RESULT:      -8.3      4.815      8.557
REMARK  Name = 
REMARK  6 active torsions:
REMARK  status: ('A' for Active; 'I' for Inactive)
REMARK    1  A    between atoms: C_2  and  C_3
REMARK    2  A    between atoms: C_3  and  C_4
REMARK    3  A    between atoms: N_10  and  C_11
REMARK    4  A    between atoms: C_11  and  C_12
REMARK    5  A    between atoms: C_12  and  C_13
REMARK    6  A    between atoms: C_13  and  N_14
REMARK                            x       y       z     vdW  Elec       q    Type
REMARK                         _______ _______ _______ _____ _____    ______ ____
ROOT
ATOM      1  N   UNL     1       3.119   7.180  18.030  0.00  0.00    +0.000 N 
ATOM      2  C   UNL     1       2.691   6.634  19.242  0.00  0.00    +0.000 A 
ATOM      3  O   UNL     1       2.065   7.264  20.095  0.00  0.00    +0.000 OA
ATOM      4  C   UNL     1       3.069   5.238  19.529  0.00  0.00    +0.000 A 
ATOM      5  C   UNL     1       2.499   4.561  20.606  0.00  0.00    +0.000 A 
ATOM      6  C   UNL     1       2.844   3.237  20.821  0.00  0.00    +0.000 A 
ATOM      7  F   UNL     1       2.277   2.573  21.840  0.00  0.00    +0.000 F 
ATOM      8  C   UNL     1       3.747   2.581  19.996  0.00  0.00    +0.000 A 
ATOM      9  C   UNL     1       4.361   3.282  18.948  0.00  0.00    +0.000 A 
ATOM     10  C   UNL     1       4.050   4.627  18.740  0.00  0.00    +0.000 A 
ATOM     11  N   UNL     1       4.624   5.403  17.729  0.00  0.00    +0.000 N 
ATOM     12  C   UNL     1       5.854   5.356  17.127  0.00  0.00    +0.000 A 
ATOM     13  S   UNL     1       7.274   4.623  17.607  0.00  0.00    +0.000 S 
ATOM     14  N   UNL     1       5.800   6.293  16.096  0.00  0.00    +0.000 N 
ATOM     15  N   UNL     1       4.730   7.118  16.303  0.00  0.00    +0.000 NA
ATOM     16  C   UNL     1       4.120   6.578  17.321  0.00  0.00    +0.000 A 
ATOM     17  H   UNL     1       6.618   6.645  15.604  0.00  0.00    +0.000 HD
ENDROOT
BRANCH   1  18
ATOM     18  C   UNL     1       2.912   8.611  17.824  0.00  0.00    +0.000 C 
BRANCH  18  19
ATOM     19  C   UNL     1       1.413   8.911  17.685  0.00  0.00    +0.000 C 
BRANCH  19  20
ATOM     20  C   UNL     1       1.000  10.117  18.524  0.00  0.00    +0.000 C 
BRANCH  20  23
ATOM     21  O   UNL     1      -1.776   9.641  18.905  0.00  0.00    +0.000 OA
ATOM     22  C   UNL     1      -1.418  10.542  18.157  0.00  0.00    +0.000 C 
ATOM     23  N   UNL     1      -0.091  10.841  17.900  0.00  0.00    +0.000 N 
ATOM     24  H   UNL     1       0.133  11.547  17.204  0.00  0.00    +0.000 HD
BRANCH  22  25
ATOM     25  C   UNL     1      -2.398  11.443  17.417  0.00  0.00    +0.000 C 
BRANCH  25  26
ATOM     26  C   UNL     1      -3.745  11.553  18.094  0.00  0.00    +0.000 A 
ATOM     27  C   UNL     1      -4.869  10.935  17.529  0.00  0.00    +0.000 A 
ATOM     28  C   UNL     1      -6.124  11.059  18.127  0.00  0.00    +0.000 A 
ATOM     29  C   UNL     1      -6.267  11.791  19.303  0.00  0.00    +0.000 A 
ATOM     30  C   UNL     1      -5.153  12.382  19.893  0.00  0.00    +0.000 A 
ATOM     31  C   UNL     1      -3.894  12.259  19.295  0.00  0.00    +0.000 A 
ENDBRANCH  25  26
ENDBRANCH  22  25
ENDBRANCH  20  23
ENDBRANCH  19  20
ENDBRANCH  18  19
ENDBRANCH   1  18
TORSDOF 6
ENDMDL
MODEL 4
REMARK VINA RESULT:      -8.3      4.377      7.888
REMARK  Name = 
REMARK  6 active torsions:
REMARK  status: ('A' for Active; 'I' for Inactive)
REMARK    1  A    between atoms: C_2  and  C_3
REMARK    2  A    between atoms: C_3  and  C_4
REMARK    3  A    between atoms: N_10  and  C_11
REMARK    4  A    between atoms: C_11  and  C_12
REMARK    5  A    between atoms: C_12  and  C_13
REMARK    6  A    between atoms: C_13  and  N_14
REMARK                            x       y       z     vdW  Elec       q    Type
REMARK                         _______ _______ _______ _____ _____    ______ ____
ROOT
ATOM      1  N   UNL     1       3.325   7.183  17.826  0.00  0.00    +0.000 N 
ATOM      2  C   UNL     1       2.847   6.706  19.049  0.00  0.00    +0.000 A 
ATOM      3  O   UNL     1       2.207   7.390  19.849  0.00  0.00    +0.000 OA
ATOM      4  C   UNL     1       3.188   5.320  19.418  0.00  0.00    +0.000 A 
ATOM      5  C   UNL     1       2.571   4.709  20.508  0.00  0.00    +0.000 A 
ATOM      6  C   UNL     1       2.883   3.391  20.800  0.00  0.00    +0.000 A 
ATOM      7  F   UNL     1       2.270   2.790  21.832  0.00  0.00    +0.000 F 
ATOM      8  C   UNL     1       3.798   2.678  20.039  0.00  0.00    +0.000 A 
ATOM      9  C   UNL     1       4.459   3.314  18.978  0.00  0.00    +0.000 A 
ATOM     10  C   UNL     1       4.182   4.652  18.693  0.00  0.00    +0.000 A 
ATOM     11  N   UNL     1       4.803   5.366  17.664  0.00  0.00    +0.000 N 
ATOM     12  C   UNL     1       6.051   5.266  17.106  0.00  0.00    +0.000 A 
ATOM     13  S   UNL     1       7.439   4.532  17.669  0.00  0.00    +0.000 S 
ATOM     14  N   UNL     1       6.048   6.150  16.028  0.00  0.00    +0.000 N 
ATOM     15  N   UNL     1       4.988   7.003  16.158  0.00  0.00    +0.000 NA
ATOM     16  C   UNL     1       4.335   6.527  17.182  0.00  0.00    +0.000 A 
ATOM     17  H   UNL     1       6.888   6.462  15.547  0.00  0.00    +0.000 HD
ENDROOT
BRANCH   1  18
ATOM     18  C   UNL     1       3.152   8.604  17.543  0.00  0.00    +0.000 C 
BRANCH  18  19
ATOM     19  C   UNL     1       1.697   9.019  17.798  0.00  0.00    +0.000 C 
BRANCH  19  20
ATOM     20  C   UNL     1       1.612  10.375  18.494  0.00  0.00    +0.000 C 
BRANCH  20  23
ATOM     21  O   UNL     1      -0.512   9.735  20.273  0.00  0.00    +0.000 OA
ATOM     22  C   UNL     1      -0.705  10.539  19.369  0.00  0.00    +0.000 C 
ATOM     23  N   UNL     1       0.262  10.904  18.449  0.00  0.00    +0.000 N 
ATOM     24  H   UNL     1       0.008  11.513  17.676  0.00  0.00    +0.000 HD
BRANCH  22  25
ATOM     25  C   UNL     1      -2.043  11.234  19.152  0.00  0.00    +0.000 C 
BRANCH  25  26
ATOM     26  C   UNL     1      -2.677  10.918  17.817  0.00  0.00    +0.000 A 
ATOM     27  C   UNL     1      -2.093   9.969  16.967  0.00  0.00    +0.000 A 
ATOM     28  C   UNL     1      -2.650   9.695  15.717  0.00  0.00    +0.000 A 
ATOM     29  C   UNL     1      -3.805  10.357  15.308  0.00  0.00    +0.000 A 
ATOM     30  C   UNL     1      -4.415  11.277  16.157  0.00  0.00    +0.000 A 
ATOM     31  C   UNL     1      -3.858  11.554  17.410  0.00  0.00    +0.000 A 
ENDBRANCH  25  26
ENDBRANCH  22  25
ENDBRANCH  20  23
ENDBRANCH  19  20
ENDBRANCH  18  19
ENDBRANCH   1  18
TORSDOF 6
ENDMDL
MODEL 5
REMARK VINA RESULT:      -8.3      5.169      7.726
REMARK  Name = 
REMARK  6 active torsions:
REMARK  status: ('A' for Active; 'I' for Inactive)
REMARK    1  A    between atoms: C_2  and  C_3
REMARK    2  A    between atoms: C_3  and  C_4
REMARK    3  A    between atoms: N_10  and  C_11
REMARK    4  A    between atoms: C_11  and  C_12
REMARK    5  A    between atoms: C_12  and  C_13
REMARK    6  A    between atoms: C_13  and  N_14
REMARK                            x       y       z     vdW  Elec       q    Type
REMARK                         _______ _______ _______ _____ _____    ______ ____
ROOT
ATOM      1  N   UNL     1       0.705  10.069  21.221  0.00  0.00    +0.000 N 
ATOM      2  C   UNL     1      -0.088  10.527  22.277  0.00  0.00    +0.000 A 
ATOM      3  O   UNL     1      -0.034  10.075  23.421  0.00  0.00    +0.000 OA
ATOM      4  C   UNL     1      -1.085  11.571  21.974  0.00  0.00    +0.000 A 
ATOM      5  C   UNL     1      -1.752  12.227  23.006  0.00  0.00    +0.000 A 
ATOM      6  C   UNL     1      -2.650  13.233  22.688  0.00  0.00    +0.000 A 
ATOM      7  F   UNL     1      -3.275  13.887  23.681  0.00  0.00    +0.000 F 
ATOM      8  C   UNL     1      -2.901  13.589  21.371  0.00  0.00    +0.000 A 
ATOM      9  C   UNL     1      -2.270  12.888  20.333  0.00  0.00    +0.000 A 
ATOM     10  C   UNL     1      -1.389  11.848  20.637  0.00  0.00    +0.000 A 
ATOM     11  N   UNL     1      -0.728  11.090  19.666  0.00  0.00    +0.000 N 
ATOM     12  C   UNL     1      -1.081  10.728  18.393  0.00  0.00    +0.000 A 
ATOM     13  S   UNL     1      -2.567  10.716  17.636  0.00  0.00    +0.000 S 
ATOM     14  N   UNL     1       0.040  10.089  17.864  0.00  0.00    +0.000 N 
ATOM     15  N   UNL     1       0.884   9.757  18.887  0.00  0.00    +0.000 NA
ATOM     16  C   UNL     1       0.336  10.317  19.929  0.00  0.00    +0.000 A 
ATOM     17  H   UNL     1       0.025   9.520  17.021  0.00  0.00    +0.000 HD
ENDROOT
BRANCH   1  18
ATOM     18  C   UNL     1       1.556   8.910  21.472  0.00  0.00    +0.000 C 
BRANCH  18  19
ATOM     19  C   UNL     1       0.739   7.618  21.340  0.00  0.00    +0.000 C 
BRANCH  19  20
ATOM     20  C   UNL     1       1.553   6.500  20.693  0.00  0.00    +0.000 C 
BRANCH  20  23
ATOM     21  O   UNL     1       3.071   4.956  18.851  0.00  0.00    +0.000 OA
ATOM     22  C   UNL     1       3.096   6.178  18.776  0.00  0.00    +0.000 C 
ATOM     23  N   UNL     1       2.401   7.013  19.634  0.00  0.00    +0.000 N 
ATOM     24  H   UNL     1       2.533   8.018  19.565  0.00  0.00    +0.000 HD
BRANCH  22  25
ATOM     25  C   UNL     1       3.903   6.926  17.722  0.00  0.00    +0.000 C 
BRANCH  25  26
ATOM     26  C   UNL     1       5.064   6.130  17.174  0.00  0.00    +0.000 A 
ATOM     27  C   UNL     1       6.195   5.897  17.968  0.00  0.00    +0.000 A 
ATOM     28  C   UNL     1       7.288   5.193  17.461  0.00  0.00    +0.000 A 
ATOM     29  C   UNL     1       7.257   4.702  16.158  0.00  0.00    +0.000 A 
ATOM     30  C   UNL     1       6.126   4.896  15.369  0.00  0.00    +0.000 A 
ATOM     31  C   UNL     1       5.030   5.603  15.876  0.00  0.00    +0.000 A 
ENDBRANCH  25  26
ENDBRANCH  22  25
ENDBRANCH  20  23
ENDBRANCH  19  20
ENDBRANCH  18  19
ENDBRANCH   1  18
TORSDOF 6
ENDMDL
MODEL 6
REMARK VINA RESULT:      -8.3      4.775      6.258
REMARK  Name = 
REMARK  6 active torsions:
REMARK  status: ('A' for Active; 'I' for Inactive)
REMARK    1  A    between atoms: C_2  and  C_3
REMARK    2  A    between atoms: C_3  and  C_4
REMARK    3  A    between atoms: N_10  and  C_11
REMARK    4  A    between atoms: C_11  and  C_12
REMARK    5  A    between atoms: C_12  and  C_13
REMARK    6  A    between atoms: C_13  and  N_14
REMARK                            x       y       z     vdW  Elec       q    Type
REMARK                         _______ _______ _______ _____ _____    ______ ____
ROOT
ATOM      1  N   UNL     1       2.525   7.376  18.685  0.00  0.00    +0.000 N 
ATOM      2  C   UNL     1       2.090   6.733  19.847  0.00  0.00    +0.000 A 
ATOM      3  O   UNL     1       1.470   7.294  20.750  0.00  0.00    +0.000 OA
ATOM      4  C   UNL     1       2.454   5.313  20.015  0.00  0.00    +0.000 A 
ATOM      5  C   UNL     1       1.876   4.553  21.029  0.00  0.00    +0.000 A 
ATOM      6  C   UNL     1       2.207   3.212  21.131  0.00  0.00    +0.000 A 
ATOM      7  F   UNL     1       1.632   2.470  22.090  0.00  0.00    +0.000 F 
ATOM      8  C   UNL     1       3.104   2.620  20.254  0.00  0.00    +0.000 A 
ATOM      9  C   UNL     1       3.726   3.401  19.269  0.00  0.00    +0.000 A 
ATOM     10  C   UNL     1       3.429   4.762  19.176  0.00  0.00    +0.000 A 
ATOM     11  N   UNL     1       4.013   5.615  18.235  0.00  0.00    +0.000 N 
ATOM     12  C   UNL     1       5.243   5.606  17.632  0.00  0.00    +0.000 A 
ATOM     13  S   UNL     1       6.654   4.821  18.048  0.00  0.00    +0.000 S 
ATOM     14  N   UNL     1       5.199   6.628  16.684  0.00  0.00    +0.000 N 
ATOM     15  N   UNL     1       4.137   7.443  16.960  0.00  0.00    +0.000 NA
ATOM     16  C   UNL     1       3.520   6.825  17.929  0.00  0.00    +0.000 A 
ATOM     17  H   UNL     1       6.021   7.013  16.224  0.00  0.00    +0.000 HD
ENDROOT
BRANCH   1  18
ATOM     18  C   UNL     1       2.333   8.820  18.602  0.00  0.00    +0.000 C 
BRANCH  18  19
ATOM     19  C   UNL     1       1.107   9.139  17.737  0.00  0.00    +0.000 C 
BRANCH  19  20
ATOM     20  C   UNL     1       0.155  10.104  18.440  0.00  0.00    +0.000 C 
BRANCH  20  23
ATOM     21  O   UNL     1      -0.382  12.885  18.208  0.00  0.00    +0.000 OA
ATOM     22  C   UNL     1       0.538  12.508  18.922  0.00  0.00    +0.000 C 
ATOM     23  N   UNL     1       0.882  11.177  19.089  0.00  0.00    +0.000 N 
ATOM     24  H   UNL     1       1.709  10.943  19.631  0.00  0.00    +0.000 HD
BRANCH  22  25
ATOM     25  C   UNL     1       1.417  13.467  19.716  0.00  0.00    +0.000 C 
BRANCH  25  26
ATOM     26  C   UNL     1       1.942  14.622  18.895  0.00  0.00    +0.000 A 
ATOM     27  C   UNL     1       3.080  14.455  18.093  0.00  0.00    +0.000 A 
ATOM     28  C   UNL     1       3.595  15.525  17.358  0.00  0.00    +0.000 A 
ATOM     29  C   UNL     1       2.971  16.768  17.406  0.00  0.00    +0.000 A 
ATOM     30  C   UNL     1       1.820  16.939  18.172  0.00  0.00    +0.000 A 
ATOM     31  C   UNL     1       1.303  15.869  18.910  0.00  0.00    +0.000 A 
ENDBRANCH  25  26
ENDBRANCH  22  25
ENDBRANCH  20  23
ENDBRANCH  19  20
ENDBRANCH  18  19
ENDBRANCH   1  18
TORSDOF 6
ENDMDL
MODEL 7
REMARK VINA RESULT:      -8.2      4.715      7.754
REMARK  Name = 
REMARK  6 active torsions:
REMARK  status: ('A' for Active; 'I' for Inactive)
REMARK    1  A    between atoms: C_2  and  C_3
REMARK    2  A    between atoms: C_3  and  C_4
REMARK    3  A    between atoms: N_10  and  C_11
REMARK    4  A    between atoms: C_11  and  C_12
REMARK    5  A    between atoms: C_12  and  C_13
REMARK    6  A    between atoms: C_13  and  N_14
REMARK                            x       y       z     vdW  Elec       q    Type
REMARK                         _______ _______ _______ _____ _____    ______ ____
ROOT
ATOM      1  N   UNL     1       2.226   7.050  19.532  0.00  0.00    +0.000 N 
ATOM      2  C   UNL     1       2.859   7.344  18.321  0.00  0.00    +0.000 A 
ATOM      3  O   UNL     1       2.721   8.406  17.715  0.00  0.00    +0.000 OA
ATOM      4  C   UNL     1       3.691   6.287  17.716  0.00  0.00    +0.000 A 
ATOM      5  C   UNL     1       4.521   6.576  16.635  0.00  0.00    +0.000 A 
ATOM      6  C   UNL     1       5.321   5.571  16.118  0.00  0.00    +0.000 A 
ATOM      7  F   UNL     1       6.143   5.853  15.095  0.00  0.00    +0.000 F 
ATOM      8  C   UNL     1       5.304   4.288  16.648  0.00  0.00    +0.000 A 
ATOM      9  C   UNL     1       4.427   3.987  17.699  0.00  0.00    +0.000 A 
ATOM     10  C   UNL     1       3.588   4.980  18.207  0.00  0.00    +0.000 A 
ATOM     11  N   UNL     1       2.675   4.763  19.243  0.00  0.00    +0.000 N 
ATOM     12  C   UNL     1       1.968   3.651  19.621  0.00  0.00    +0.000 A 
ATOM     13  S   UNL     1       1.621   2.248  18.790  0.00  0.00    +0.000 S 
ATOM     14  N   UNL     1       1.327   4.004  20.807  0.00  0.00    +0.000 N 
ATOM     15  N   UNL     1       1.349   5.365  20.935  0.00  0.00    +0.000 NA
ATOM     16  C   UNL     1       2.101   5.753  19.943  0.00  0.00    +0.000 A 
ATOM     17  H   UNL     1       0.563   3.473  21.220  0.00  0.00    +0.000 HD
ENDROOT
BRANCH   1  18
ATOM     18  C   UNL     1       1.257   8.017  20.037  0.00  0.00    +0.000 C 
BRANCH  18  19
ATOM     19  C   UNL     1       1.823   8.737  21.268  0.00  0.00    +0.000 C 
BRANCH  19  20
ATOM     20  C   UNL     1       0.716   9.183  22.219  0.00  0.00    +0.000 C 
BRANCH  20  23
ATOM     21  O   UNL     1       1.284  11.823  21.332  0.00  0.00    +0.000 OA
ATOM     22  C   UNL     1       0.165  11.356  21.156  0.00  0.00    +0.000 C 
ATOM     23  N   UNL     1      -0.208  10.086  21.562  0.00  0.00    +0.000 N 
ATOM     24  H   UNL     1      -1.176   9.796  21.457  0.00  0.00    +0.000 HD
BRANCH  22  25
ATOM     25  C   UNL     1      -0.953  12.126  20.463  0.00  0.00    +0.000 C 
BRANCH  25  26
ATOM     26  C   UNL     1      -1.507  11.419  19.247  0.00  0.00    +0.000 A 
ATOM     27  C   UNL     1      -2.842  11.616  18.867  0.00  0.00    +0.000 A 
ATOM     28  C   UNL     1      -3.374  10.942  17.767  0.00  0.00    +0.000 A 
ATOM     29  C   UNL     1      -2.575  10.074  17.027  0.00  0.00    +0.000 A 
ATOM     30  C   UNL     1      -1.238   9.896  17.373  0.00  0.00    +0.000 A 
ATOM     31  C   UNL     1      -0.703  10.570  18.476  0.00  0.00    +0.000 A 
ENDBRANCH  25  26
ENDBRANCH  22  25
ENDBRANCH  20  23
ENDBRANCH  19  20
ENDBRANCH  18  19
ENDBRANCH   1  18
TORSDOF 6
ENDMDL
MODEL 8
REMARK VINA RESULT:      -8.2      4.410      7.382
REMARK  Name = 
REMARK  6 active torsions:
REMARK  status: ('A' for Active; 'I' for Inactive)
REMARK    1  A    between atoms: C_2  and  C_3
REMARK    2  A    between atoms: C_3  and  C_4
REMARK    3  A    between atoms: N_10  and  C_11
REMARK    4  A    between atoms: C_11  and  C_12
REMARK    5  A    between atoms: C_12  and  C_13
REMARK    6  A    between atoms: C_13  and  N_14
REMARK                            x       y       z     vdW  Elec       q    Type
REMARK                         _______ _______ _______ _____ _____    ______ ____
ROOT
ATOM      1  N   UNL     1       3.162   7.131  17.980  0.00  0.00    +0.000 N 
ATOM      2  C   UNL     1       2.724   6.616  19.202  0.00  0.00    +0.000 A 
ATOM      3  O   UNL     1       2.076   7.262  20.026  0.00  0.00    +0.000 OA
ATOM      4  C   UNL     1       3.118   5.235  19.538  0.00  0.00    +0.000 A 
ATOM      5  C   UNL     1       2.542   4.583  20.626  0.00  0.00    +0.000 A 
ATOM      6  C   UNL     1       2.903   3.272  20.887  0.00  0.00    +0.000 A 
ATOM      7  F   UNL     1       2.330   2.631  21.918  0.00  0.00    +0.000 F 
ATOM      8  C   UNL     1       3.827   2.604  20.096  0.00  0.00    +0.000 A 
ATOM      9  C   UNL     1       4.446   3.282  19.036  0.00  0.00    +0.000 A 
ATOM     10  C   UNL     1       4.119   4.615  18.782  0.00  0.00    +0.000 A 
ATOM     11  N   UNL     1       4.697   5.368  17.756  0.00  0.00    +0.000 N 
ATOM     12  C   UNL     1       5.937   5.321  17.174  0.00  0.00    +0.000 A 
ATOM     13  S   UNL     1       7.359   4.624  17.697  0.00  0.00    +0.000 S 
ATOM     14  N   UNL     1       5.884   6.225  16.114  0.00  0.00    +0.000 N 
ATOM     15  N   UNL     1       4.799   7.039  16.279  0.00  0.00    +0.000 NA
ATOM     16  C   UNL     1       4.182   6.522  17.305  0.00  0.00    +0.000 A 
ATOM     17  H   UNL     1       6.704   6.574  15.623  0.00  0.00    +0.000 HD
ENDROOT
BRANCH   1  18
ATOM     18  C   UNL     1       2.937   8.551  17.727  0.00  0.00    +0.000 C 
BRANCH  18  19
ATOM     19  C   UNL     1       1.448   8.884  17.886  0.00  0.00    +0.000 C 
BRANCH  19  20
ATOM     20  C   UNL     1       1.239  10.314  18.378  0.00  0.00    +0.000 C 
BRANCH  20  23
ATOM     21  O   UNL     1      -1.333  10.634  19.544  0.00  0.00    +0.000 OA
ATOM     22  C   UNL     1      -0.357  10.493  20.270  0.00  0.00    +0.000 C 
ATOM     23  N   UNL     1       0.935  10.342  19.796  0.00  0.00    +0.000 N 
ATOM     24  H   UNL     1       1.706  10.313  20.456  0.00  0.00    +0.000 HD
BRANCH  22  25
ATOM     25  C   UNL     1      -0.452  10.468  21.791  0.00  0.00    +0.000 C 
BRANCH  25  26
ATOM     26  C   UNL     1      -1.025  11.736  22.380  0.00  0.00    +0.000 A 
ATOM     27  C   UNL     1      -2.202  11.691  23.138  0.00  0.00    +0.000 A 
ATOM     28  C   UNL     1      -2.759  12.861  23.658  0.00  0.00    +0.000 A 
ATOM     29  C   UNL     1      -2.137  14.087  23.436  0.00  0.00    +0.000 A 
ATOM     30  C   UNL     1      -0.948  14.142  22.713  0.00  0.00    +0.000 A 
ATOM     31  C   UNL     1      -0.389  12.971  22.191  0.00  0.00    +0.000 A 
ENDBRANCH  25  26
ENDBRANCH  22  25
ENDBRANCH  20  23
ENDBRANCH  19  20
ENDBRANCH  18  19
ENDBRANCH   1  18
TORSDOF 6
ENDMDL
MODEL 9
REMARK VINA RESULT:      -8.2      5.771      8.168
REMARK  Name = 
REMARK  6 active torsions:
REMARK  status: ('A' for Active; 'I' for Inactive)
REMARK    1  A    between atoms: C_2  and  C_3
REMARK    2  A    between atoms: C_3  and  C_4
REMARK    3  A    between atoms: N_10  and  C_11
REMARK    4  A    between atoms: C_11  and  C_12
REMARK    5  A    between atoms: C_12  and  C_13
REMARK    6  A    between atoms: C_13  and  N_14
REMARK                            x       y       z     vdW  Elec       q    Type
REMARK                         _______ _______ _______ _____ _____    ______ ____
ROOT
ATOM      1  N   UNL     1       0.036  10.185  20.176  0.00  0.00    +0.000 N 
ATOM      2  C   UNL     1      -0.299  10.003  18.832  0.00  0.00    +0.000 A 
ATOM      3  O   UNL     1       0.434   9.451  18.011  0.00  0.00    +0.000 OA
ATOM      4  C   UNL     1      -1.582  10.564  18.370  0.00  0.00    +0.000 A 
ATOM      5  C   UNL     1      -2.082  10.236  17.112  0.00  0.00    +0.000 A 
ATOM      6  C   UNL     1      -3.311  10.745  16.727  0.00  0.00    +0.000 A 
ATOM      7  F   UNL     1      -3.809  10.409  15.526  0.00  0.00    +0.000 F 
ATOM      8  C   UNL     1      -4.043  11.577  17.562  0.00  0.00    +0.000 A 
ATOM      9  C   UNL     1      -3.512  11.950  18.805  0.00  0.00    +0.000 A 
ATOM     10  C   UNL     1      -2.258  11.473  19.192  0.00  0.00    +0.000 A 
ATOM     11  N   UNL     1      -1.648  11.805  20.405  0.00  0.00    +0.000 N 
ATOM     12  C   UNL     1      -1.718  12.928  21.186  0.00  0.00    +0.000 A 
ATOM     13  S   UNL     1      -2.238  14.472  20.829  0.00  0.00    +0.000 S 
ATOM     14  N   UNL     1      -1.002  12.623  22.343  0.00  0.00    +0.000 N 
ATOM     15  N   UNL     1      -0.235  11.516  22.109  0.00  0.00    +0.000 NA
ATOM     16  C   UNL     1      -0.614  11.125  20.924  0.00  0.00    +0.000 A 
ATOM     17  H   UNL     1      -0.690  13.316  23.019  0.00  0.00    +0.000 HD
ENDROOT
BRANCH   1  18
ATOM     18  C   UNL     1       1.382   9.801  20.593  0.00  0.00    +0.000 C 
BRANCH  18  19
ATOM     19  C   UNL     1       1.316   8.597  21.542  0.00  0.00    +0.000 C 
BRANCH  19  20
ATOM     20  C   UNL     1       1.489   7.279  20.791  0.00  0.00    +0.000 C 
BRANCH  20  23
ATOM     21  O   UNL     1       3.448   5.577  19.631  0.00  0.00    +0.000 OA
ATOM     22  C   UNL     1       3.099   6.587  19.034  0.00  0.00    +0.000 C 
ATOM     23  N   UNL     1       2.162   7.482  19.523  0.00  0.00    +0.000 N 
ATOM     24  H   UNL     1       1.982   8.341  19.013  0.00  0.00    +0.000 HD
BRANCH  22  25
ATOM     25  C   UNL     1       3.661   6.980  17.673  0.00  0.00    +0.000 C 
BRANCH  25  26
ATOM     26  C   UNL     1       4.882   6.184  17.273  0.00  0.00    +0.000 A 
ATOM     27  C   UNL     1       4.738   4.985  16.563  0.00  0.00    +0.000 A 
ATOM     28  C   UNL     1       5.856   4.223  16.219  0.00  0.00    +0.000 A 
ATOM     29  C   UNL     1       7.131   4.660  16.568  0.00  0.00    +0.000 A 
ATOM     30  C   UNL     1       7.291   5.867  17.244  0.00  0.00    +0.000 A 
ATOM     31  C   UNL     1       6.171   6.631  17.590  0.00  0.00    +0.000 A 
ENDBRANCH  25  26
ENDBRANCH  22  25
ENDBRANCH  20  23
ENDBRANCH  19  20
ENDBRANCH  18  19
ENDBRANCH   1  18
TORSDOF 6
ENDMDL
