MODEL 1
REMARK VINA RESULT:      -8.1      0.000      0.000
REMARK  Name = 
REMARK  3 active torsions:
REMARK  status: ('A' for Active; 'I' for Inactive)
REMARK    1  A    between atoms: C_1  and  C_2
REMARK    2  A    between atoms: C_10  and  O_11
REMARK    3  A    between atoms: C_20  and  O_21
REMARK                            x       y       z     vdW  Elec       q    Type
REMARK                         _______ _______ _______ _____ _____    ______ ____
ROOT
ATOM      1  C   UNL     1       0.769   3.248  18.896  0.00  0.00    +0.000 C 
ATOM      2  C   UNL     1       2.269   3.431  19.248  0.00  0.00    +0.000 C 
ATOM      3  C   UNL     1       2.394   3.912  20.693  0.00  0.00    +0.000 C 
ATOM      4  C   UNL     1       1.822   5.320  20.854  0.00  0.00    +0.000 C 
ATOM      5  C   UNL     1       2.430   6.346  19.869  0.00  0.00    +0.000 C 
ATOM      6  C   UNL     1       1.809   7.735  19.948  0.00  0.00    +0.000 A 
ATOM      7  C   UNL     1       1.102   8.164  21.088  0.00  0.00    +0.000 A 
ATOM      8  C   UNL     1       0.545   9.442  21.154  0.00  0.00    +0.000 A 
ATOM      9  I   UNL     1      -0.529   9.977  22.865  0.00  0.00    +0.000 I 
ATOM     10  C   UNL     1       0.708  10.322  20.091  0.00  0.00    +0.000 A 
ATOM     11  C   UNL     1       1.426   9.931  18.963  0.00  0.00    +0.000 A 
ATOM     12  C   UNL     1       1.980   8.640  18.880  0.00  0.00    +0.000 A 
ATOM     13  C   UNL     1       2.703   8.254  17.607  0.00  0.00    +0.000 C 
ATOM     14  C   UNL     1       3.301   6.840  17.586  0.00  0.00    +0.000 C 
ATOM     15  C   UNL     1       2.449   5.847  18.389  0.00  0.00    +0.000 C 
ATOM     16  C   UNL     1       3.019   4.423  18.335  0.00  0.00    +0.000 C 
ATOM     17  C   UNL     1       3.065   3.659  17.010  0.00  0.00    +0.000 C 
ATOM     18  C   UNL     1       3.400   2.219  17.456  0.00  0.00    +0.000 C 
ATOM     19  C   UNL     1       3.078   2.150  18.962  0.00  0.00    +0.000 C 
ENDROOT
BRANCH  10  20
ATOM     20  O   UNL     1       0.188  11.587  20.096  0.00  0.00    +0.000 OA
ATOM     21  H   UNL     1       0.172  11.895  19.172  0.00  0.00    +0.000 HD
ENDBRANCH  10  20
BRANCH  19  22
ATOM     22  O   UNL     1       2.421   0.954  19.333  0.00  0.00    +0.000 OA
ATOM     23  H   UNL     1       2.630   0.754  20.259  0.00  0.00    +0.000 HD
ENDBRANCH  19  22
TORSDOF 2
ENDMDL
MODEL 2
REMARK VINA RESULT:      -7.3      2.910      4.155
REMARK  Name = 
REMARK  3 active torsions:
REMARK  status: ('A' for Active; 'I' for Inactive)
REMARK    1  A    between atoms: C_1  and  C_2
REMARK    2  A    between atoms: C_10  and  O_11
REMARK    3  A    between atoms: C_20  and  O_21
REMARK                            x       y       z     vdW  Elec       q    Type
REMARK                         _______ _______ _______ _____ _____    ______ ____
ROOT
ATOM      1  C   UNL     1       6.785   7.248  17.520  0.00  0.00    +0.000 C 
ATOM      2  C   UNL     1       5.858   6.234  16.799  0.00  0.00    +0.000 C 
ATOM      3  C   UNL     1       4.798   6.995  16.003  0.00  0.00    +0.000 C 
ATOM      4  C   UNL     1       3.843   7.742  16.934  0.00  0.00    +0.000 C 
ATOM      5  C   UNL     1       3.193   6.833  18.003  0.00  0.00    +0.000 C 
ATOM      6  C   UNL     1       2.310   7.572  19.001  0.00  0.00    +0.000 A 
ATOM      7  C   UNL     1       1.773   8.841  18.712  0.00  0.00    +0.000 A 
ATOM      8  C   UNL     1       0.957   9.506  19.629  0.00  0.00    +0.000 A 
ATOM      9  I   UNL     1       0.243  11.408  19.136  0.00  0.00    +0.000 I 
ATOM     10  C   UNL     1       0.643   8.901  20.839  0.00  0.00    +0.000 A 
ATOM     11  C   UNL     1       1.140   7.635  21.137  0.00  0.00    +0.000 A 
ATOM     12  C   UNL     1       1.975   6.961  20.227  0.00  0.00    +0.000 A 
ATOM     13  C   UNL     1       2.529   5.611  20.629  0.00  0.00    +0.000 C 
ATOM     14  C   UNL     1       3.417   4.918  19.584  0.00  0.00    +0.000 C 
ATOM     15  C   UNL     1       4.222   5.932  18.758  0.00  0.00    +0.000 C 
ATOM     16  C   UNL     1       5.144   5.244  17.742  0.00  0.00    +0.000 C 
ATOM     17  C   UNL     1       6.306   4.371  18.221  0.00  0.00    +0.000 C 
ATOM     18  C   UNL     1       7.124   4.151  16.929  0.00  0.00    +0.000 C 
ATOM     19  C   UNL     1       6.665   5.240  15.939  0.00  0.00    +0.000 C 
ENDROOT
BRANCH  10  20
ATOM     20  O   UNL     1      -0.152   9.499  21.777  0.00  0.00    +0.000 OA
ATOM     21  H   UNL     1      -0.806   8.836  22.065  0.00  0.00    +0.000 HD
ENDBRANCH  10  20
BRANCH  19  22
ATOM     22  O   UNL     1       7.737   5.826  15.227  0.00  0.00    +0.000 OA
ATOM     23  H   UNL     1       8.418   6.108  15.859  0.00  0.00    +0.000 HD
ENDBRANCH  19  22
TORSDOF 2
ENDMDL
MODEL 3
REMARK VINA RESULT:      -6.9      2.774      7.058
REMARK  Name = 
REMARK  3 active torsions:
REMARK  status: ('A' for Active; 'I' for Inactive)
REMARK    1  A    between atoms: C_1  and  C_2
REMARK    2  A    between atoms: C_10  and  O_11
REMARK    3  A    between atoms: C_20  and  O_21
REMARK                            x       y       z     vdW  Elec       q    Type
REMARK                         _______ _______ _______ _____ _____    ______ ____
ROOT
ATOM      1  C   UNL     1      -0.277   9.636  17.579  0.00  0.00    +0.000 C 
ATOM      2  C   UNL     1       0.735  10.188  18.616  0.00  0.00    +0.000 C 
ATOM      3  C   UNL     1       2.124  10.251  17.983  0.00  0.00    +0.000 C 
ATOM      4  C   UNL     1       2.656   8.849  17.687  0.00  0.00    +0.000 C 
ATOM      5  C   UNL     1       2.646   7.915  18.921  0.00  0.00    +0.000 C 
ATOM      6  C   UNL     1       3.083   6.486  18.627  0.00  0.00    +0.000 A 
ATOM      7  C   UNL     1       3.849   6.167  17.490  0.00  0.00    +0.000 A 
ATOM      8  C   UNL     1       4.254   4.855  17.237  0.00  0.00    +0.000 A 
ATOM      9  I   UNL     1       5.347   4.465  15.499  0.00  0.00    +0.000 I 
ATOM     10  C   UNL     1       3.921   3.845  18.130  0.00  0.00    +0.000 A 
ATOM     11  C   UNL     1       3.186   4.139  19.276  0.00  0.00    +0.000 A 
ATOM     12  C   UNL     1       2.761   5.455  19.535  0.00  0.00    +0.000 A 
ATOM     13  C   UNL     1       1.920   5.705  20.768  0.00  0.00    +0.000 C 
ATOM     14  C   UNL     1       1.504   7.164  21.006  0.00  0.00    +0.000 C 
ATOM     15  C   UNL     1       1.284   7.917  19.685  0.00  0.00    +0.000 C 
ATOM     16  C   UNL     1       0.826   9.363  19.917  0.00  0.00    +0.000 C 
ATOM     17  C   UNL     1      -0.528   9.650  20.568  0.00  0.00    +0.000 C 
ATOM     18  C   UNL     1      -0.712  11.164  20.324  0.00  0.00    +0.000 C 
ATOM     19  C   UNL     1       0.271  11.540  19.197  0.00  0.00    +0.000 C 
ENDROOT
BRANCH  10  20
ATOM     20  O   UNL     1       4.288   2.542  17.938  0.00  0.00    +0.000 OA
ATOM     21  H   UNL     1       4.902   2.307  18.658  0.00  0.00    +0.000 HD
ENDBRANCH  10  20
BRANCH  19  22
ATOM     22  O   UNL     1      -0.291  12.419  18.243  0.00  0.00    +0.000 OA
ATOM     23  H   UNL     1      -0.591  11.902  17.478  0.00  0.00    +0.000 HD
ENDBRANCH  19  22
TORSDOF 2
ENDMDL
MODEL 4
REMARK VINA RESULT:      -6.8      4.755      6.473
REMARK  Name = 
REMARK  3 active torsions:
REMARK  status: ('A' for Active; 'I' for Inactive)
REMARK    1  A    between atoms: C_1  and  C_2
REMARK    2  A    between atoms: C_10  and  O_11
REMARK    3  A    between atoms: C_20  and  O_21
REMARK                            x       y       z     vdW  Elec       q    Type
REMARK                         _______ _______ _______ _____ _____    ______ ____
ROOT
ATOM      1  C   UNL     1       2.728   1.904  19.177  0.00  0.00    +0.000 C 
ATOM      2  C   UNL     1       2.032   3.287  19.077  0.00  0.00    +0.000 C 
ATOM      3  C   UNL     1       1.562   3.515  17.641  0.00  0.00    +0.000 C 
ATOM      4  C   UNL     1       2.751   3.652  16.690  0.00  0.00    +0.000 C 
ATOM      5  C   UNL     1       3.764   4.737  17.126  0.00  0.00    +0.000 C 
ATOM      6  C   UNL     1       5.004   4.827  16.244  0.00  0.00    +0.000 A 
ATOM      7  C   UNL     1       5.014   4.319  14.932  0.00  0.00    +0.000 A 
ATOM      8  C   UNL     1       6.152   4.416  14.129  0.00  0.00    +0.000 A 
ATOM      9  I   UNL     1       6.094   3.590  12.210  0.00  0.00    +0.000 I 
ATOM     10  C   UNL     1       7.290   5.045  14.617  0.00  0.00    +0.000 A 
ATOM     11  C   UNL     1       7.296   5.580  15.903  0.00  0.00    +0.000 A 
ATOM     12  C   UNL     1       6.159   5.476  16.726  0.00  0.00    +0.000 A 
ATOM     13  C   UNL     1       6.243   6.028  18.133  0.00  0.00    +0.000 C 
ATOM     14  C   UNL     1       4.964   5.902  18.974  0.00  0.00    +0.000 C 
ATOM     15  C   UNL     1       4.177   4.630  18.628  0.00  0.00    +0.000 C 
ATOM     16  C   UNL     1       2.921   4.477  19.497  0.00  0.00    +0.000 C 
ATOM     17  C   UNL     1       3.047   4.260  21.006  0.00  0.00    +0.000 C 
ATOM     18  C   UNL     1       1.613   3.855  21.415  0.00  0.00    +0.000 C 
ATOM     19  C   UNL     1       0.901   3.428  20.116  0.00  0.00    +0.000 C 
ENDROOT
BRANCH  10  20
ATOM     20  O   UNL     1       8.435   5.173  13.880  0.00  0.00    +0.000 OA
ATOM     21  H   UNL     1       8.273   5.869  13.217  0.00  0.00    +0.000 HD
ENDBRANCH  10  20
BRANCH  19  22
ATOM     22  O   UNL     1       0.111   2.266  20.274  0.00  0.00    +0.000 OA
ATOM     23  H   UNL     1      -0.419   2.354  21.082  0.00  0.00    +0.000 HD
ENDBRANCH  19  22
TORSDOF 2
ENDMDL
MODEL 5
REMARK VINA RESULT:      -6.5      9.889     11.789
REMARK  Name = 
REMARK  3 active torsions:
REMARK  status: ('A' for Active; 'I' for Inactive)
REMARK    1  A    between atoms: C_1  and  C_2
REMARK    2  A    between atoms: C_10  and  O_11
REMARK    3  A    between atoms: C_20  and  O_21
REMARK                            x       y       z     vdW  Elec       q    Type
REMARK                         _______ _______ _______ _____ _____    ______ ____
ROOT
ATOM      1  C   UNL     1       6.820  14.440  23.150  0.00  0.00    +0.000 C 
ATOM      2  C   UNL     1       8.076  13.808  23.805  0.00  0.00    +0.000 C 
ATOM      3  C   UNL     1       9.257  14.766  23.663  0.00  0.00    +0.000 C 
ATOM      4  C   UNL     1       9.667  14.918  22.198  0.00  0.00    +0.000 C 
ATOM      5  C   UNL     1       9.953  13.569  21.497  0.00  0.00    +0.000 C 
ATOM      6  C   UNL     1      10.272  13.690  20.012  0.00  0.00    +0.000 A 
ATOM      7  C   UNL     1      10.714  14.902  19.448  0.00  0.00    +0.000 A 
ATOM      8  C   UNL     1      11.013  14.999  18.088  0.00  0.00    +0.000 A 
ATOM      9  I   UNL     1      11.617  16.850  17.328  0.00  0.00    +0.000 I 
ATOM     10  C   UNL     1      10.899  13.879  17.274  0.00  0.00    +0.000 A 
ATOM     11  C   UNL     1      10.488  12.663  17.813  0.00  0.00    +0.000 A 
ATOM     12  C   UNL     1      10.171  12.556  19.180  0.00  0.00    +0.000 A 
ATOM     13  C   UNL     1       9.679  11.221  19.697  0.00  0.00    +0.000 C 
ATOM     14  C   UNL     1       9.368  11.164  21.200  0.00  0.00    +0.000 C 
ATOM     15  C   UNL     1       8.833  12.505  21.723  0.00  0.00    +0.000 C 
ATOM     16  C   UNL     1       8.479  12.440  23.215  0.00  0.00    +0.000 C 
ATOM     17  C   UNL     1       7.343  11.539  23.702  0.00  0.00    +0.000 C 
ATOM     18  C   UNL     1       7.134  12.008  25.159  0.00  0.00    +0.000 C 
ATOM     19  C   UNL     1       7.804  13.392  25.265  0.00  0.00    +0.000 C 
ENDROOT
BRANCH  10  20
ATOM     20  O   UNL     1      11.178  13.910  15.936  0.00  0.00    +0.000 OA
ATOM     21  H   UNL     1      12.070  14.292  15.838  0.00  0.00    +0.000 HD
ENDBRANCH  10  20
BRANCH  19  22
ATOM     22  O   UNL     1       7.034  14.324  26.000  0.00  0.00    +0.000 OA
ATOM     23  H   UNL     1       7.483  14.511  26.839  0.00  0.00    +0.000 HD
ENDBRANCH  19  22
TORSDOF 2
ENDMDL
MODEL 6
REMARK VINA RESULT:      -6.5      9.606     10.774
REMARK  Name = 
REMARK  3 active torsions:
REMARK  status: ('A' for Active; 'I' for Inactive)
REMARK    1  A    between atoms: C_1  and  C_2
REMARK    2  A    between atoms: C_10  and  O_11
REMARK    3  A    between atoms: C_20  and  O_21
REMARK                            x       y       z     vdW  Elec       q    Type
REMARK                         _______ _______ _______ _____ _____    ______ ____
ROOT
ATOM      1  C   UNL     1       9.648  11.619  18.410  0.00  0.00    +0.000 C 
ATOM      2  C   UNL     1      10.744  12.532  19.020  0.00  0.00    +0.000 C 
ATOM      3  C   UNL     1      11.120  12.013  20.407  0.00  0.00    +0.000 C 
ATOM      4  C   UNL     1       9.954  12.164  21.384  0.00  0.00    +0.000 C 
ATOM      5  C   UNL     1       9.398  13.606  21.458  0.00  0.00    +0.000 C 
ATOM      6  C   UNL     1       8.176  13.761  22.355  0.00  0.00    +0.000 A 
ATOM      7  C   UNL     1       7.872  12.820  23.357  0.00  0.00    +0.000 A 
ATOM      8  C   UNL     1       6.755  12.977  24.180  0.00  0.00    +0.000 A 
ATOM      9  I   UNL     1       6.353  11.507  25.610  0.00  0.00    +0.000 I 
ATOM     10  C   UNL     1       5.939  14.092  24.031  0.00  0.00    +0.000 A 
ATOM     11  C   UNL     1       6.234  15.050  23.064  0.00  0.00    +0.000 A 
ATOM     12  C   UNL     1       7.349  14.895  22.220  0.00  0.00    +0.000 A 
ATOM     13  C   UNL     1       7.588  15.942  21.153  0.00  0.00    +0.000 C 
ATOM     14  C   UNL     1       8.831  15.727  20.277  0.00  0.00    +0.000 C 
ATOM     15  C   UNL     1       9.122  14.235  20.056  0.00  0.00    +0.000 C 
ATOM     16  C   UNL     1      10.338  14.015  19.145  0.00  0.00    +0.000 C 
ATOM     17  C   UNL     1      10.296  14.455  17.681  0.00  0.00    +0.000 C 
ATOM     18  C   UNL     1      11.552  13.782  17.084  0.00  0.00    +0.000 C 
ATOM     19  C   UNL     1      11.955  12.672  18.076  0.00  0.00    +0.000 C 
ENDROOT
BRANCH  10  20
ATOM     20  O   UNL     1       4.833  14.302  24.807  0.00  0.00    +0.000 OA
ATOM     21  H   UNL     1       4.721  15.267  24.892  0.00  0.00    +0.000 HD
ENDBRANCH  10  20
BRANCH  19  22
ATOM     22  O   UNL     1      12.333  11.469  17.435  0.00  0.00    +0.000 OA
ATOM     23  H   UNL     1      11.762  11.331  16.663  0.00  0.00    +0.000 HD
ENDBRANCH  19  22
TORSDOF 2
ENDMDL
MODEL 7
REMARK VINA RESULT:      -6.4      2.697      7.196
REMARK  Name = 
REMARK  3 active torsions:
REMARK  status: ('A' for Active; 'I' for Inactive)
REMARK    1  A    between atoms: C_1  and  C_2
REMARK    2  A    between atoms: C_10  and  O_11
REMARK    3  A    between atoms: C_20  and  O_21
REMARK                            x       y       z     vdW  Elec       q    Type
REMARK                         _______ _______ _______ _____ _____    ______ ____
ROOT
ATOM      1  C   UNL     1      -0.904  10.126  17.551  0.00  0.00    +0.000 C 
ATOM      2  C   UNL     1       0.126  10.862  18.448  0.00  0.00    +0.000 C 
ATOM      3  C   UNL     1       1.509  10.779  17.803  0.00  0.00    +0.000 C 
ATOM      4  C   UNL     1       2.023   9.340  17.788  0.00  0.00    +0.000 C 
ATOM      5  C   UNL     1       2.016   8.671  19.183  0.00  0.00    +0.000 C 
ATOM      6  C   UNL     1       2.435   7.207  19.178  0.00  0.00    +0.000 A 
ATOM      7  C   UNL     1       3.185   6.657  18.121  0.00  0.00    +0.000 A 
ATOM      8  C   UNL     1       3.572   5.316  18.131  0.00  0.00    +0.000 A 
ATOM      9  I   UNL     1       4.642   4.573  16.497  0.00  0.00    +0.000 I 
ATOM     10  C   UNL     1       3.238   4.509  19.212  0.00  0.00    +0.000 A 
ATOM     11  C   UNL     1       2.520   5.036  20.282  0.00  0.00    +0.000 A 
ATOM     12  C   UNL     1       2.112   6.383  20.276  0.00  0.00    +0.000 A 
ATOM     13  C   UNL     1       1.287   6.884  21.442  0.00  0.00    +0.000 C 
ATOM     14  C   UNL     1       0.890   8.367  21.387  0.00  0.00    +0.000 C 
ATOM     15  C   UNL     1       0.663   8.843  19.944  0.00  0.00    +0.000 C 
ATOM     16  C   UNL     1       0.223  10.312  19.886  0.00  0.00    +0.000 C 
ATOM     17  C   UNL     1      -1.121  10.740  20.479  0.00  0.00    +0.000 C 
ATOM     18  C   UNL     1      -1.291  12.177  19.938  0.00  0.00    +0.000 C 
ATOM     19  C   UNL     1      -0.317  12.308  18.751  0.00  0.00    +0.000 C 
ENDROOT
BRANCH  10  20
ATOM     20  O   UNL     1       3.590   3.189  19.281  0.00  0.00    +0.000 OA
ATOM     21  H   UNL     1       3.848   3.009  20.204  0.00  0.00    +0.000 HD
ENDBRANCH  10  20
BRANCH  19  22
ATOM     22  O   UNL     1      -0.881  12.985  17.645  0.00  0.00    +0.000 OA
ATOM     23  H   UNL     1      -0.167  13.390  17.127  0.00  0.00    +0.000 HD
ENDBRANCH  19  22
TORSDOF 2
ENDMDL
MODEL 8
REMARK VINA RESULT:      -6.2      2.102      3.272
REMARK  Name = 
REMARK  3 active torsions:
REMARK  status: ('A' for Active; 'I' for Inactive)
REMARK    1  A    between atoms: C_1  and  C_2
REMARK    2  A    between atoms: C_10  and  O_11
REMARK    3  A    between atoms: C_20  and  O_21
REMARK                            x       y       z     vdW  Elec       q    Type
REMARK                         _______ _______ _______ _____ _____    ______ ____
ROOT
ATOM      1  C   UNL     1       5.655   5.910  18.671  0.00  0.00    +0.000 C 
ATOM      2  C   UNL     1       4.396   5.319  17.984  0.00  0.00    +0.000 C 
ATOM      3  C   UNL     1       3.904   6.287  16.910  0.00  0.00    +0.000 C 
ATOM      4  C   UNL     1       3.386   7.583  17.535  0.00  0.00    +0.000 C 
ATOM      5  C   UNL     1       2.305   7.352  18.618  0.00  0.00    +0.000 C 
ATOM      6  C   UNL     1       1.842   8.622  19.321  0.00  0.00    +0.000 A 
ATOM      7  C   UNL     1       2.021   9.893  18.743  0.00  0.00    +0.000 A 
ATOM      8  C   UNL     1       1.583  11.049  19.391  0.00  0.00    +0.000 A 
ATOM      9  I   UNL     1       1.935  12.898  18.482  0.00  0.00    +0.000 I 
ATOM     10  C   UNL     1       0.936  10.951  20.617  0.00  0.00    +0.000 A 
ATOM     11  C   UNL     1       0.723   9.703  21.196  0.00  0.00    +0.000 A 
ATOM     12  C   UNL     1       1.172   8.531  20.559  0.00  0.00    +0.000 A 
ATOM     13  C   UNL     1       0.960   7.208  21.263  0.00  0.00    +0.000 C 
ATOM     14  C   UNL     1       1.454   5.966  20.508  0.00  0.00    +0.000 C 
ATOM     15  C   UNL     1       2.705   6.268  19.669  0.00  0.00    +0.000 C 
ATOM     16  C   UNL     1       3.228   5.020  18.947  0.00  0.00    +0.000 C 
ATOM     17  C   UNL     1       3.775   3.836  19.747  0.00  0.00    +0.000 C 
ATOM     18  C   UNL     1       4.457   2.974  18.662  0.00  0.00    +0.000 C 
ATOM     19  C   UNL     1       4.659   3.898  17.445  0.00  0.00    +0.000 C 
ENDROOT
BRANCH  10  20
ATOM     20  O   UNL     1       0.483  12.046  21.299  0.00  0.00    +0.000 OA
ATOM     21  H   UNL     1      -0.031  12.584  20.670  0.00  0.00    +0.000 HD
ENDBRANCH  10  20
BRANCH  19  22
ATOM     22  O   UNL     1       5.924   3.735  16.832  0.00  0.00    +0.000 OA
ATOM     23  H   UNL     1       6.595   4.179  17.374  0.00  0.00    +0.000 HD
ENDBRANCH  19  22
TORSDOF 2
ENDMDL
MODEL 9
REMARK VINA RESULT:      -6.2      2.764      6.549
REMARK  Name = 
REMARK  3 active torsions:
REMARK  status: ('A' for Active; 'I' for Inactive)
REMARK    1  A    between atoms: C_1  and  C_2
REMARK    2  A    between atoms: C_10  and  O_11
REMARK    3  A    between atoms: C_20  and  O_21
REMARK                            x       y       z     vdW  Elec       q    Type
REMARK                         _______ _______ _______ _____ _____    ______ ____
ROOT
ATOM      1  C   UNL     1       1.725   9.563  22.578  0.00  0.00    +0.000 C 
ATOM      2  C   UNL     1       0.499   9.408  21.641  0.00  0.00    +0.000 C 
ATOM      3  C   UNL     1      -0.019   7.973  21.718  0.00  0.00    +0.000 C 
ATOM      4  C   UNL     1       0.995   6.991  21.132  0.00  0.00    +0.000 C 
ATOM      5  C   UNL     1       1.436   7.350  19.692  0.00  0.00    +0.000 C 
ATOM      6  C   UNL     1       2.516   6.439  19.123  0.00  0.00    +0.000 A 
ATOM      7  C   UNL     1       2.751   5.154  19.647  0.00  0.00    +0.000 A 
ATOM      8  C   UNL     1       3.736   4.324  19.111  0.00  0.00    +0.000 A 
ATOM      9  I   UNL     1       4.049   2.451  19.984  0.00  0.00    +0.000 I 
ATOM     10  C   UNL     1       4.486   4.756  18.024  0.00  0.00    +0.000 A 
ATOM     11  C   UNL     1       4.256   6.012  17.471  0.00  0.00    +0.000 A 
ATOM     12  C   UNL     1       3.274   6.863  18.011  0.00  0.00    +0.000 A 
ATOM     13  C   UNL     1       3.106   8.238  17.401  0.00  0.00    +0.000 C 
ATOM     14  C   UNL     1       2.006   9.111  18.023  0.00  0.00    +0.000 C 
ATOM     15  C   UNL     1       1.850   8.847  19.528  0.00  0.00    +0.000 C 
ATOM     16  C   UNL     1       0.782   9.748  20.162  0.00  0.00    +0.000 C 
ATOM     17  C   UNL     1       0.985  11.263  20.220  0.00  0.00    +0.000 C 
ATOM     18  C   UNL     1      -0.132  11.722  21.184  0.00  0.00    +0.000 C 
ATOM     19  C   UNL     1      -0.585  10.462  21.947  0.00  0.00    +0.000 C 
ENDROOT
BRANCH  10  20
ATOM     20  O   UNL     1       5.464   3.988  17.454  0.00  0.00    +0.000 OA
ATOM     21  H   UNL     1       5.643   3.250  18.065  0.00  0.00    +0.000 HD
ENDBRANCH  10  20
BRANCH  19  22
ATOM     22  O   UNL     1      -0.792  10.696  23.327  0.00  0.00    +0.000 OA
ATOM     23  H   UNL     1      -0.301  10.031  23.836  0.00  0.00    +0.000 HD
ENDBRANCH  19  22
TORSDOF 2
ENDMDL
