MODEL 1
REMARK VINA RESULT:      -7.3      0.000      0.000
REMARK  Name = 
REMARK  12 active torsions:
REMARK  status: ('A' for Active; 'I' for Inactive)
REMARK    1  A    between atoms: C_2  and  C_3
REMARK    2  A    between atoms: C_3  and  N_4
REMARK    3  A    between atoms: C_7  and  C_8
REMARK    4  A    between atoms: N_10  and  C_11
REMARK    5  A    between atoms: C_11  and  C_18
REMARK    6  A    between atoms: C_12  and  C_13
REMARK    7  A    between atoms: C_13  and  O_15
REMARK    8  A    between atoms: O_15  and  C_16
REMARK    9  A    between atoms: C_16  and  C_17
REMARK   10  A    between atoms: C_18  and  O_20
REMARK   11  A    between atoms: O_20  and  C_21
REMARK   12  A    between atoms: C_21  and  C_22
REMARK                            x       y       z     vdW  Elec       q    Type
REMARK                         _______ _______ _______ _____ _____    ______ ____
ROOT
ATOM      1  N   UNL     1       6.584   4.771  17.452  0.00  0.00    +0.000 N 
ATOM      2  C   UNL     1       6.767   4.638  16.093  0.00  0.00    +0.000 A 
ATOM      3  O   UNL     1       7.804   4.926  15.504  0.00  0.00    +0.000 OA
ATOM      4  C   UNL     1       5.605   4.113  15.329  0.00  0.00    +0.000 A 
ATOM      5  C   UNL     1       5.727   3.968  13.846  0.00  0.00    +0.000 C 
ATOM      6  C   UNL     1       4.476   3.841  15.996  0.00  0.00    +0.000 A 
ATOM      7  N   UNL     1       4.374   3.922  17.372  0.00  0.00    +0.000 N 
ATOM      8  C   UNL     1       5.499   4.257  18.156  0.00  0.00    +0.000 A 
ATOM      9  O   UNL     1       5.548   4.059  19.370  0.00  0.00    +0.000 OA
ENDROOT
BRANCH   7  10
ATOM     10  C   UNL     1       3.103   3.692  17.961  0.00  0.00    +0.000 C 
ATOM     11  C   UNL     1       2.720   2.494  18.462  0.00  0.00    +0.000 C 
BRANCH  11  12
ATOM     12  C   UNL     1       1.378   2.133  18.979  0.00  0.00    +0.000 C 
ATOM     13  O   UNL     1       0.377   1.995  18.306  0.00  0.00    +0.000 OA
BRANCH  12  14
ATOM     14  O   UNL     1       1.495   1.924  20.318  0.00  0.00    +0.000 OA
BRANCH  14  15
ATOM     15  C   UNL     1       1.178   3.031  21.181  0.00  0.00    +0.000 C 
ATOM     16  C   UNL     1       2.370   3.735  21.808  0.00  0.00    +0.000 C 
ENDBRANCH  14  15
ENDBRANCH  12  14
ENDBRANCH  11  12
BRANCH  10  17
ATOM     17  C   UNL     1       2.128   4.853  18.063  0.00  0.00    +0.000 C 
ATOM     18  O   UNL     1       1.139   4.985  17.357  0.00  0.00    +0.000 OA
BRANCH  17  19
ATOM     19  O   UNL     1       2.520   5.713  19.042  0.00  0.00    +0.000 OA
BRANCH  19  20
ATOM     20  C   UNL     1       2.623   7.105  18.691  0.00  0.00    +0.000 C 
ATOM     21  C   UNL     1       3.655   7.413  17.613  0.00  0.00    +0.000 C 
ENDBRANCH  19  20
ENDBRANCH  17  19
ENDBRANCH  10  17
ENDBRANCH   7  10
BRANCH   1  22
ATOM     22  C   UNL     1       7.641   5.423  18.212  0.00  0.00    +0.000 C 
BRANCH  22  24
ATOM     23  C   UNL     1       7.674   8.048  17.670  0.00  0.00    +0.000 C 
ATOM     24  C   UNL     1       7.651   6.867  17.921  0.00  0.00    +0.000 C 
ENDBRANCH  22  24
ENDBRANCH   1  22
TORSDOF 9
ENDMDL
MODEL 2
REMARK VINA RESULT:      -7.2      1.894      6.327
REMARK  Name = 
REMARK  12 active torsions:
REMARK  status: ('A' for Active; 'I' for Inactive)
REMARK    1  A    between atoms: C_2  and  C_3
REMARK    2  A    between atoms: C_3  and  N_4
REMARK    3  A    between atoms: C_7  and  C_8
REMARK    4  A    between atoms: N_10  and  C_11
REMARK    5  A    between atoms: C_11  and  C_18
REMARK    6  A    between atoms: C_12  and  C_13
REMARK    7  A    between atoms: C_13  and  O_15
REMARK    8  A    between atoms: O_15  and  C_16
REMARK    9  A    between atoms: C_16  and  C_17
REMARK   10  A    between atoms: C_18  and  O_20
REMARK   11  A    between atoms: O_20  and  C_21
REMARK   12  A    between atoms: C_21  and  C_22
REMARK                            x       y       z     vdW  Elec       q    Type
REMARK                         _______ _______ _______ _____ _____    ______ ____
ROOT
ATOM      1  N   UNL     1       3.335   4.632  19.274  0.00  0.00    +0.000 N 
ATOM      2  C   UNL     1       2.608   5.802  19.322  0.00  0.00    +0.000 A 
ATOM      3  O   UNL     1       1.666   5.998  20.082  0.00  0.00    +0.000 OA
ATOM      4  C   UNL     1       3.024   6.865  18.371  0.00  0.00    +0.000 A 
ATOM      5  C   UNL     1       2.261   8.151  18.353  0.00  0.00    +0.000 C 
ATOM      6  C   UNL     1       4.033   6.607  17.530  0.00  0.00    +0.000 A 
ATOM      7  N   UNL     1       4.776   5.442  17.577  0.00  0.00    +0.000 N 
ATOM      8  C   UNL     1       4.526   4.472  18.571  0.00  0.00    +0.000 A 
ATOM      9  O   UNL     1       5.325   3.577  18.845  0.00  0.00    +0.000 OA
ENDROOT
BRANCH   7  10
ATOM     10  C   UNL     1       5.767   5.243  16.580  0.00  0.00    +0.000 C 
ATOM     11  C   UNL     1       5.476   5.012  15.278  0.00  0.00    +0.000 C 
BRANCH  11  12
ATOM     12  C   UNL     1       6.433   4.673  14.198  0.00  0.00    +0.000 C 
ATOM     13  O   UNL     1       7.391   5.343  13.869  0.00  0.00    +0.000 OA
BRANCH  12  14
ATOM     14  O   UNL     1       6.079   3.458  13.698  0.00  0.00    +0.000 OA
BRANCH  14  15
ATOM     15  C   UNL     1       5.993   3.341  12.267  0.00  0.00    +0.000 C 
ATOM     16  C   UNL     1       4.587   3.207  11.704  0.00  0.00    +0.000 C 
ENDBRANCH  14  15
ENDBRANCH  12  14
ENDBRANCH  11  12
BRANCH  10  17
ATOM     17  C   UNL     1       7.230   5.319  16.981  0.00  0.00    +0.000 C 
ATOM     18  O   UNL     1       7.990   4.362  16.994  0.00  0.00    +0.000 OA
BRANCH  17  19
ATOM     19  O   UNL     1       7.559   6.595  17.324  0.00  0.00    +0.000 OA
BRANCH  19  20
ATOM     20  C   UNL     1       8.175   6.791  18.609  0.00  0.00    +0.000 C 
ATOM     21  C   UNL     1       7.734   5.803  19.682  0.00  0.00    +0.000 C 
ENDBRANCH  19  20
ENDBRANCH  17  19
ENDBRANCH  10  17
ENDBRANCH   7  10
BRANCH   1  22
ATOM     22  C   UNL     1       2.865   3.515  20.079  0.00  0.00    +0.000 C 
BRANCH  22  24
ATOM     23  C   UNL     1       0.878   2.256  18.795  0.00  0.00    +0.000 C 
ATOM     24  C   UNL     1       1.771   2.817  19.382  0.00  0.00    +0.000 C 
ENDBRANCH  22  24
ENDBRANCH   1  22
TORSDOF 9
ENDMDL
MODEL 3
REMARK VINA RESULT:      -7.1      1.785      6.339
REMARK  Name = 
REMARK  12 active torsions:
REMARK  status: ('A' for Active; 'I' for Inactive)
REMARK    1  A    between atoms: C_2  and  C_3
REMARK    2  A    between atoms: C_3  and  N_4
REMARK    3  A    between atoms: C_7  and  C_8
REMARK    4  A    between atoms: N_10  and  C_11
REMARK    5  A    between atoms: C_11  and  C_18
REMARK    6  A    between atoms: C_12  and  C_13
REMARK    7  A    between atoms: C_13  and  O_15
REMARK    8  A    between atoms: O_15  and  C_16
REMARK    9  A    between atoms: C_16  and  C_17
REMARK   10  A    between atoms: C_18  and  O_20
REMARK   11  A    between atoms: O_20  and  C_21
REMARK   12  A    between atoms: C_21  and  C_22
REMARK                            x       y       z     vdW  Elec       q    Type
REMARK                         _______ _______ _______ _____ _____    ______ ____
ROOT
ATOM      1  N   UNL     1       2.885   4.523  18.462  0.00  0.00    +0.000 N 
ATOM      2  C   UNL     1       2.358   5.770  18.716  0.00  0.00    +0.000 A 
ATOM      3  O   UNL     1       1.360   5.973  19.400  0.00  0.00    +0.000 OA
ATOM      4  C   UNL     1       3.075   6.916  18.097  0.00  0.00    +0.000 A 
ATOM      5  C   UNL     1       2.542   8.296  18.312  0.00  0.00    +0.000 C 
ATOM      6  C   UNL     1       4.139   6.660  17.327  0.00  0.00    +0.000 A 
ATOM      7  N   UNL     1       4.668   5.393  17.168  0.00  0.00    +0.000 N 
ATOM      8  C   UNL     1       4.123   4.295  17.867  0.00  0.00    +0.000 A 
ATOM      9  O   UNL     1       4.718   3.226  17.999  0.00  0.00    +0.000 OA
ENDROOT
BRANCH   7  10
ATOM     10  C   UNL     1       5.747   5.230  16.259  0.00  0.00    +0.000 C 
ATOM     11  C   UNL     1       5.576   4.989  14.938  0.00  0.00    +0.000 C 
BRANCH  11  12
ATOM     12  C   UNL     1       6.634   4.685  13.944  0.00  0.00    +0.000 C 
ATOM     13  O   UNL     1       7.555   5.420  13.648  0.00  0.00    +0.000 OA
BRANCH  12  14
ATOM     14  O   UNL     1       6.419   3.424  13.483  0.00  0.00    +0.000 OA
BRANCH  14  15
ATOM     15  C   UNL     1       6.136   3.282  12.080  0.00  0.00    +0.000 C 
ATOM     16  C   UNL     1       4.662   3.251  11.709  0.00  0.00    +0.000 C 
ENDBRANCH  14  15
ENDBRANCH  12  14
ENDBRANCH  11  12
BRANCH  10  17
ATOM     17  C   UNL     1       7.167   5.361  16.783  0.00  0.00    +0.000 C 
ATOM     18  O   UNL     1       7.835   4.426  17.201  0.00  0.00    +0.000 OA
BRANCH  17  19
ATOM     19  O   UNL     1       7.574   6.658  16.723  0.00  0.00    +0.000 OA
BRANCH  19  20
ATOM     20  C   UNL     1       7.771   7.343  17.973  0.00  0.00    +0.000 C 
ATOM     21  C   UNL     1       8.104   8.824  17.841  0.00  0.00    +0.000 C 
ENDBRANCH  19  20
ENDBRANCH  17  19
ENDBRANCH  10  17
ENDBRANCH   7  10
BRANCH   1  22
ATOM     22  C   UNL     1       2.129   3.367  18.921  0.00  0.00    +0.000 C 
BRANCH  22  24
ATOM     23  C   UNL     1       2.345   3.135  21.583  0.00  0.00    +0.000 C 
ATOM     24  C   UNL     1       2.254   3.232  20.383  0.00  0.00    +0.000 C 
ENDBRANCH  22  24
ENDBRANCH   1  22
TORSDOF 9
ENDMDL
MODEL 4
REMARK VINA RESULT:      -6.7      0.877      1.094
REMARK  Name = 
REMARK  12 active torsions:
REMARK  status: ('A' for Active; 'I' for Inactive)
REMARK    1  A    between atoms: C_2  and  C_3
REMARK    2  A    between atoms: C_3  and  N_4
REMARK    3  A    between atoms: C_7  and  C_8
REMARK    4  A    between atoms: N_10  and  C_11
REMARK    5  A    between atoms: C_11  and  C_18
REMARK    6  A    between atoms: C_12  and  C_13
REMARK    7  A    between atoms: C_13  and  O_15
REMARK    8  A    between atoms: O_15  and  C_16
REMARK    9  A    between atoms: C_16  and  C_17
REMARK   10  A    between atoms: C_18  and  O_20
REMARK   11  A    between atoms: O_20  and  C_21
REMARK   12  A    between atoms: C_21  and  C_22
REMARK                            x       y       z     vdW  Elec       q    Type
REMARK                         _______ _______ _______ _____ _____    ______ ____
ROOT
ATOM      1  N   UNL     1       6.688   4.905  17.747  0.00  0.00    +0.000 N 
ATOM      2  C   UNL     1       6.843   4.649  16.402  0.00  0.00    +0.000 A 
ATOM      3  O   UNL     1       7.901   4.772  15.793  0.00  0.00    +0.000 OA
ATOM      4  C   UNL     1       5.623   4.202  15.681  0.00  0.00    +0.000 A 
ATOM      5  C   UNL     1       5.716   3.931  14.213  0.00  0.00    +0.000 C 
ATOM      6  C   UNL     1       4.477   4.111  16.366  0.00  0.00    +0.000 A 
ATOM      7  N   UNL     1       4.396   4.308  17.732  0.00  0.00    +0.000 N 
ATOM      8  C   UNL     1       5.557   4.573  18.488  0.00  0.00    +0.000 A 
ATOM      9  O   UNL     1       5.594   4.464  19.713  0.00  0.00    +0.000 OA
ENDROOT
BRANCH   7  10
ATOM     10  C   UNL     1       3.111   4.270  18.336  0.00  0.00    +0.000 C 
ATOM     11  C   UNL     1       2.384   3.136  18.465  0.00  0.00    +0.000 C 
BRANCH  11  12
ATOM     12  C   UNL     1       0.993   3.022  18.967  0.00  0.00    +0.000 C 
ATOM     13  O   UNL     1       0.071   2.498  18.375  0.00  0.00    +0.000 OA
BRANCH  12  14
ATOM     14  O   UNL     1       0.962   3.548  20.220  0.00  0.00    +0.000 OA
BRANCH  14  15
ATOM     15  C   UNL     1       1.272   2.660  21.309  0.00  0.00    +0.000 C 
ATOM     16  C   UNL     1       2.735   2.615  21.722  0.00  0.00    +0.000 C 
ENDBRANCH  14  15
ENDBRANCH  12  14
ENDBRANCH  11  12
BRANCH  10  17
ATOM     17  C   UNL     1       2.531   5.558  18.893  0.00  0.00    +0.000 C 
ATOM     18  O   UNL     1       2.429   5.807  20.086  0.00  0.00    +0.000 OA
BRANCH  17  19
ATOM     19  O   UNL     1       2.140   6.377  17.880  0.00  0.00    +0.000 OA
BRANCH  19  20
ATOM     20  C   UNL     1       2.731   7.688  17.830  0.00  0.00    +0.000 C 
ATOM     21  C   UNL     1       1.737   8.838  17.928  0.00  0.00    +0.000 C 
ENDBRANCH  19  20
ENDBRANCH  17  19
ENDBRANCH  10  17
ENDBRANCH   7  10
BRANCH   1  22
ATOM     22  C   UNL     1       7.817   5.490  18.454  0.00  0.00    +0.000 C 
BRANCH  22  24
ATOM     23  C   UNL     1       7.934   8.118  17.944  0.00  0.00    +0.000 C 
ATOM     24  C   UNL     1       7.889   6.936  18.180  0.00  0.00    +0.000 C 
ENDBRANCH  22  24
ENDBRANCH   1  22
TORSDOF 9
ENDMDL
MODEL 5
REMARK VINA RESULT:      -6.5      1.824      6.351
REMARK  Name = 
REMARK  12 active torsions:
REMARK  status: ('A' for Active; 'I' for Inactive)
REMARK    1  A    between atoms: C_2  and  C_3
REMARK    2  A    between atoms: C_3  and  N_4
REMARK    3  A    between atoms: C_7  and  C_8
REMARK    4  A    between atoms: N_10  and  C_11
REMARK    5  A    between atoms: C_11  and  C_18
REMARK    6  A    between atoms: C_12  and  C_13
REMARK    7  A    between atoms: C_13  and  O_15
REMARK    8  A    between atoms: O_15  and  C_16
REMARK    9  A    between atoms: C_16  and  C_17
REMARK   10  A    between atoms: C_18  and  O_20
REMARK   11  A    between atoms: O_20  and  C_21
REMARK   12  A    between atoms: C_21  and  C_22
REMARK                            x       y       z     vdW  Elec       q    Type
REMARK                         _______ _______ _______ _____ _____    ______ ____
ROOT
ATOM      1  N   UNL     1       2.868   4.352  18.557  0.00  0.00    +0.000 N 
ATOM      2  C   UNL     1       2.281   5.561  18.861  0.00  0.00    +0.000 A 
ATOM      3  O   UNL     1       1.292   5.688  19.575  0.00  0.00    +0.000 OA
ATOM      4  C   UNL     1       2.919   6.761  18.260  0.00  0.00    +0.000 A 
ATOM      5  C   UNL     1       2.318   8.104  18.530  0.00  0.00    +0.000 C 
ATOM      6  C   UNL     1       3.976   6.586  17.458  0.00  0.00    +0.000 A 
ATOM      7  N   UNL     1       4.568   5.355  17.248  0.00  0.00    +0.000 N 
ATOM      8  C   UNL     1       4.101   4.209  17.926  0.00  0.00    +0.000 A 
ATOM      9  O   UNL     1       4.756   3.171  18.010  0.00  0.00    +0.000 OA
ENDROOT
BRANCH   7  10
ATOM     10  C   UNL     1       5.630   5.278  16.308  0.00  0.00    +0.000 C 
ATOM     11  C   UNL     1       5.465   4.860  15.032  0.00  0.00    +0.000 C 
BRANCH  11  12
ATOM     12  C   UNL     1       6.530   4.632  14.024  0.00  0.00    +0.000 C 
ATOM     13  O   UNL     1       7.435   5.401  13.769  0.00  0.00    +0.000 OA
BRANCH  12  14
ATOM     14  O   UNL     1       6.341   3.394  13.497  0.00  0.00    +0.000 OA
BRANCH  14  15
ATOM     15  C   UNL     1       6.116   3.316  12.078  0.00  0.00    +0.000 C 
ATOM     16  C   UNL     1       4.668   3.134  11.652  0.00  0.00    +0.000 C 
ENDBRANCH  14  15
ENDBRANCH  12  14
ENDBRANCH  11  12
BRANCH  10  17
ATOM     17  C   UNL     1       7.019   5.713  16.743  0.00  0.00    +0.000 C 
ATOM     18  O   UNL     1       7.487   6.825  16.542  0.00  0.00    +0.000 OA
BRANCH  17  19
ATOM     19  O   UNL     1       7.658   4.691  17.376  0.00  0.00    +0.000 OA
BRANCH  19  20
ATOM     20  C   UNL     1       8.170   4.954  18.695  0.00  0.00    +0.000 C 
ATOM     21  C   UNL     1       7.169   5.589  19.651  0.00  0.00    +0.000 C 
ENDBRANCH  19  20
ENDBRANCH  17  19
ENDBRANCH  10  17
ENDBRANCH   7  10
BRANCH   1  22
ATOM     22  C   UNL     1       2.187   3.144  18.998  0.00  0.00    +0.000 C 
BRANCH  22  24
ATOM     23  C   UNL     1       2.660   2.728  21.604  0.00  0.00    +0.000 C 
ATOM     24  C   UNL     1       2.455   2.909  20.428  0.00  0.00    +0.000 C 
ENDBRANCH  22  24
ENDBRANCH   1  22
TORSDOF 9
ENDMDL
MODEL 6
REMARK VINA RESULT:      -6.3      1.970      6.418
REMARK  Name = 
REMARK  12 active torsions:
REMARK  status: ('A' for Active; 'I' for Inactive)
REMARK    1  A    between atoms: C_2  and  C_3
REMARK    2  A    between atoms: C_3  and  N_4
REMARK    3  A    between atoms: C_7  and  C_8
REMARK    4  A    between atoms: N_10  and  C_11
REMARK    5  A    between atoms: C_11  and  C_18
REMARK    6  A    between atoms: C_12  and  C_13
REMARK    7  A    between atoms: C_13  and  O_15
REMARK    8  A    between atoms: O_15  and  C_16
REMARK    9  A    between atoms: C_16  and  C_17
REMARK   10  A    between atoms: C_18  and  O_20
REMARK   11  A    between atoms: O_20  and  C_21
REMARK   12  A    between atoms: C_21  and  C_22
REMARK                            x       y       z     vdW  Elec       q    Type
REMARK                         _______ _______ _______ _____ _____    ______ ____
ROOT
ATOM      1  N   UNL     1       3.344   4.865  19.626  0.00  0.00    +0.000 N 
ATOM      2  C   UNL     1       2.646   6.052  19.561  0.00  0.00    +0.000 A 
ATOM      3  O   UNL     1       1.717   6.348  20.305  0.00  0.00    +0.000 OA
ATOM      4  C   UNL     1       3.079   7.002  18.504  0.00  0.00    +0.000 A 
ATOM      5  C   UNL     1       2.349   8.299  18.362  0.00  0.00    +0.000 C 
ATOM      6  C   UNL     1       4.073   6.634  17.686  0.00  0.00    +0.000 A 
ATOM      7  N   UNL     1       4.787   5.461  17.845  0.00  0.00    +0.000 N 
ATOM      8  C   UNL     1       4.523   4.603  18.934  0.00  0.00    +0.000 A 
ATOM      9  O   UNL     1       5.302   3.720  19.291  0.00  0.00    +0.000 OA
ENDROOT
BRANCH   7  10
ATOM     10  C   UNL     1       5.761   5.136  16.865  0.00  0.00    +0.000 C 
ATOM     11  C   UNL     1       5.458   4.875  15.572  0.00  0.00    +0.000 C 
BRANCH  11  12
ATOM     12  C   UNL     1       6.388   4.411  14.515  0.00  0.00    +0.000 C 
ATOM     13  O   UNL     1       6.435   3.285  14.062  0.00  0.00    +0.000 OA
BRANCH  12  14
ATOM     14  O   UNL     1       7.122   5.482  14.110  0.00  0.00    +0.000 OA
BRANCH  14  15
ATOM     15  C   UNL     1       7.754   5.390  12.821  0.00  0.00    +0.000 C 
ATOM     16  C   UNL     1       9.037   6.191  12.662  0.00  0.00    +0.000 C 
ENDBRANCH  14  15
ENDBRANCH  12  14
ENDBRANCH  11  12
BRANCH  10  17
ATOM     17  C   UNL     1       7.224   5.106  17.275  0.00  0.00    +0.000 C 
ATOM     18  O   UNL     1       7.988   4.184  17.029  0.00  0.00    +0.000 OA
BRANCH  17  19
ATOM     19  O   UNL     1       7.548   6.240  17.954  0.00  0.00    +0.000 OA
BRANCH  19  20
ATOM     20  C   UNL     1       7.639   7.458  17.192  0.00  0.00    +0.000 C 
ATOM     21  C   UNL     1       8.186   8.651  17.964  0.00  0.00    +0.000 C 
ENDBRANCH  19  20
ENDBRANCH  17  19
ENDBRANCH  10  17
ENDBRANCH   7  10
BRANCH   1  22
ATOM     22  C   UNL     1       2.854   3.847  20.544  0.00  0.00    +0.000 C 
BRANCH  22  24
ATOM     23  C   UNL     1       0.866   2.455  19.406  0.00  0.00    +0.000 C 
ATOM     24  C   UNL     1       1.768   3.079  19.911  0.00  0.00    +0.000 C 
ENDBRANCH  22  24
ENDBRANCH   1  22
TORSDOF 9
ENDMDL
MODEL 7
REMARK VINA RESULT:      -6.2      1.747      6.159
REMARK  Name = 
REMARK  12 active torsions:
REMARK  status: ('A' for Active; 'I' for Inactive)
REMARK    1  A    between atoms: C_2  and  C_3
REMARK    2  A    between atoms: C_3  and  N_4
REMARK    3  A    between atoms: C_7  and  C_8
REMARK    4  A    between atoms: N_10  and  C_11
REMARK    5  A    between atoms: C_11  and  C_18
REMARK    6  A    between atoms: C_12  and  C_13
REMARK    7  A    between atoms: C_13  and  O_15
REMARK    8  A    between atoms: O_15  and  C_16
REMARK    9  A    between atoms: C_16  and  C_17
REMARK   10  A    between atoms: C_18  and  O_20
REMARK   11  A    between atoms: O_20  and  C_21
REMARK   12  A    between atoms: C_21  and  C_22
REMARK                            x       y       z     vdW  Elec       q    Type
REMARK                         _______ _______ _______ _____ _____    ______ ____
ROOT
ATOM      1  N   UNL     1       2.934   5.969  18.868  0.00  0.00    +0.000 N 
ATOM      2  C   UNL     1       2.251   4.802  19.132  0.00  0.00    +0.000 A 
ATOM      3  O   UNL     1       1.262   4.728  19.854  0.00  0.00    +0.000 OA
ATOM      4  C   UNL     1       2.785   3.576  18.482  0.00  0.00    +0.000 A 
ATOM      5  C   UNL     1       2.106   2.270  18.745  0.00  0.00    +0.000 C 
ATOM      6  C   UNL     1       3.886   3.684  17.728  0.00  0.00    +0.000 A 
ATOM      7  N   UNL     1       4.486   4.895  17.438  0.00  0.00    +0.000 N 
ATOM      8  C   UNL     1       3.921   6.104  17.896  0.00  0.00    +0.000 A 
ATOM      9  O   UNL     1       4.229   7.202  17.433  0.00  0.00    +0.000 OA
ENDROOT
BRANCH   7  10
ATOM     10  C   UNL     1       5.699   4.878  16.699  0.00  0.00    +0.000 C 
ATOM     11  C   UNL     1       5.748   4.943  15.348  0.00  0.00    +0.000 C 
BRANCH  11  12
ATOM     12  C   UNL     1       6.951   4.808  14.492  0.00  0.00    +0.000 C 
ATOM     13  O   UNL     1       7.849   5.621  14.406  0.00  0.00    +0.000 OA
BRANCH  12  14
ATOM     14  O   UNL     1       6.892   3.593  13.884  0.00  0.00    +0.000 OA
BRANCH  14  15
ATOM     15  C   UNL     1       6.157   3.517  12.650  0.00  0.00    +0.000 C 
ATOM     16  C   UNL     1       6.958   3.804  11.390  0.00  0.00    +0.000 C 
ENDBRANCH  14  15
ENDBRANCH  12  14
ENDBRANCH  11  12
BRANCH  10  17
ATOM     17  C   UNL     1       7.013   4.812  17.458  0.00  0.00    +0.000 C 
ATOM     18  O   UNL     1       7.960   4.110  17.134  0.00  0.00    +0.000 OA
BRANCH  17  19
ATOM     19  O   UNL     1       6.975   5.637  18.540  0.00  0.00    +0.000 OA
BRANCH  19  20
ATOM     20  C   UNL     1       7.905   6.734  18.563  0.00  0.00    +0.000 C 
ATOM     21  C   UNL     1       7.652   7.803  17.507  0.00  0.00    +0.000 C 
ENDBRANCH  19  20
ENDBRANCH  17  19
ENDBRANCH  10  17
ENDBRANCH   7  10
BRANCH   1  22
ATOM     22  C   UNL     1       2.537   7.161  19.604  0.00  0.00    +0.000 C 
BRANCH  22  24
ATOM     23  C   UNL     1       1.491   8.973  17.929  0.00  0.00    +0.000 C 
ATOM     24  C   UNL     1       1.971   8.158  18.678  0.00  0.00    +0.000 C 
ENDBRANCH  22  24
ENDBRANCH   1  22
TORSDOF 9
ENDMDL
MODEL 8
REMARK VINA RESULT:      -6.2      1.701      3.058
REMARK  Name = 
REMARK  12 active torsions:
REMARK  status: ('A' for Active; 'I' for Inactive)
REMARK    1  A    between atoms: C_2  and  C_3
REMARK    2  A    between atoms: C_3  and  N_4
REMARK    3  A    between atoms: C_7  and  C_8
REMARK    4  A    between atoms: N_10  and  C_11
REMARK    5  A    between atoms: C_11  and  C_18
REMARK    6  A    between atoms: C_12  and  C_13
REMARK    7  A    between atoms: C_13  and  O_15
REMARK    8  A    between atoms: O_15  and  C_16
REMARK    9  A    between atoms: C_16  and  C_17
REMARK   10  A    between atoms: C_18  and  O_20
REMARK   11  A    between atoms: O_20  and  C_21
REMARK   12  A    between atoms: C_21  and  C_22
REMARK                            x       y       z     vdW  Elec       q    Type
REMARK                         _______ _______ _______ _____ _____    ______ ____
ROOT
ATOM      1  N   UNL     1       6.878   5.623  17.816  0.00  0.00    +0.000 N 
ATOM      2  C   UNL     1       6.787   5.400  16.460  0.00  0.00    +0.000 A 
ATOM      3  O   UNL     1       7.673   5.668  15.655  0.00  0.00    +0.000 OA
ATOM      4  C   UNL     1       5.514   4.801  15.984  0.00  0.00    +0.000 A 
ATOM      5  C   UNL     1       5.339   4.556  14.519  0.00  0.00    +0.000 C 
ATOM      6  C   UNL     1       4.552   4.553  16.882  0.00  0.00    +0.000 A 
ATOM      7  N   UNL     1       4.727   4.726  18.242  0.00  0.00    +0.000 N 
ATOM      8  C   UNL     1       5.974   5.137  18.758  0.00  0.00    +0.000 A 
ATOM      9  O   UNL     1       6.274   5.024  19.946  0.00  0.00    +0.000 OA
ENDROOT
BRANCH   7  10
ATOM     10  C   UNL     1       3.609   4.512  19.090  0.00  0.00    +0.000 C 
ATOM     11  C   UNL     1       2.676   5.460  19.345  0.00  0.00    +0.000 C 
BRANCH  11  12
ATOM     12  C   UNL     1       1.551   5.367  20.307  0.00  0.00    +0.000 C 
ATOM     13  O   UNL     1       0.725   4.478  20.340  0.00  0.00    +0.000 OA
BRANCH  12  14
ATOM     14  O   UNL     1       1.657   6.413  21.169  0.00  0.00    +0.000 OA
BRANCH  14  15
ATOM     15  C   UNL     1       1.652   7.733  20.599  0.00  0.00    +0.000 C 
ATOM     16  C   UNL     1       0.889   8.785  21.387  0.00  0.00    +0.000 C 
ENDBRANCH  14  15
ENDBRANCH  12  14
ENDBRANCH  11  12
BRANCH  10  17
ATOM     17  C   UNL     1       3.427   3.144  19.724  0.00  0.00    +0.000 C 
ATOM     18  O   UNL     1       3.370   2.946  20.929  0.00  0.00    +0.000 OA
BRANCH  17  19
ATOM     19  O   UNL     1       3.344   2.185  18.762  0.00  0.00    +0.000 OA
BRANCH  19  20
ATOM     20  C   UNL     1       2.168   2.186  17.933  0.00  0.00    +0.000 C 
ATOM     21  C   UNL     1       0.858   2.000  18.688  0.00  0.00    +0.000 C 
ENDBRANCH  19  20
ENDBRANCH  17  19
ENDBRANCH  10  17
ENDBRANCH   7  10
BRANCH   1  22
ATOM     22  C   UNL     1       8.043   6.347  18.303  0.00  0.00    +0.000 C 
BRANCH  22  24
ATOM     23  C   UNL     1       7.802   8.954  17.729  0.00  0.00    +0.000 C 
ATOM     24  C   UNL     1       7.917   7.778  17.979  0.00  0.00    +0.000 C 
ENDBRANCH  22  24
ENDBRANCH   1  22
TORSDOF 9
ENDMDL
MODEL 9
REMARK VINA RESULT:      -6.1      1.392      1.965
REMARK  Name = 
REMARK  12 active torsions:
REMARK  status: ('A' for Active; 'I' for Inactive)
REMARK    1  A    between atoms: C_2  and  C_3
REMARK    2  A    between atoms: C_3  and  N_4
REMARK    3  A    between atoms: C_7  and  C_8
REMARK    4  A    between atoms: N_10  and  C_11
REMARK    5  A    between atoms: C_11  and  C_18
REMARK    6  A    between atoms: C_12  and  C_13
REMARK    7  A    between atoms: C_13  and  O_15
REMARK    8  A    between atoms: O_15  and  C_16
REMARK    9  A    between atoms: C_16  and  C_17
REMARK   10  A    between atoms: C_18  and  O_20
REMARK   11  A    between atoms: O_20  and  C_21
REMARK   12  A    between atoms: C_21  and  C_22
REMARK                            x       y       z     vdW  Elec       q    Type
REMARK                         _______ _______ _______ _____ _____    ______ ____
ROOT
ATOM      1  N   UNL     1       7.057   5.847  17.958  0.00  0.00    +0.000 N 
ATOM      2  C   UNL     1       6.917   5.648  16.602  0.00  0.00    +0.000 A 
ATOM      3  O   UNL     1       7.710   6.055  15.759  0.00  0.00    +0.000 OA
ATOM      4  C   UNL     1       5.710   4.892  16.177  0.00  0.00    +0.000 A 
ATOM      5  C   UNL     1       5.484   4.662  14.717  0.00  0.00    +0.000 C 
ATOM      6  C   UNL     1       4.846   4.492  17.118  0.00  0.00    +0.000 A 
ATOM      7  N   UNL     1       5.076   4.653  18.471  0.00  0.00    +0.000 N 
ATOM      8  C   UNL     1       6.284   5.219  18.931  0.00  0.00    +0.000 A 
ATOM      9  O   UNL     1       6.667   5.118  20.097  0.00  0.00    +0.000 OA
ENDROOT
BRANCH   7  10
ATOM     10  C   UNL     1       4.049   4.267  19.372  0.00  0.00    +0.000 C 
ATOM     11  C   UNL     1       3.950   3.024  19.899  0.00  0.00    +0.000 C 
BRANCH  11  12
ATOM     12  C   UNL     1       2.850   2.499  20.744  0.00  0.00    +0.000 C 
ATOM     13  O   UNL     1       2.754   2.646  21.946  0.00  0.00    +0.000 OA
BRANCH  12  14
ATOM     14  O   UNL     1       1.953   1.889  19.924  0.00  0.00    +0.000 OA
BRANCH  14  15
ATOM     15  C   UNL     1       0.733   2.600  19.648  0.00  0.00    +0.000 C 
ATOM     16  C   UNL     1       0.622   3.194  18.253  0.00  0.00    +0.000 C 
ENDBRANCH  14  15
ENDBRANCH  12  14
ENDBRANCH  11  12
BRANCH  10  17
ATOM     17  C   UNL     1       3.023   5.304  19.795  0.00  0.00    +0.000 C 
ATOM     18  O   UNL     1       2.683   5.504  20.952  0.00  0.00    +0.000 OA
BRANCH  17  19
ATOM     19  O   UNL     1       2.541   5.962  18.705  0.00  0.00    +0.000 OA
BRANCH  19  20
ATOM     20  C   UNL     1       2.412   7.392  18.806  0.00  0.00    +0.000 C 
ATOM     21  C   UNL     1       3.031   8.169  17.651  0.00  0.00    +0.000 C 
ENDBRANCH  19  20
ENDBRANCH  17  19
ENDBRANCH  10  17
ENDBRANCH   7  10
BRANCH   1  22
ATOM     22  C   UNL     1       8.140   6.711  18.403  0.00  0.00    +0.000 C 
BRANCH  22  24
ATOM     23  C   UNL     1       7.720   9.226  17.575  0.00  0.00    +0.000 C 
ATOM     24  C   UNL     1       7.899   8.093  17.950  0.00  0.00    +0.000 C 
ENDBRANCH  22  24
ENDBRANCH   1  22
TORSDOF 9
ENDMDL
