MODEL 1
REMARK VINA RESULT:      -8.3      0.000      0.000
REMARK  Name = 
REMARK  7 active torsions:
REMARK  status: ('A' for Active; 'I' for Inactive)
REMARK    1  A    between atoms: C_1  and  O_2
REMARK    2  A    between atoms: O_2  and  C_3
REMARK    3  A    between atoms: C_8  and  C_9
REMARK    4  A    between atoms: N_15  and  C_16
REMARK    5  A    between atoms: C_16  and  C_17
REMARK    6  A    between atoms: C_21  and  C_22
REMARK    7  A    between atoms: C_25  and  C_26
REMARK                            x       y       z     vdW  Elec       q    Type
REMARK                         _______ _______ _______ _____ _____    ______ ____
ROOT
ATOM      1  C   UNL     1       2.860   4.255  18.604  0.00  0.00    +0.000 C 
ATOM      2  C   UNL     1       1.700   3.313  18.283  0.00  0.00    +0.000 C 
ATOM      3  C   UNL     1       2.233   2.116  17.533  0.00  0.00    +0.000 C 
ATOM      4  C   UNL     1       3.196   1.366  18.430  0.00  0.00    +0.000 C 
ATOM      5  C   UNL     1       4.172   2.218  19.230  0.00  0.00    +0.000 C 
ATOM      6  O   UNL     1       5.022   1.637  19.907  0.00  0.00    +0.000 OA
ATOM      7  N   UNL     1       4.057   3.597  19.151  0.00  0.00    +0.000 N 
ENDROOT
BRANCH   1  13
ATOM      8  C   UNL     1       1.535   5.295  20.586  0.00  0.00    +0.000 A 
ATOM      9  C   UNL     1       1.095   6.431  21.278  0.00  0.00    +0.000 A 
ATOM     10  C   UNL     1       1.283   7.703  20.749  0.00  0.00    +0.000 A 
ATOM     11  C   UNL     1       1.934   7.850  19.534  0.00  0.00    +0.000 A 
ATOM     12  C   UNL     1       2.472   6.733  18.882  0.00  0.00    +0.000 A 
ATOM     13  C   UNL     1       2.300   5.435  19.405  0.00  0.00    +0.000 A 
ATOM     14  O   UNL     1       3.137   6.844  17.682  0.00  0.00    +0.000 OA
ATOM     15  C   UNL     1       3.466   8.196  17.356  0.00  0.00    +0.000 C 
ATOM     16  C   UNL     1       2.282   9.106  17.624  0.00  0.00    +0.000 C 
ATOM     17  O   UNL     1       1.989   9.123  19.026  0.00  0.00    +0.000 OA
BRANCH   8  19
ATOM     18  C   UNL     1       2.157   3.505  21.982  0.00  0.00    +0.000 C 
ATOM     19  O   UNL     1       1.235   4.032  21.024  0.00  0.00    +0.000 OA
ENDBRANCH   8  19
ENDBRANCH   1  13
BRANCH   7  20
ATOM     20  C   UNL     1       5.071   4.486  19.725  0.00  0.00    +0.000 C 
BRANCH  20  21
ATOM     21  C   UNL     1       5.981   5.233  18.784  0.00  0.00    +0.000 A 
ATOM     22  C   UNL     1       6.903   6.184  19.228  0.00  0.00    +0.000 A 
ATOM     23  C   UNL     1       7.809   6.752  18.329  0.00  0.00    +0.000 A 
ATOM     24  C   UNL     1       7.795   6.377  16.980  0.00  0.00    +0.000 A 
ATOM     25  C   UNL     1       6.853   5.457  16.505  0.00  0.00    +0.000 A 
ATOM     26  C   UNL     1       5.955   4.898  17.421  0.00  0.00    +0.000 A 
BRANCH  25  27
ATOM     27  C   UNL     1       6.858   5.038  15.096  0.00  0.00    +0.000 A 
ATOM     28  N   UNL     1       7.722   5.459  14.191  0.00  0.00    +0.000 NA
ATOM     29  C   UNL     1       7.504   4.808  12.992  0.00  0.00    +0.000 A 
ATOM     30  C   UNL     1       6.450   3.920  12.976  0.00  0.00    +0.000 A 
ATOM     31  C   UNL     1       5.945   3.059  11.877  0.00  0.00    +0.000 C 
ATOM     32  S   UNL     1       5.693   3.907  14.507  0.00  0.00    +0.000 S 
ENDBRANCH  25  27
ENDBRANCH  20  21
ENDBRANCH   7  20
TORSDOF 5
ENDMDL
MODEL 2
REMARK VINA RESULT:      -7.2      7.178     11.072
REMARK  Name = 
REMARK  7 active torsions:
REMARK  status: ('A' for Active; 'I' for Inactive)
REMARK    1  A    between atoms: C_1  and  O_2
REMARK    2  A    between atoms: O_2  and  C_3
REMARK    3  A    between atoms: C_8  and  C_9
REMARK    4  A    between atoms: N_15  and  C_16
REMARK    5  A    between atoms: C_16  and  C_17
REMARK    6  A    between atoms: C_21  and  C_22
REMARK    7  A    between atoms: C_25  and  C_26
REMARK                            x       y       z     vdW  Elec       q    Type
REMARK                         _______ _______ _______ _____ _____    ______ ____
ROOT
ATOM      1  C   UNL     1      -0.241  10.868  21.205  0.00  0.00    +0.000 C 
ATOM      2  C   UNL     1       0.568  10.067  22.226  0.00  0.00    +0.000 C 
ATOM      3  C   UNL     1       0.628   8.626  21.783  0.00  0.00    +0.000 C 
ATOM      4  C   UNL     1       1.360   8.550  20.459  0.00  0.00    +0.000 C 
ATOM      5  C   UNL     1       1.001   9.614  19.430  0.00  0.00    +0.000 C 
ATOM      6  O   UNL     1       1.517   9.533  18.314  0.00  0.00    +0.000 OA
ATOM      7  N   UNL     1       0.111  10.610  19.799  0.00  0.00    +0.000 N 
ENDROOT
BRANCH   1  13
ATOM      8  C   UNL     1       0.849  13.213  21.483  0.00  0.00    +0.000 A 
ATOM      9  C   UNL     1       0.745  14.550  21.888  0.00  0.00    +0.000 A 
ATOM     10  C   UNL     1      -0.374  14.999  22.579  0.00  0.00    +0.000 A 
ATOM     11  C   UNL     1      -1.410  14.119  22.852  0.00  0.00    +0.000 A 
ATOM     12  C   UNL     1      -1.367  12.807  22.362  0.00  0.00    +0.000 A 
ATOM     13  C   UNL     1      -0.245  12.333  21.652  0.00  0.00    +0.000 A 
ATOM     14  O   UNL     1      -2.384  11.911  22.602  0.00  0.00    +0.000 OA
ATOM     15  C   UNL     1      -3.563  12.537  23.113  0.00  0.00    +0.000 C 
ATOM     16  C   UNL     1      -3.202  13.539  24.192  0.00  0.00    +0.000 C 
ATOM     17  O   UNL     1      -2.431  14.606  23.627  0.00  0.00    +0.000 OA
BRANCH   8  19
ATOM     18  C   UNL     1       2.790  13.703  20.244  0.00  0.00    +0.000 C 
ATOM     19  O   UNL     1       2.001  12.723  20.927  0.00  0.00    +0.000 OA
ENDBRANCH   8  19
ENDBRANCH   1  13
BRANCH   7  20
ATOM     20  C   UNL     1      -0.440  11.550  18.818  0.00  0.00    +0.000 C 
BRANCH  20  21
ATOM     21  C   UNL     1      -1.710  11.172  18.100  0.00  0.00    +0.000 A 
ATOM     22  C   UNL     1      -1.760  10.145  17.154  0.00  0.00    +0.000 A 
ATOM     23  C   UNL     1      -2.987   9.750  16.615  0.00  0.00    +0.000 A 
ATOM     24  C   UNL     1      -4.170  10.383  17.014  0.00  0.00    +0.000 A 
ATOM     25  C   UNL     1      -4.139  11.442  17.929  0.00  0.00    +0.000 A 
ATOM     26  C   UNL     1      -2.900  11.822  18.460  0.00  0.00    +0.000 A 
BRANCH  25  27
ATOM     27  C   UNL     1      -5.384  12.086  18.373  0.00  0.00    +0.000 A 
ATOM     28  N   UNL     1      -6.518  12.072  17.698  0.00  0.00    +0.000 NA
ATOM     29  C   UNL     1      -7.510  12.692  18.432  0.00  0.00    +0.000 A 
ATOM     30  C   UNL     1      -7.121  13.211  19.649  0.00  0.00    +0.000 A 
ATOM     31  C   UNL     1      -7.916  13.925  20.679  0.00  0.00    +0.000 C 
ATOM     32  S   UNL     1      -5.453  12.929  19.879  0.00  0.00    +0.000 S 
ENDBRANCH  25  27
ENDBRANCH  20  21
ENDBRANCH   7  20
TORSDOF 5
ENDMDL
MODEL 3
REMARK VINA RESULT:      -6.7      3.509      7.181
REMARK  Name = 
REMARK  7 active torsions:
REMARK  status: ('A' for Active; 'I' for Inactive)
REMARK    1  A    between atoms: C_1  and  O_2
REMARK    2  A    between atoms: O_2  and  C_3
REMARK    3  A    between atoms: C_8  and  C_9
REMARK    4  A    between atoms: N_15  and  C_16
REMARK    5  A    between atoms: C_16  and  C_17
REMARK    6  A    between atoms: C_21  and  C_22
REMARK    7  A    between atoms: C_25  and  C_26
REMARK                            x       y       z     vdW  Elec       q    Type
REMARK                         _______ _______ _______ _____ _____    ______ ____
ROOT
ATOM      1  C   UNL     1       3.601   4.404  19.835  0.00  0.00    +0.000 C 
ATOM      2  C   UNL     1       3.516   2.925  20.210  0.00  0.00    +0.000 C 
ATOM      3  C   UNL     1       2.763   2.791  21.511  0.00  0.00    +0.000 C 
ATOM      4  C   UNL     1       1.348   3.293  21.312  0.00  0.00    +0.000 C 
ATOM      5  C   UNL     1       1.197   4.581  20.513  0.00  0.00    +0.000 C 
ATOM      6  O   UNL     1       0.068   5.060  20.401  0.00  0.00    +0.000 OA
ATOM      7  N   UNL     1       2.336   5.146  19.959  0.00  0.00    +0.000 N 
ENDROOT
BRANCH   1  13
ATOM      8  C   UNL     1       3.744   4.153  17.249  0.00  0.00    +0.000 A 
ATOM      9  C   UNL     1       4.467   4.316  16.061  0.00  0.00    +0.000 A 
ATOM     10  C   UNL     1       5.804   4.696  16.088  0.00  0.00    +0.000 A 
ATOM     11  C   UNL     1       6.423   4.939  17.305  0.00  0.00    +0.000 A 
ATOM     12  C   UNL     1       5.685   4.883  18.495  0.00  0.00    +0.000 A 
ATOM     13  C   UNL     1       4.326   4.507  18.489  0.00  0.00    +0.000 A 
ATOM     14  O   UNL     1       6.263   5.132  19.719  0.00  0.00    +0.000 OA
ATOM     15  C   UNL     1       7.557   5.727  19.607  0.00  0.00    +0.000 C 
ATOM     16  C   UNL     1       8.374   5.018  18.544  0.00  0.00    +0.000 C 
ATOM     17  O   UNL     1       7.767   5.206  17.260  0.00  0.00    +0.000 OA
BRANCH   8  19
ATOM     18  C   UNL     1       2.404   2.223  17.383  0.00  0.00    +0.000 C 
ATOM     19  O   UNL     1       2.471   3.646  17.247  0.00  0.00    +0.000 OA
ENDBRANCH   8  19
ENDBRANCH   1  13
BRANCH   7  20
ATOM     20  C   UNL     1       2.312   6.479  19.349  0.00  0.00    +0.000 C 
BRANCH  20  21
ATOM     21  C   UNL     1       1.773   7.627  20.163  0.00  0.00    +0.000 A 
ATOM     22  C   UNL     1       1.868   7.670  21.556  0.00  0.00    +0.000 A 
ATOM     23  C   UNL     1       1.469   8.815  22.250  0.00  0.00    +0.000 A 
ATOM     24  C   UNL     1       0.967   9.922  21.555  0.00  0.00    +0.000 A 
ATOM     25  C   UNL     1       0.824   9.886  20.164  0.00  0.00    +0.000 A 
ATOM     26  C   UNL     1       1.231   8.731  19.486  0.00  0.00    +0.000 A 
BRANCH  25  27
ATOM     27  C   UNL     1       0.327  11.059  19.430  0.00  0.00    +0.000 A 
ATOM     28  N   UNL     1      -0.698  11.045  18.598  0.00  0.00    +0.000 NA
ATOM     29  C   UNL     1      -0.956  12.325  18.146  0.00  0.00    +0.000 A 
ATOM     30  C   UNL     1      -0.103  13.306  18.606  0.00  0.00    +0.000 A 
ATOM     31  C   UNL     1      -0.093  14.765  18.333  0.00  0.00    +0.000 C 
ATOM     32  S   UNL     1       1.073  12.605  19.626  0.00  0.00    +0.000 S 
ENDBRANCH  25  27
ENDBRANCH  20  21
ENDBRANCH   7  20
TORSDOF 5
ENDMDL
MODEL 4
REMARK VINA RESULT:      -6.7      3.449      7.068
REMARK  Name = 
REMARK  7 active torsions:
REMARK  status: ('A' for Active; 'I' for Inactive)
REMARK    1  A    between atoms: C_1  and  O_2
REMARK    2  A    between atoms: O_2  and  C_3
REMARK    3  A    between atoms: C_8  and  C_9
REMARK    4  A    between atoms: N_15  and  C_16
REMARK    5  A    between atoms: C_16  and  C_17
REMARK    6  A    between atoms: C_21  and  C_22
REMARK    7  A    between atoms: C_25  and  C_26
REMARK                            x       y       z     vdW  Elec       q    Type
REMARK                         _______ _______ _______ _____ _____    ______ ____
ROOT
ATOM      1  C   UNL     1       3.665   4.358  19.881  0.00  0.00    +0.000 C 
ATOM      2  C   UNL     1       3.491   2.882  20.238  0.00  0.00    +0.000 C 
ATOM      3  C   UNL     1       2.735   2.777  21.540  0.00  0.00    +0.000 C 
ATOM      4  C   UNL     1       1.353   3.368  21.353  0.00  0.00    +0.000 C 
ATOM      5  C   UNL     1       1.279   4.673  20.571  0.00  0.00    +0.000 C 
ATOM      6  O   UNL     1       0.181   5.222  20.470  0.00  0.00    +0.000 OA
ATOM      7  N   UNL     1       2.448   5.175  20.020  0.00  0.00    +0.000 N 
ENDROOT
BRANCH   1  13
ATOM      8  C   UNL     1       3.808   4.060  17.301  0.00  0.00    +0.000 A 
ATOM      9  C   UNL     1       4.533   4.199  16.110  0.00  0.00    +0.000 A 
ATOM     10  C   UNL     1       5.870   4.577  16.131  0.00  0.00    +0.000 A 
ATOM     11  C   UNL     1       6.489   4.841  17.344  0.00  0.00    +0.000 A 
ATOM     12  C   UNL     1       5.750   4.808  18.533  0.00  0.00    +0.000 A 
ATOM     13  C   UNL     1       4.390   4.435  18.534  0.00  0.00    +0.000 A 
ATOM     14  O   UNL     1       6.328   5.078  19.753  0.00  0.00    +0.000 OA
ATOM     15  C   UNL     1       7.624   5.669  19.631  0.00  0.00    +0.000 C 
ATOM     16  C   UNL     1       8.439   4.938  18.581  0.00  0.00    +0.000 C 
ATOM     17  O   UNL     1       7.834   5.104  17.293  0.00  0.00    +0.000 OA
BRANCH   8  19
ATOM     18  C   UNL     1       2.466   2.128  17.382  0.00  0.00    +0.000 C 
ATOM     19  O   UNL     1       2.535   3.555  17.307  0.00  0.00    +0.000 OA
ENDBRANCH   8  19
ENDBRANCH   1  13
BRANCH   7  20
ATOM     20  C   UNL     1       2.504   6.514  19.428  0.00  0.00    +0.000 C 
BRANCH  20  21
ATOM     21  C   UNL     1       1.750   7.629  20.109  0.00  0.00    +0.000 A 
ATOM     22  C   UNL     1       1.931   7.941  21.459  0.00  0.00    +0.000 A 
ATOM     23  C   UNL     1       1.304   9.063  22.006  0.00  0.00    +0.000 A 
ATOM     24  C   UNL     1       0.489   9.876  21.209  0.00  0.00    +0.000 A 
ATOM     25  C   UNL     1       0.261   9.559  19.865  0.00  0.00    +0.000 A 
ATOM     26  C   UNL     1       0.899   8.431  19.334  0.00  0.00    +0.000 A 
BRANCH  25  27
ATOM     27  C   UNL     1      -0.568  10.429  19.019  0.00  0.00    +0.000 A 
ATOM     28  N   UNL     1      -0.557  11.748  19.062  0.00  0.00    +0.000 NA
ATOM     29  C   UNL     1      -1.385  12.259  18.081  0.00  0.00    +0.000 A 
ATOM     30  C   UNL     1      -2.054  11.327  17.317  0.00  0.00    +0.000 A 
ATOM     31  C   UNL     1      -3.002  11.519  16.191  0.00  0.00    +0.000 C 
ATOM     32  S   UNL     1      -1.648   9.757  17.852  0.00  0.00    +0.000 S 
ENDBRANCH  25  27
ENDBRANCH  20  21
ENDBRANCH   7  20
TORSDOF 5
ENDMDL
MODEL 5
REMARK VINA RESULT:      -6.4      7.099     10.900
REMARK  Name = 
REMARK  7 active torsions:
REMARK  status: ('A' for Active; 'I' for Inactive)
REMARK    1  A    between atoms: C_1  and  O_2
REMARK    2  A    between atoms: O_2  and  C_3
REMARK    3  A    between atoms: C_8  and  C_9
REMARK    4  A    between atoms: N_15  and  C_16
REMARK    5  A    between atoms: C_16  and  C_17
REMARK    6  A    between atoms: C_21  and  C_22
REMARK    7  A    between atoms: C_25  and  C_26
REMARK                            x       y       z     vdW  Elec       q    Type
REMARK                         _______ _______ _______ _____ _____    ______ ____
ROOT
ATOM      1  C   UNL     1      -0.313  10.794  21.259  0.00  0.00    +0.000 C 
ATOM      2  C   UNL     1       0.516   9.973  22.245  0.00  0.00    +0.000 C 
ATOM      3  C   UNL     1       0.654   8.565  21.718  0.00  0.00    +0.000 C 
ATOM      4  C   UNL     1       1.411   8.605  20.406  0.00  0.00    +0.000 C 
ATOM      5  C   UNL     1       1.018   9.711  19.436  0.00  0.00    +0.000 C 
ATOM      6  O   UNL     1       1.556   9.723  18.328  0.00  0.00    +0.000 OA
ATOM      7  N   UNL     1       0.074  10.639  19.847  0.00  0.00    +0.000 N 
ENDROOT
BRANCH   1  13
ATOM      8  C   UNL     1      -1.532  12.764  22.442  0.00  0.00    +0.000 A 
ATOM      9  C   UNL     1      -1.507  14.075  22.934  0.00  0.00    +0.000 A 
ATOM     10  C   UNL     1      -0.426  14.911  22.678  0.00  0.00    +0.000 A 
ATOM     11  C   UNL     1       0.650  14.434  21.945  0.00  0.00    +0.000 A 
ATOM     12  C   UNL     1       0.686  13.095  21.536  0.00  0.00    +0.000 A 
ATOM     13  C   UNL     1      -0.396  12.228  21.793  0.00  0.00    +0.000 A 
ATOM     14  O   UNL     1       1.745  12.583  20.820  0.00  0.00    +0.000 OA
ATOM     15  C   UNL     1       2.879  13.453  20.815  0.00  0.00    +0.000 C 
ATOM     16  C   UNL     1       2.445  14.884  20.559  0.00  0.00    +0.000 C 
ATOM     17  O   UNL     1       1.629  15.346  21.642  0.00  0.00    +0.000 OA
BRANCH   8  19
ATOM     18  C   UNL     1      -3.706  12.569  23.322  0.00  0.00    +0.000 C 
ATOM     19  O   UNL     1      -2.646  11.976  22.566  0.00  0.00    +0.000 OA
ENDBRANCH   8  19
ENDBRANCH   1  13
BRANCH   7  20
ATOM     20  C   UNL     1      -0.505  11.610  18.914  0.00  0.00    +0.000 C 
BRANCH  20  21
ATOM     21  C   UNL     1      -1.793  11.252  18.218  0.00  0.00    +0.000 A 
ATOM     22  C   UNL     1      -1.857  10.292  17.205  0.00  0.00    +0.000 A 
ATOM     23  C   UNL     1      -3.095   9.906  16.684  0.00  0.00    +0.000 A 
ATOM     24  C   UNL     1      -4.275  10.482  17.170  0.00  0.00    +0.000 A 
ATOM     25  C   UNL     1      -4.233  11.475  18.155  0.00  0.00    +0.000 A 
ATOM     26  C   UNL     1      -2.983  11.847  18.665  0.00  0.00    +0.000 A 
BRANCH  25  27
ATOM     27  C   UNL     1      -5.473  12.057  18.688  0.00  0.00    +0.000 A 
ATOM     28  N   UNL     1      -6.686  11.757  18.262  0.00  0.00    +0.000 NA
ATOM     29  C   UNL     1      -7.630  12.411  19.030  0.00  0.00    +0.000 A 
ATOM     30  C   UNL     1      -7.133  13.238  20.015  0.00  0.00    +0.000 A 
ATOM     31  C   UNL     1      -7.850  14.074  21.010  0.00  0.00    +0.000 C 
ATOM     32  S   UNL     1      -5.426  13.210  19.972  0.00  0.00    +0.000 S 
ENDBRANCH  25  27
ENDBRANCH  20  21
ENDBRANCH   7  20
TORSDOF 5
ENDMDL
MODEL 6
REMARK VINA RESULT:      -6.4      3.489      7.521
REMARK  Name = 
REMARK  7 active torsions:
REMARK  status: ('A' for Active; 'I' for Inactive)
REMARK    1  A    between atoms: C_1  and  O_2
REMARK    2  A    between atoms: O_2  and  C_3
REMARK    3  A    between atoms: C_8  and  C_9
REMARK    4  A    between atoms: N_15  and  C_16
REMARK    5  A    between atoms: C_16  and  C_17
REMARK    6  A    between atoms: C_21  and  C_22
REMARK    7  A    between atoms: C_25  and  C_26
REMARK                            x       y       z     vdW  Elec       q    Type
REMARK                         _______ _______ _______ _____ _____    ______ ____
ROOT
ATOM      1  C   UNL     1       3.665   3.980  19.662  0.00  0.00    +0.000 C 
ATOM      2  C   UNL     1       2.935   2.639  19.726  0.00  0.00    +0.000 C 
ATOM      3  C   UNL     1       2.254   2.514  21.066  0.00  0.00    +0.000 C 
ATOM      4  C   UNL     1       1.212   3.606  21.190  0.00  0.00    +0.000 C 
ATOM      5  C   UNL     1       1.630   4.991  20.712  0.00  0.00    +0.000 C 
ATOM      6  O   UNL     1       0.836   5.919  20.873  0.00  0.00    +0.000 OA
ATOM      7  N   UNL     1       2.878   5.134  20.127  0.00  0.00    +0.000 N 
ENDROOT
BRANCH   1  13
ATOM      8  C   UNL     1       3.648   3.770  17.069  0.00  0.00    +0.000 A 
ATOM      9  C   UNL     1       4.297   3.950  15.841  0.00  0.00    +0.000 A 
ATOM     10  C   UNL     1       5.635   4.325  15.792  0.00  0.00    +0.000 A 
ATOM     11  C   UNL     1       6.328   4.547  16.972  0.00  0.00    +0.000 A 
ATOM     12  C   UNL     1       5.665   4.474  18.204  0.00  0.00    +0.000 A 
ATOM     13  C   UNL     1       4.306   4.102  18.276  0.00  0.00    +0.000 A 
ATOM     14  O   UNL     1       6.318   4.702  19.394  0.00  0.00    +0.000 OA
ATOM     15  C   UNL     1       7.605   5.295  19.212  0.00  0.00    +0.000 C 
ATOM     16  C   UNL     1       8.352   4.600  18.089  0.00  0.00    +0.000 C 
ATOM     17  O   UNL     1       7.668   4.811  16.848  0.00  0.00    +0.000 OA
BRANCH   8  19
ATOM     18  C   UNL     1       1.348   4.261  17.166  0.00  0.00    +0.000 C 
ATOM     19  O   UNL     1       2.376   3.266  17.137  0.00  0.00    +0.000 OA
ENDBRANCH   8  19
ENDBRANCH   1  13
BRANCH   7  20
ATOM     20  C   UNL     1       3.437   6.455  19.823  0.00  0.00    +0.000 C 
BRANCH  20  21
ATOM     21  C   UNL     1       2.492   7.547  19.390  0.00  0.00    +0.000 A 
ATOM     22  C   UNL     1       2.182   7.784  18.049  0.00  0.00    +0.000 A 
ATOM     23  C   UNL     1       1.203   8.722  17.712  0.00  0.00    +0.000 A 
ATOM     24  C   UNL     1       0.533   9.434  18.715  0.00  0.00    +0.000 A 
ATOM     25  C   UNL     1       0.856   9.243  20.063  0.00  0.00    +0.000 A 
ATOM     26  C   UNL     1       1.838   8.297  20.380  0.00  0.00    +0.000 A 
BRANCH  25  27
ATOM     27  C   UNL     1       0.131   9.966  21.118  0.00  0.00    +0.000 A 
ATOM     28  N   UNL     1      -0.356   9.407  22.211  0.00  0.00    +0.000 NA
ATOM     29  C   UNL     1      -0.900  10.376  23.032  0.00  0.00    +0.000 A 
ATOM     30  C   UNL     1      -0.860  11.666  22.546  0.00  0.00    +0.000 A 
ATOM     31  C   UNL     1      -1.340  12.930  23.158  0.00  0.00    +0.000 C 
ATOM     32  S   UNL     1      -0.132  11.669  21.002  0.00  0.00    +0.000 S 
ENDBRANCH  25  27
ENDBRANCH  20  21
ENDBRANCH   7  20
TORSDOF 5
ENDMDL
MODEL 7
REMARK VINA RESULT:      -6.4      8.172     12.553
REMARK  Name = 
REMARK  7 active torsions:
REMARK  status: ('A' for Active; 'I' for Inactive)
REMARK    1  A    between atoms: C_1  and  O_2
REMARK    2  A    between atoms: O_2  and  C_3
REMARK    3  A    between atoms: C_8  and  C_9
REMARK    4  A    between atoms: N_15  and  C_16
REMARK    5  A    between atoms: C_16  and  C_17
REMARK    6  A    between atoms: C_21  and  C_22
REMARK    7  A    between atoms: C_25  and  C_26
REMARK                            x       y       z     vdW  Elec       q    Type
REMARK                         _______ _______ _______ _____ _____    ______ ____
ROOT
ATOM      1  C   UNL     1      -0.872  12.450  20.190  0.00  0.00    +0.000 C 
ATOM      2  C   UNL     1       0.346  12.062  21.027  0.00  0.00    +0.000 C 
ATOM      3  C   UNL     1       0.271  10.590  21.351  0.00  0.00    +0.000 C 
ATOM      4  C   UNL     1       0.335   9.801  20.059  0.00  0.00    +0.000 C 
ATOM      5  C   UNL     1      -0.499  10.335  18.903  0.00  0.00    +0.000 C 
ATOM      6  O   UNL     1      -0.535   9.674  17.864  0.00  0.00    +0.000 OA
ATOM      7  N   UNL     1      -1.177  11.532  19.080  0.00  0.00    +0.000 N 
ENDROOT
BRANCH   1  13
ATOM      8  C   UNL     1       0.165  14.444  18.881  0.00  0.00    +0.000 A 
ATOM      9  C   UNL     1       0.185  15.815  18.590  0.00  0.00    +0.000 A 
ATOM     10  C   UNL     1      -0.586  16.709  19.322  0.00  0.00    +0.000 A 
ATOM     11  C   UNL     1      -1.403  16.237  20.338  0.00  0.00    +0.000 A 
ATOM     12  C   UNL     1      -1.515  14.861  20.571  0.00  0.00    +0.000 A 
ATOM     13  C   UNL     1      -0.747  13.935  19.835  0.00  0.00    +0.000 A 
ATOM     14  O   UNL     1      -2.327  14.356  21.562  0.00  0.00    +0.000 OA
ATOM     15  C   UNL     1      -3.230  15.332  22.085  0.00  0.00    +0.000 C 
ATOM     16  C   UNL     1      -2.506  16.642  22.330  0.00  0.00    +0.000 C 
ATOM     17  O   UNL     1      -2.053  17.187  21.085  0.00  0.00    +0.000 OA
BRANCH   8  19
ATOM     18  C   UNL     1       2.395  13.965  18.303  0.00  0.00    +0.000 C 
ATOM     19  O   UNL     1       1.021  13.571  18.264  0.00  0.00    +0.000 OA
ENDBRANCH   8  19
ENDBRANCH   1  13
BRANCH   7  20
ATOM     20  C   UNL     1      -2.153  12.014  18.099  0.00  0.00    +0.000 C 
BRANCH  20  21
ATOM     21  C   UNL     1      -3.619  11.837  18.404  0.00  0.00    +0.000 A 
ATOM     22  C   UNL     1      -4.478  11.118  17.570  0.00  0.00    +0.000 A 
ATOM     23  C   UNL     1      -5.796  10.876  17.965  0.00  0.00    +0.000 A 
ATOM     24  C   UNL     1      -6.265  11.357  19.194  0.00  0.00    +0.000 A 
ATOM     25  C   UNL     1      -5.434  12.115  20.027  0.00  0.00    +0.000 A 
ATOM     26  C   UNL     1      -4.116  12.345  19.614  0.00  0.00    +0.000 A 
BRANCH  25  27
ATOM     27  C   UNL     1      -5.915  12.594  21.331  0.00  0.00    +0.000 A 
ATOM     28  N   UNL     1      -5.390  12.255  22.494  0.00  0.00    +0.000 NA
ATOM     29  C   UNL     1      -6.018  12.945  23.513  0.00  0.00    +0.000 A 
ATOM     30  C   UNL     1      -7.045  13.780  23.128  0.00  0.00    +0.000 A 
ATOM     31  C   UNL     1      -7.916  14.660  23.945  0.00  0.00    +0.000 C 
ATOM     32  S   UNL     1      -7.246  13.689  21.434  0.00  0.00    +0.000 S 
ENDBRANCH  25  27
ENDBRANCH  20  21
ENDBRANCH   7  20
TORSDOF 5
ENDMDL
MODEL 8
REMARK VINA RESULT:      -6.4      3.818      6.591
REMARK  Name = 
REMARK  7 active torsions:
REMARK  status: ('A' for Active; 'I' for Inactive)
REMARK    1  A    between atoms: C_1  and  O_2
REMARK    2  A    between atoms: O_2  and  C_3
REMARK    3  A    between atoms: C_8  and  C_9
REMARK    4  A    between atoms: N_15  and  C_16
REMARK    5  A    between atoms: C_16  and  C_17
REMARK    6  A    between atoms: C_21  and  C_22
REMARK    7  A    between atoms: C_25  and  C_26
REMARK                            x       y       z     vdW  Elec       q    Type
REMARK                         _______ _______ _______ _____ _____    ______ ____
ROOT
ATOM      1  C   UNL     1      -0.564  10.335  20.988  0.00  0.00    +0.000 C 
ATOM      2  C   UNL     1      -1.170  10.967  22.241  0.00  0.00    +0.000 C 
ATOM      3  C   UNL     1      -1.138   9.957  23.363  0.00  0.00    +0.000 C 
ATOM      4  C   UNL     1       0.304   9.616  23.675  0.00  0.00    +0.000 C 
ATOM      5  C   UNL     1       1.219   9.401  22.476  0.00  0.00    +0.000 C 
ATOM      6  O   UNL     1       2.377   9.043  22.693  0.00  0.00    +0.000 OA
ATOM      7  N   UNL     1       0.700   9.614  21.208  0.00  0.00    +0.000 N 
ENDROOT
BRANCH   1  13
ATOM      8  C   UNL     1      -1.224  11.240  18.640  0.00  0.00    +0.000 A 
ATOM      9  C   UNL     1      -1.204  12.277  17.698  0.00  0.00    +0.000 A 
ATOM     10  C   UNL     1      -0.430  13.413  17.907  0.00  0.00    +0.000 A 
ATOM     11  C   UNL     1       0.313  13.531  19.072  0.00  0.00    +0.000 A 
ATOM     12  C   UNL     1       0.221  12.551  20.069  0.00  0.00    +0.000 A 
ATOM     13  C   UNL     1      -0.564  11.395  19.881  0.00  0.00    +0.000 A 
ATOM     14  O   UNL     1       0.933  12.642  21.243  0.00  0.00    +0.000 OA
ATOM     15  C   UNL     1       1.502  13.938  21.444  0.00  0.00    +0.000 C 
ATOM     16  C   UNL     1       2.139  14.439  20.161  0.00  0.00    +0.000 C 
ATOM     17  O   UNL     1       1.132  14.627  19.160  0.00  0.00    +0.000 OA
BRANCH   8  19
ATOM     18  C   UNL     1      -2.346   9.923  17.044  0.00  0.00    +0.000 C 
ATOM     19  O   UNL     1      -1.868  10.058  18.386  0.00  0.00    +0.000 OA
ENDBRANCH   8  19
ENDBRANCH   1  13
BRANCH   7  20
ATOM     20  C   UNL     1       1.444   9.241  20.001  0.00  0.00    +0.000 C 
BRANCH  20  21
ATOM     21  C   UNL     1       1.887   7.808  19.850  0.00  0.00    +0.000 A 
ATOM     22  C   UNL     1       1.384   6.779  20.650  0.00  0.00    +0.000 A 
ATOM     23  C   UNL     1       1.732   5.452  20.382  0.00  0.00    +0.000 A 
ATOM     24  C   UNL     1       2.588   5.148  19.317  0.00  0.00    +0.000 A 
ATOM     25  C   UNL     1       3.136   6.166  18.528  0.00  0.00    +0.000 A 
ATOM     26  C   UNL     1       2.774   7.489  18.811  0.00  0.00    +0.000 A 
BRANCH  25  27
ATOM     27  C   UNL     1       4.009   5.846  17.389  0.00  0.00    +0.000 A 
ATOM     28  N   UNL     1       4.646   6.741  16.658  0.00  0.00    +0.000 NA
ATOM     29  C   UNL     1       5.446   6.106  15.728  0.00  0.00    +0.000 A 
ATOM     30  C   UNL     1       5.389   4.729  15.728  0.00  0.00    +0.000 A 
ATOM     31  C   UNL     1       6.109   3.744  14.882  0.00  0.00    +0.000 C 
ATOM     32  S   UNL     1       4.285   4.206  16.921  0.00  0.00    +0.000 S 
ENDBRANCH  25  27
ENDBRANCH  20  21
ENDBRANCH   7  20
TORSDOF 5
ENDMDL
MODEL 9
REMARK VINA RESULT:      -6.4      3.821      6.617
REMARK  Name = 
REMARK  7 active torsions:
REMARK  status: ('A' for Active; 'I' for Inactive)
REMARK    1  A    between atoms: C_1  and  O_2
REMARK    2  A    between atoms: O_2  and  C_3
REMARK    3  A    between atoms: C_8  and  C_9
REMARK    4  A    between atoms: N_15  and  C_16
REMARK    5  A    between atoms: C_16  and  C_17
REMARK    6  A    between atoms: C_21  and  C_22
REMARK    7  A    between atoms: C_25  and  C_26
REMARK                            x       y       z     vdW  Elec       q    Type
REMARK                         _______ _______ _______ _____ _____    ______ ____
ROOT
ATOM      1  C   UNL     1      -0.469  10.250  21.010  0.00  0.00    +0.000 C 
ATOM      2  C   UNL     1      -1.113  10.872  22.249  0.00  0.00    +0.000 C 
ATOM      3  C   UNL     1      -1.093   9.864  23.372  0.00  0.00    +0.000 C 
ATOM      4  C   UNL     1       0.346   9.543  23.717  0.00  0.00    +0.000 C 
ATOM      5  C   UNL     1       1.292   9.341  22.540  0.00  0.00    +0.000 C 
ATOM      6  O   UNL     1       2.450   8.999  22.784  0.00  0.00    +0.000 OA
ATOM      7  N   UNL     1       0.799   9.546  21.260  0.00  0.00    +0.000 N 
ENDROOT
BRANCH   1  13
ATOM      8  C   UNL     1       0.259  12.526  19.982  0.00  0.00    +0.000 A 
ATOM      9  C   UNL     1       0.244  13.421  18.905  0.00  0.00    +0.000 A 
ATOM     10  C   UNL     1      -0.575  13.197  17.804  0.00  0.00    +0.000 A 
ATOM     11  C   UNL     1      -1.371  12.062  17.762  0.00  0.00    +0.000 A 
ATOM     12  C   UNL     1      -1.288  11.105  18.782  0.00  0.00    +0.000 A 
ATOM     13  C   UNL     1      -0.458  11.309  19.903  0.00  0.00    +0.000 A 
ATOM     14  O   UNL     1      -2.052   9.960  18.765  0.00  0.00    +0.000 OA
ATOM     15  C   UNL     1      -2.672   9.729  17.499  0.00  0.00    +0.000 C 
ATOM     16  C   UNL     1      -3.270  11.015  16.961  0.00  0.00    +0.000 C 
ATOM     17  O   UNL     1      -2.229  11.962  16.697  0.00  0.00    +0.000 OA
BRANCH   8  19
ATOM     18  C   UNL     1       0.764  14.130  21.628  0.00  0.00    +0.000 C 
ATOM     19  O   UNL     1       0.952  12.802  21.131  0.00  0.00    +0.000 OA
ENDBRANCH   8  19
ENDBRANCH   1  13
BRANCH   7  20
ATOM     20  C   UNL     1       1.576   9.184  20.071  0.00  0.00    +0.000 C 
BRANCH  20  21
ATOM     21  C   UNL     1       1.958   7.738  19.881  0.00  0.00    +0.000 A 
ATOM     22  C   UNL     1       1.406   6.709  20.648  0.00  0.00    +0.000 A 
ATOM     23  C   UNL     1       1.697   5.377  20.343  0.00  0.00    +0.000 A 
ATOM     24  C   UNL     1       2.546   5.066  19.274  0.00  0.00    +0.000 A 
ATOM     25  C   UNL     1       3.143   6.082  18.518  0.00  0.00    +0.000 A 
ATOM     26  C   UNL     1       2.837   7.410  18.838  0.00  0.00    +0.000 A 
BRANCH  25  27
ATOM     27  C   UNL     1       4.009   5.757  17.375  0.00  0.00    +0.000 A 
ATOM     28  N   UNL     1       4.649   6.648  16.642  0.00  0.00    +0.000 NA
ATOM     29  C   UNL     1       5.440   6.009  15.708  0.00  0.00    +0.000 A 
ATOM     30  C   UNL     1       5.373   4.632  15.706  0.00  0.00    +0.000 A 
ATOM     31  C   UNL     1       6.081   3.643  14.856  0.00  0.00    +0.000 C 
ATOM     32  S   UNL     1       4.270   4.116  16.904  0.00  0.00    +0.000 S 
ENDBRANCH  25  27
ENDBRANCH  20  21
ENDBRANCH   7  20
TORSDOF 5
ENDMDL
