MODEL 1
REMARK VINA RESULT:      -8.0      0.000      0.000
REMARK  Name = 
REMARK  7 active torsions:
REMARK  status: ('A' for Active; 'I' for Inactive)
REMARK    1  A    between atoms: C_1  and  C_2
REMARK    2  A    between atoms: C_5  and  C_6
REMARK    3  A    between atoms: C_8  and  N_9
REMARK    4  A    between atoms: C_10  and  C_12
REMARK    5  A    between atoms: C_12  and  O_13
REMARK    6  A    between atoms: O_13  and  C_14
REMARK    7  A    between atoms: C_19  and  C_20
REMARK                            x       y       z     vdW  Elec       q    Type
REMARK                         _______ _______ _______ _____ _____    ______ ____
ROOT
ATOM      1  N   UNL     1       7.090   8.312  17.132  0.00  0.00    +0.000 N 
ATOM      2  C   UNL     1       8.103   8.460  18.073  0.00  0.00    +0.000 C 
ATOM      3  O   UNL     1       8.450   7.610  18.890  0.00  0.00    +0.000 OA
ATOM      4  H   UNL     1       6.553   9.158  16.992  0.00  0.00    +0.000 HD
ENDROOT
BRANCH   1   7
ATOM      5  C   UNL     1       4.948   5.459  17.424  0.00  0.00    +0.000 A 
ATOM      6  C   UNL     1       5.152   6.828  17.763  0.00  0.00    +0.000 A 
ATOM      7  C   UNL     1       6.348   7.156  17.185  0.00  0.00    +0.000 A 
ATOM      8  O   UNL     1       6.865   6.064  16.570  0.00  0.00    +0.000 OA
ATOM      9  N   UNL     1       5.980   5.011  16.687  0.00  0.00    +0.000 NA
BRANCH   5  14
ATOM     10  C   UNL     1       0.467   2.076  18.848  0.00  0.00    +0.000 C 
ATOM     11  C   UNL     1       1.644   2.938  18.498  0.00  0.00    +0.000 A 
ATOM     12  C   UNL     1       1.917   4.101  19.224  0.00  0.00    +0.000 A 
ATOM     13  C   UNL     1       2.996   4.918  18.876  0.00  0.00    +0.000 A 
ATOM     14  C   UNL     1       3.826   4.592  17.794  0.00  0.00    +0.000 A 
ATOM     15  C   UNL     1       3.550   3.420  17.074  0.00  0.00    +0.000 A 
ATOM     16  C   UNL     1       2.472   2.599  17.424  0.00  0.00    +0.000 A 
ENDBRANCH   5  14
ENDBRANCH   1   7
BRANCH   2  17
ATOM     17  C   UNL     1       8.787   9.827  17.989  0.00  0.00    +0.000 C 
BRANCH  17  18
ATOM     18  O   UNL     1       9.602  10.065  19.131  0.00  0.00    +0.000 OA
BRANCH  18  19
ATOM     19  C   UNL     1      10.205  11.296  19.200  0.00  0.00    +0.000 A 
ATOM     20  C   UNL     1      10.513  11.988  20.375  0.00  0.00    +0.000 A 
ATOM     21  C   UNL     1      11.157  13.223  20.306  0.00  0.00    +0.000 A 
ATOM     22  C   UNL     1      11.502  13.794  19.079  0.00  0.00    +0.000 A 
ATOM     23 CL   UNL     1      12.314  15.317  19.101  0.00  0.00    +0.000 Cl
ATOM     24  C   UNL     1      11.184  13.125  17.886  0.00  0.00    +0.000 A 
ATOM     25  C   UNL     1      11.504  13.667  16.518  0.00  0.00    +0.000 C 
ATOM     26  C   UNL     1      10.536  11.876  17.969  0.00  0.00    +0.000 A 
ENDBRANCH  18  19
ENDBRANCH  17  18
ENDBRANCH   2  17
TORSDOF 5
ENDMDL
MODEL 2
REMARK VINA RESULT:      -7.8      3.703      9.952
REMARK  Name = 
REMARK  7 active torsions:
REMARK  status: ('A' for Active; 'I' for Inactive)
REMARK    1  A    between atoms: C_1  and  C_2
REMARK    2  A    between atoms: C_5  and  C_6
REMARK    3  A    between atoms: C_8  and  N_9
REMARK    4  A    between atoms: C_10  and  C_12
REMARK    5  A    between atoms: C_12  and  O_13
REMARK    6  A    between atoms: O_13  and  C_14
REMARK    7  A    between atoms: C_19  and  C_20
REMARK                            x       y       z     vdW  Elec       q    Type
REMARK                         _______ _______ _______ _____ _____    ______ ____
ROOT
ATOM      1  N   UNL     1       6.580   6.375  16.804  0.00  0.00    +0.000 N 
ATOM      2  C   UNL     1       6.548   5.049  17.221  0.00  0.00    +0.000 C 
ATOM      3  O   UNL     1       7.088   4.604  18.232  0.00  0.00    +0.000 OA
ATOM      4  H   UNL     1       6.650   6.472  15.800  0.00  0.00    +0.000 HD
ENDROOT
BRANCH   1   7
ATOM      5  C   UNL     1       8.527   8.854  18.500  0.00  0.00    +0.000 A 
ATOM      6  C   UNL     1       7.650   8.575  17.412  0.00  0.00    +0.000 A 
ATOM      7  C   UNL     1       7.364   7.242  17.527  0.00  0.00    +0.000 A 
ATOM      8  O   UNL     1       8.044   6.726  18.580  0.00  0.00    +0.000 OA
ATOM      9  N   UNL     1       8.745   7.734  19.212  0.00  0.00    +0.000 NA
BRANCH   5  14
ATOM     10  C   UNL     1      11.079  13.862  19.899  0.00  0.00    +0.000 C 
ATOM     11  C   UNL     1      10.393  12.578  19.539  0.00  0.00    +0.000 A 
ATOM     12  C   UNL     1       9.974  11.690  20.534  0.00  0.00    +0.000 A 
ATOM     13  C   UNL     1       9.362  10.480  20.194  0.00  0.00    +0.000 A 
ATOM     14  C   UNL     1       9.156  10.130  18.852  0.00  0.00    +0.000 A 
ATOM     15  C   UNL     1       9.573  11.028  17.859  0.00  0.00    +0.000 A 
ATOM     16  C   UNL     1      10.182  12.242  18.198  0.00  0.00    +0.000 A 
ENDBRANCH   5  14
ENDBRANCH   1   7
BRANCH   2  17
ATOM     17  C   UNL     1       5.734   4.157  16.281  0.00  0.00    +0.000 C 
BRANCH  17  18
ATOM     18  O   UNL     1       4.340   4.417  16.403  0.00  0.00    +0.000 OA
BRANCH  18  19
ATOM     19  C   UNL     1       3.723   3.902  17.516  0.00  0.00    +0.000 A 
ATOM     20  C   UNL     1       3.656   2.549  17.858  0.00  0.00    +0.000 A 
ATOM     21  C   UNL     1       3.022   2.160  19.039  0.00  0.00    +0.000 A 
ATOM     22  C   UNL     1       2.444   3.101  19.895  0.00  0.00    +0.000 A 
ATOM     23 CL   UNL     1       1.702   2.520  21.342  0.00  0.00    +0.000 Cl
ATOM     24  C   UNL     1       2.484   4.464  19.561  0.00  0.00    +0.000 A 
ATOM     25  C   UNL     1       1.878   5.547  20.413  0.00  0.00    +0.000 C 
ATOM     26  C   UNL     1       3.129   4.843  18.366  0.00  0.00    +0.000 A 
ENDBRANCH  18  19
ENDBRANCH  17  18
ENDBRANCH   2  17
TORSDOF 5
ENDMDL
MODEL 3
REMARK VINA RESULT:      -7.8      3.690      9.997
REMARK  Name = 
REMARK  7 active torsions:
REMARK  status: ('A' for Active; 'I' for Inactive)
REMARK    1  A    between atoms: C_1  and  C_2
REMARK    2  A    between atoms: C_5  and  C_6
REMARK    3  A    between atoms: C_8  and  N_9
REMARK    4  A    between atoms: C_10  and  C_12
REMARK    5  A    between atoms: C_12  and  O_13
REMARK    6  A    between atoms: O_13  and  C_14
REMARK    7  A    between atoms: C_19  and  C_20
REMARK                            x       y       z     vdW  Elec       q    Type
REMARK                         _______ _______ _______ _____ _____    ______ ____
ROOT
ATOM      1  N   UNL     1       6.927   6.495  16.604  0.00  0.00    +0.000 N 
ATOM      2  C   UNL     1       5.540   6.483  16.688  0.00  0.00    +0.000 C 
ATOM      3  O   UNL     1       4.858   7.249  17.365  0.00  0.00    +0.000 OA
ATOM      4  H   UNL     1       7.329   5.568  16.550  0.00  0.00    +0.000 HD
ENDROOT
BRANCH   1   7
ATOM      5  C   UNL     1       8.606   8.997  18.536  0.00  0.00    +0.000 A 
ATOM      6  C   UNL     1       7.887   8.707  17.341  0.00  0.00    +0.000 A 
ATOM      7  C   UNL     1       7.599   7.372  17.422  0.00  0.00    +0.000 A 
ATOM      8  O   UNL     1       8.134   6.865  18.560  0.00  0.00    +0.000 OA
ATOM      9  N   UNL     1       8.735   7.881  19.276  0.00  0.00    +0.000 NA
BRANCH   5  14
ATOM     10  C   UNL     1      10.906  14.034  20.236  0.00  0.00    +0.000 C 
ATOM     11  C   UNL     1      10.285  12.741  19.798  0.00  0.00    +0.000 A 
ATOM     12  C   UNL     1       9.883  11.788  20.738  0.00  0.00    +0.000 A 
ATOM     13  C   UNL     1       9.332  10.572  20.326  0.00  0.00    +0.000 A 
ATOM     14  C   UNL     1       9.171  10.280  18.965  0.00  0.00    +0.000 A 
ATOM     15  C   UNL     1       9.570  11.242  18.026  0.00  0.00    +0.000 A 
ATOM     16  C   UNL     1      10.118  12.463  18.438  0.00  0.00    +0.000 A 
ENDBRANCH   5  14
ENDBRANCH   1   7
BRANCH   2  17
ATOM     17  C   UNL     1       4.907   5.395  15.816  0.00  0.00    +0.000 C 
BRANCH  17  18
ATOM     18  O   UNL     1       4.926   4.133  16.474  0.00  0.00    +0.000 OA
BRANCH  18  19
ATOM     19  C   UNL     1       3.990   3.950  17.461  0.00  0.00    +0.000 A 
ATOM     20  C   UNL     1       2.669   4.402  17.426  0.00  0.00    +0.000 A 
ATOM     21  C   UNL     1       1.808   4.121  18.487  0.00  0.00    +0.000 A 
ATOM     22  C   UNL     1       2.241   3.392  19.598  0.00  0.00    +0.000 A 
ATOM     23 CL   UNL     1       1.094   3.079  20.849  0.00  0.00    +0.000 Cl
ATOM     24  C   UNL     1       3.570   2.945  19.662  0.00  0.00    +0.000 A 
ATOM     25  C   UNL     1       4.130   2.166  20.822  0.00  0.00    +0.000 C 
ATOM     26  C   UNL     1       4.429   3.234  18.582  0.00  0.00    +0.000 A 
ENDBRANCH  18  19
ENDBRANCH  17  18
ENDBRANCH   2  17
TORSDOF 5
ENDMDL
MODEL 4
REMARK VINA RESULT:      -7.8      6.072      9.088
REMARK  Name = 
REMARK  7 active torsions:
REMARK  status: ('A' for Active; 'I' for Inactive)
REMARK    1  A    between atoms: C_1  and  C_2
REMARK    2  A    between atoms: C_5  and  C_6
REMARK    3  A    between atoms: C_8  and  N_9
REMARK    4  A    between atoms: C_10  and  C_12
REMARK    5  A    between atoms: C_12  and  O_13
REMARK    6  A    between atoms: O_13  and  C_14
REMARK    7  A    between atoms: C_19  and  C_20
REMARK                            x       y       z     vdW  Elec       q    Type
REMARK                         _______ _______ _______ _____ _____    ______ ____
ROOT
ATOM      1  N   UNL     1       2.809   6.384  20.182  0.00  0.00    +0.000 N 
ATOM      2  C   UNL     1       2.201   5.156  20.413  0.00  0.00    +0.000 C 
ATOM      3  O   UNL     1       0.997   4.973  20.577  0.00  0.00    +0.000 OA
ATOM      4  H   UNL     1       3.705   6.475  20.642  0.00  0.00    +0.000 HD
ENDROOT
BRANCH   1   7
ATOM      5  C   UNL     1       0.685   9.231  20.630  0.00  0.00    +0.000 A 
ATOM      6  C   UNL     1       1.258   8.072  21.231  0.00  0.00    +0.000 A 
ATOM      7  C   UNL     1       2.010   7.502  20.241  0.00  0.00    +0.000 A 
ATOM      8  O   UNL     1       1.882   8.227  19.103  0.00  0.00    +0.000 OA
ATOM      9  N   UNL     1       1.083   9.326  19.349  0.00  0.00    +0.000 NA
BRANCH   5  14
ATOM     10  C   UNL     1      -2.959  13.059  22.999  0.00  0.00    +0.000 C 
ATOM     11  C   UNL     1      -1.994  12.086  22.390  0.00  0.00    +0.000 A 
ATOM     12  C   UNL     1      -1.699  12.134  21.024  0.00  0.00    +0.000 A 
ATOM     13  C   UNL     1      -0.823  11.207  20.454  0.00  0.00    +0.000 A 
ATOM     14  C   UNL     1      -0.222  10.210  21.235  0.00  0.00    +0.000 A 
ATOM     15  C   UNL     1      -0.517  10.171  22.606  0.00  0.00    +0.000 A 
ATOM     16  C   UNL     1      -1.391  11.102  23.179  0.00  0.00    +0.000 A 
ENDBRANCH   5  14
ENDBRANCH   1   7
BRANCH   2  17
ATOM     17  C   UNL     1       3.203   3.998  20.430  0.00  0.00    +0.000 C 
BRANCH  17  18
ATOM     18  O   UNL     1       3.180   3.279  19.203  0.00  0.00    +0.000 OA
BRANCH  18  19
ATOM     19  C   UNL     1       4.085   3.675  18.250  0.00  0.00    +0.000 A 
ATOM     20  C   UNL     1       3.889   3.624  16.868  0.00  0.00    +0.000 A 
ATOM     21  C   UNL     1       4.882   4.089  16.006  0.00  0.00    +0.000 A 
ATOM     22  C   UNL     1       6.083   4.608  16.496  0.00  0.00    +0.000 A 
ATOM     23 CL   UNL     1       7.240   5.177  15.349  0.00  0.00    +0.000 Cl
ATOM     24  C   UNL     1       6.308   4.652  17.882  0.00  0.00    +0.000 A 
ATOM     25  C   UNL     1       7.574   5.180  18.502  0.00  0.00    +0.000 C 
ATOM     26  C   UNL     1       5.295   4.180  18.742  0.00  0.00    +0.000 A 
ENDBRANCH  18  19
ENDBRANCH  17  18
ENDBRANCH   2  17
TORSDOF 5
ENDMDL
MODEL 5
REMARK VINA RESULT:      -7.7      3.764     10.089
REMARK  Name = 
REMARK  7 active torsions:
REMARK  status: ('A' for Active; 'I' for Inactive)
REMARK    1  A    between atoms: C_1  and  C_2
REMARK    2  A    between atoms: C_5  and  C_6
REMARK    3  A    between atoms: C_8  and  N_9
REMARK    4  A    between atoms: C_10  and  C_12
REMARK    5  A    between atoms: C_12  and  O_13
REMARK    6  A    between atoms: O_13  and  C_14
REMARK    7  A    between atoms: C_19  and  C_20
REMARK                            x       y       z     vdW  Elec       q    Type
REMARK                         _______ _______ _______ _____ _____    ______ ____
ROOT
ATOM      1  N   UNL     1       6.599   5.809  16.884  0.00  0.00    +0.000 N 
ATOM      2  C   UNL     1       5.211   5.893  16.897  0.00  0.00    +0.000 C 
ATOM      3  O   UNL     1       4.556   6.830  17.350  0.00  0.00    +0.000 OA
ATOM      4  H   UNL     1       6.940   4.873  17.060  0.00  0.00    +0.000 HD
ENDROOT
BRANCH   1   7
ATOM      5  C   UNL     1       8.305   8.606  18.326  0.00  0.00    +0.000 A 
ATOM      6  C   UNL     1       7.479   8.141  17.262  0.00  0.00    +0.000 A 
ATOM      7  C   UNL     1       7.295   6.810  17.519  0.00  0.00    +0.000 A 
ATOM      8  O   UNL     1       7.988   6.467  18.632  0.00  0.00    +0.000 OA
ATOM      9  N   UNL     1       8.593   7.590  19.160  0.00  0.00    +0.000 NA
BRANCH   5  14
ATOM     10  C   UNL     1      10.292  13.971  19.230  0.00  0.00    +0.000 C 
ATOM     11  C   UNL     1       9.799  12.577  18.978  0.00  0.00    +0.000 A 
ATOM     12  C   UNL     1       8.942  12.306  17.908  0.00  0.00    +0.000 A 
ATOM     13  C   UNL     1       8.460  11.012  17.694  0.00  0.00    +0.000 A 
ATOM     14  C   UNL     1       8.824   9.959  18.545  0.00  0.00    +0.000 A 
ATOM     15  C   UNL     1       9.689  10.236  19.614  0.00  0.00    +0.000 A 
ATOM     16  C   UNL     1      10.175  11.531  19.826  0.00  0.00    +0.000 A 
ENDBRANCH   5  14
ENDBRANCH   1   7
BRANCH   2  17
ATOM     17  C   UNL     1       4.542   4.673  16.260  0.00  0.00    +0.000 C 
BRANCH  17  18
ATOM     18  O   UNL     1       4.881   3.478  16.956  0.00  0.00    +0.000 OA
BRANCH  18  19
ATOM     19  C   UNL     1       4.168   3.221  18.100  0.00  0.00    +0.000 A 
ATOM     20  C   UNL     1       4.683   3.221  19.398  0.00  0.00    +0.000 A 
ATOM     21  C   UNL     1       3.840   2.974  20.482  0.00  0.00    +0.000 A 
ATOM     22  C   UNL     1       2.479   2.719  20.298  0.00  0.00    +0.000 A 
ATOM     23 CL   UNL     1       1.517   2.444  21.705  0.00  0.00    +0.000 Cl
ATOM     24  C   UNL     1       1.944   2.696  19.000  0.00  0.00    +0.000 A 
ATOM     25  C   UNL     1       0.495   2.418  18.703  0.00  0.00    +0.000 C 
ATOM     26  C   UNL     1       2.806   2.950  17.914  0.00  0.00    +0.000 A 
ENDBRANCH  18  19
ENDBRANCH  17  18
ENDBRANCH   2  17
TORSDOF 5
ENDMDL
MODEL 6
REMARK VINA RESULT:      -7.7      3.633     10.047
REMARK  Name = 
REMARK  7 active torsions:
REMARK  status: ('A' for Active; 'I' for Inactive)
REMARK    1  A    between atoms: C_1  and  C_2
REMARK    2  A    between atoms: C_5  and  C_6
REMARK    3  A    between atoms: C_8  and  N_9
REMARK    4  A    between atoms: C_10  and  C_12
REMARK    5  A    between atoms: C_12  and  O_13
REMARK    6  A    between atoms: O_13  and  C_14
REMARK    7  A    between atoms: C_19  and  C_20
REMARK                            x       y       z     vdW  Elec       q    Type
REMARK                         _______ _______ _______ _____ _____    ______ ____
ROOT
ATOM      1  N   UNL     1       7.264   6.237  18.080  0.00  0.00    +0.000 N 
ATOM      2  C   UNL     1       7.170   5.583  16.856  0.00  0.00    +0.000 C 
ATOM      3  O   UNL     1       7.519   6.044  15.771  0.00  0.00    +0.000 OA
ATOM      4  H   UNL     1       6.478   6.051  18.689  0.00  0.00    +0.000 HD
ENDROOT
BRANCH   1   7
ATOM      5  C   UNL     1       8.570   9.565  18.255  0.00  0.00    +0.000 A 
ATOM      6  C   UNL     1       8.611   8.245  18.791  0.00  0.00    +0.000 A 
ATOM      7  C   UNL     1       7.690   7.544  18.064  0.00  0.00    +0.000 A 
ATOM      8  O   UNL     1       7.094   8.374  17.172  0.00  0.00    +0.000 OA
ATOM      9  N   UNL     1       7.663   9.628  17.264  0.00  0.00    +0.000 NA
BRANCH   5  14
ATOM     10  C   UNL     1      11.701  14.162  19.870  0.00  0.00    +0.000 C 
ATOM     11  C   UNL     1      10.868  12.982  19.467  0.00  0.00    +0.000 A 
ATOM     12  C   UNL     1      10.806  11.843  20.275  0.00  0.00    +0.000 A 
ATOM     13  C   UNL     1      10.053  10.733  19.882  0.00  0.00    +0.000 A 
ATOM     14  C   UNL     1       9.346  10.736  18.671  0.00  0.00    +0.000 A 
ATOM     15  C   UNL     1       9.408  11.884  17.867  0.00  0.00    +0.000 A 
ATOM     16  C   UNL     1      10.158  12.997  18.263  0.00  0.00    +0.000 A 
ENDBRANCH   5  14
ENDBRANCH   1   7
BRANCH   2  17
ATOM     17  C   UNL     1       6.583   4.175  16.985  0.00  0.00    +0.000 C 
BRANCH  17  18
ATOM     18  O   UNL     1       5.253   4.124  16.481  0.00  0.00    +0.000 OA
BRANCH  18  19
ATOM     19  C   UNL     1       4.250   4.098  17.417  0.00  0.00    +0.000 A 
ATOM     20  C   UNL     1       3.019   4.749  17.311  0.00  0.00    +0.000 A 
ATOM     21  C   UNL     1       2.070   4.614  18.325  0.00  0.00    +0.000 A 
ATOM     22  C   UNL     1       2.325   3.837  19.457  0.00  0.00    +0.000 A 
ATOM     23 CL   UNL     1       1.079   3.717  20.646  0.00  0.00    +0.000 Cl
ATOM     24  C   UNL     1       3.564   3.189  19.593  0.00  0.00    +0.000 A 
ATOM     25  C   UNL     1       3.934   2.343  20.782  0.00  0.00    +0.000 C 
ATOM     26  C   UNL     1       4.513   3.332  18.560  0.00  0.00    +0.000 A 
ENDBRANCH  18  19
ENDBRANCH  17  18
ENDBRANCH   2  17
TORSDOF 5
ENDMDL
MODEL 7
REMARK VINA RESULT:      -7.7      6.063      8.466
REMARK  Name = 
REMARK  7 active torsions:
REMARK  status: ('A' for Active; 'I' for Inactive)
REMARK    1  A    between atoms: C_1  and  C_2
REMARK    2  A    between atoms: C_5  and  C_6
REMARK    3  A    between atoms: C_8  and  N_9
REMARK    4  A    between atoms: C_10  and  C_12
REMARK    5  A    between atoms: C_12  and  O_13
REMARK    6  A    between atoms: O_13  and  C_14
REMARK    7  A    between atoms: C_19  and  C_20
REMARK                            x       y       z     vdW  Elec       q    Type
REMARK                         _______ _______ _______ _____ _____    ______ ____
ROOT
ATOM      1  N   UNL     1       3.338   5.759  18.727  0.00  0.00    +0.000 N 
ATOM      2  C   UNL     1       2.678   4.766  18.012  0.00  0.00    +0.000 C 
ATOM      3  O   UNL     1       1.523   4.833  17.596  0.00  0.00    +0.000 OA
ATOM      4  H   UNL     1       3.939   5.391  19.453  0.00  0.00    +0.000 HD
ENDROOT
BRANCH   1   7
ATOM      5  C   UNL     1       1.418   8.525  19.940  0.00  0.00    +0.000 A 
ATOM      6  C   UNL     1       1.989   7.255  20.242  0.00  0.00    +0.000 A 
ATOM      7  C   UNL     1       2.607   6.867  19.086  0.00  0.00    +0.000 A 
ATOM      8  O   UNL     1       2.402   7.805  18.129  0.00  0.00    +0.000 OA
ATOM      9  N   UNL     1       1.688   8.858  18.665  0.00  0.00    +0.000 NA
BRANCH   5  14
ATOM     10  C   UNL     1      -1.769  11.941  23.365  0.00  0.00    +0.000 C 
ATOM     11  C   UNL     1      -0.920  11.067  22.490  0.00  0.00    +0.000 A 
ATOM     12  C   UNL     1      -0.468  11.526  21.250  0.00  0.00    +0.000 A 
ATOM     13  C   UNL     1       0.298  10.699  20.423  0.00  0.00    +0.000 A 
ATOM     14  C   UNL     1       0.627   9.394  20.816  0.00  0.00    +0.000 A 
ATOM     15  C   UNL     1       0.175   8.942  22.065  0.00  0.00    +0.000 A 
ATOM     16  C   UNL     1      -0.588   9.771  22.895  0.00  0.00    +0.000 A 
ENDBRANCH   5  14
ENDBRANCH   1   7
BRANCH   2  17
ATOM     17  C   UNL     1       3.556   3.538  17.764  0.00  0.00    +0.000 C 
BRANCH  17  18
ATOM     18  O   UNL     1       4.929   3.830  18.000  0.00  0.00    +0.000 OA
BRANCH  18  19
ATOM     19  C   UNL     1       5.661   4.227  16.909  0.00  0.00    +0.000 A 
ATOM     20  C   UNL     1       6.848   4.962  16.947  0.00  0.00    +0.000 A 
ATOM     21  C   UNL     1       7.512   5.274  15.761  0.00  0.00    +0.000 A 
ATOM     22  C   UNL     1       7.012   4.868  14.521  0.00  0.00    +0.000 A 
ATOM     23 CL   UNL     1       7.919   5.286  13.113  0.00  0.00    +0.000 Cl
ATOM     24  C   UNL     1       5.810   4.144  14.459  0.00  0.00    +0.000 A 
ATOM     25  C   UNL     1       5.188   3.675  13.171  0.00  0.00    +0.000 C 
ATOM     26  C   UNL     1       5.151   3.833  15.665  0.00  0.00    +0.000 A 
ENDBRANCH  18  19
ENDBRANCH  17  18
ENDBRANCH   2  17
TORSDOF 5
ENDMDL
MODEL 8
REMARK VINA RESULT:      -7.7      0.820      1.635
REMARK  Name = 
REMARK  7 active torsions:
REMARK  status: ('A' for Active; 'I' for Inactive)
REMARK    1  A    between atoms: C_1  and  C_2
REMARK    2  A    between atoms: C_5  and  C_6
REMARK    3  A    between atoms: C_8  and  N_9
REMARK    4  A    between atoms: C_10  and  C_12
REMARK    5  A    between atoms: C_12  and  O_13
REMARK    6  A    between atoms: O_13  and  C_14
REMARK    7  A    between atoms: C_19  and  C_20
REMARK                            x       y       z     vdW  Elec       q    Type
REMARK                         _______ _______ _______ _____ _____    ______ ____
ROOT
ATOM      1  N   UNL     1       7.138   7.997  17.001  0.00  0.00    +0.000 N 
ATOM      2  C   UNL     1       8.105   8.159  17.987  0.00  0.00    +0.000 C 
ATOM      3  O   UNL     1       8.394   7.330  18.847  0.00  0.00    +0.000 OA
ATOM      4  H   UNL     1       6.625   8.847  16.806  0.00  0.00    +0.000 HD
ENDROOT
BRANCH   1   7
ATOM      5  C   UNL     1       4.940   5.187  17.290  0.00  0.00    +0.000 A 
ATOM      6  C   UNL     1       5.175   6.549  17.636  0.00  0.00    +0.000 A 
ATOM      7  C   UNL     1       6.373   6.856  17.052  0.00  0.00    +0.000 A 
ATOM      8  O   UNL     1       6.863   5.758  16.427  0.00  0.00    +0.000 OA
ATOM      9  N   UNL     1       5.958   4.722  16.544  0.00  0.00    +0.000 NA
BRANCH   5  14
ATOM     10  C   UNL     1       0.421   1.847  18.695  0.00  0.00    +0.000 C 
ATOM     11  C   UNL     1       1.598   2.714  18.359  0.00  0.00    +0.000 A 
ATOM     12  C   UNL     1       1.487   4.107  18.375  0.00  0.00    +0.000 A 
ATOM     13  C   UNL     1       2.577   4.911  18.032  0.00  0.00    +0.000 A 
ATOM     14  C   UNL     1       3.804   4.340  17.663  0.00  0.00    +0.000 A 
ATOM     15  C   UNL     1       3.911   2.942  17.655  0.00  0.00    +0.000 A 
ATOM     16  C   UNL     1       2.821   2.136  18.002  0.00  0.00    +0.000 A 
ENDBRANCH   5  14
ENDBRANCH   1   7
BRANCH   2  17
ATOM     17  C   UNL     1       8.818   9.510  17.895  0.00  0.00    +0.000 C 
BRANCH  17  18
ATOM     18  O   UNL     1       9.104  10.030  19.189  0.00  0.00    +0.000 OA
BRANCH  18  19
ATOM     19  C   UNL     1       9.611  11.304  19.232  0.00  0.00    +0.000 A 
ATOM     20  C   UNL     1      10.228  11.972  18.171  0.00  0.00    +0.000 A 
ATOM     21  C   UNL     1      10.673  13.283  18.339  0.00  0.00    +0.000 A 
ATOM     22  C   UNL     1      10.519  13.952  19.556  0.00  0.00    +0.000 A 
ATOM     23 CL   UNL     1      11.085  15.579  19.656  0.00  0.00    +0.000 Cl
ATOM     24  C   UNL     1       9.918  13.293  20.641  0.00  0.00    +0.000 A 
ATOM     25  C   UNL     1       9.721  13.925  21.992  0.00  0.00    +0.000 C 
ATOM     26  C   UNL     1       9.470  11.968  20.457  0.00  0.00    +0.000 A 
ENDBRANCH  18  19
ENDBRANCH  17  18
ENDBRANCH   2  17
TORSDOF 5
ENDMDL
MODEL 9
REMARK VINA RESULT:      -7.6      3.428      9.802
REMARK  Name = 
REMARK  7 active torsions:
REMARK  status: ('A' for Active; 'I' for Inactive)
REMARK    1  A    between atoms: C_1  and  C_2
REMARK    2  A    between atoms: C_5  and  C_6
REMARK    3  A    between atoms: C_8  and  N_9
REMARK    4  A    between atoms: C_10  and  C_12
REMARK    5  A    between atoms: C_12  and  O_13
REMARK    6  A    between atoms: O_13  and  C_14
REMARK    7  A    between atoms: C_19  and  C_20
REMARK                            x       y       z     vdW  Elec       q    Type
REMARK                         _______ _______ _______ _____ _____    ______ ____
ROOT
ATOM      1  N   UNL     1       6.127   6.736  17.070  0.00  0.00    +0.000 N 
ATOM      2  C   UNL     1       6.533   5.948  16.000  0.00  0.00    +0.000 C 
ATOM      3  O   UNL     1       7.690   5.820  15.604  0.00  0.00    +0.000 OA
ATOM      4  H   UNL     1       5.240   7.196  16.909  0.00  0.00    +0.000 HD
ENDROOT
BRANCH   1   7
ATOM      5  C   UNL     1       8.511   9.001  18.484  0.00  0.00    +0.000 A 
ATOM      6  C   UNL     1       7.448   8.829  17.550  0.00  0.00    +0.000 A 
ATOM      7  C   UNL     1       7.084   7.516  17.675  0.00  0.00    +0.000 A 
ATOM      8  O   UNL     1       7.886   6.911  18.585  0.00  0.00    +0.000 OA
ATOM      9  N   UNL     1       8.756   7.841  19.118  0.00  0.00    +0.000 NA
BRANCH   5  14
ATOM     10  C   UNL     1      11.634  13.754  19.581  0.00  0.00    +0.000 C 
ATOM     11  C   UNL     1      10.802  12.538  19.300  0.00  0.00    +0.000 A 
ATOM     12  C   UNL     1      10.362  11.719  20.343  0.00  0.00    +0.000 A 
ATOM     13  C   UNL     1       9.612  10.570  20.076  0.00  0.00    +0.000 A 
ATOM     14  C   UNL     1       9.285  10.214  18.760  0.00  0.00    +0.000 A 
ATOM     15  C   UNL     1       9.723  11.045  17.718  0.00  0.00    +0.000 A 
ATOM     16  C   UNL     1      10.471  12.197  17.985  0.00  0.00    +0.000 A 
ENDBRANCH   5  14
ENDBRANCH   1   7
BRANCH   2  17
ATOM     17  C   UNL     1       5.367   5.209  15.338  0.00  0.00    +0.000 C 
BRANCH  17  18
ATOM     18  O   UNL     1       5.244   3.884  15.843  0.00  0.00    +0.000 OA
BRANCH  18  19
ATOM     19  C   UNL     1       4.673   3.760  17.085  0.00  0.00    +0.000 A 
ATOM     20  C   UNL     1       5.367   3.653  18.293  0.00  0.00    +0.000 A 
ATOM     21  C   UNL     1       4.663   3.563  19.494  0.00  0.00    +0.000 A 
ATOM     22  C   UNL     1       3.266   3.575  19.519  0.00  0.00    +0.000 A 
ATOM     23 CL   UNL     1       2.489   3.479  21.057  0.00  0.00    +0.000 Cl
ATOM     24  C   UNL     1       2.549   3.663  18.314  0.00  0.00    +0.000 A 
ATOM     25  C   UNL     1       1.046   3.668  18.240  0.00  0.00    +0.000 C 
ATOM     26  C   UNL     1       3.273   3.755  17.108  0.00  0.00    +0.000 A 
ENDBRANCH  18  19
ENDBRANCH  17  18
ENDBRANCH   2  17
TORSDOF 5
ENDMDL
