MODEL 1
REMARK VINA RESULT:      -7.7      0.000      0.000
REMARK  Name = 
REMARK  2 active torsions:
REMARK  status: ('A' for Active; 'I' for Inactive)
REMARK    1  A    between atoms: C_2  and  C_14
REMARK    2  A    between atoms: N_3  and  C_4
REMARK                            x       y       z     vdW  Elec       q    Type
REMARK                         _______ _______ _______ _____ _____    ______ ____
ROOT
ATOM      1  O   UNL     1       1.319   5.001  17.693  0.00  0.00    +0.000 OA
ATOM      2  C   UNL     1       1.974   5.004  18.736  0.00  0.00    +0.000 C 
ATOM      3  N   UNL     1       2.311   6.131  19.479  0.00  0.00    +0.000 N 
ATOM      4  H   UNL     1       2.963   5.961  20.237  0.00  0.00    +0.000 HD
ENDROOT
BRANCH   3   5
ATOM      5  C   UNL     1       2.071   7.481  19.118  0.00  0.00    +0.000 A 
ATOM      6  C   UNL     1       2.473   7.977  17.867  0.00  0.00    +0.000 A 
ATOM      7  C   UNL     1       2.274   9.307  17.514  0.00  0.00    +0.000 A 
ATOM      8  C   UNL     1       1.650  10.171  18.401  0.00  0.00    +0.000 A 
ATOM      9  C   UNL     1       1.201   9.707  19.646  0.00  0.00    +0.000 A 
ATOM     10  C   UNL     1       1.425   8.359  20.023  0.00  0.00    +0.000 A 
ATOM     11  C   UNL     1       0.937   7.881  21.380  0.00  0.00    +0.000 C 
ATOM     12  C   UNL     1       0.618   9.002  22.370  0.00  0.00    +0.000 C 
ATOM     13  C   UNL     1      -0.229  10.073  21.706  0.00  0.00    +0.000 C 
ATOM     14  C   UNL     1       0.555  10.715  20.569  0.00  0.00    +0.000 C 
ENDBRANCH   3   5
BRANCH   2  15
ATOM     15  C   UNL     1       2.442   3.668  19.320  0.00  0.00    +0.000 C 
ATOM     16  C   UNL     1       2.030   3.564  20.793  0.00  0.00    +0.000 C 
ATOM     17  C   UNL     1       2.921   2.447  21.311  0.00  0.00    +0.000 C 
ATOM     18  C   UNL     1       4.252   2.704  20.604  0.00  0.00    +0.000 C 
ATOM     19  N   UNL     1       3.890   3.412  19.380  0.00  0.00    +0.000 N 
ATOM     20  C   UNL     1       4.860   3.962  18.607  0.00  0.00    +0.000 A 
ATOM     21  N   UNL     1       6.073   4.180  19.072  0.00  0.00    +0.000 NA
ATOM     22  C   UNL     1       6.835   4.875  18.158  0.00  0.00    +0.000 A 
ATOM     23  C   UNL     1       6.206   5.170  16.972  0.00  0.00    +0.000 A 
ATOM     24  S   UNL     1       4.642   4.474  16.969  0.00  0.00    +0.000 S 
ENDBRANCH   2  15
TORSDOF 2
ENDMDL
MODEL 2
REMARK VINA RESULT:      -7.4      1.592      3.178
REMARK  Name = 
REMARK  2 active torsions:
REMARK  status: ('A' for Active; 'I' for Inactive)
REMARK    1  A    between atoms: C_2  and  C_14
REMARK    2  A    between atoms: N_3  and  C_4
REMARK                            x       y       z     vdW  Elec       q    Type
REMARK                         _______ _______ _______ _____ _____    ______ ____
ROOT
ATOM      1  O   UNL     1       1.641   6.097  17.858  0.00  0.00    +0.000 OA
ATOM      2  C   UNL     1       2.598   6.655  18.395  0.00  0.00    +0.000 C 
ATOM      3  N   UNL     1       2.562   7.886  19.042  0.00  0.00    +0.000 N 
ATOM      4  H   UNL     1       3.469   8.251  19.312  0.00  0.00    +0.000 HD
ENDROOT
BRANCH   3   5
ATOM      5  C   UNL     1       1.459   8.775  19.099  0.00  0.00    +0.000 A 
ATOM      6  C   UNL     1       0.910   9.323  17.929  0.00  0.00    +0.000 A 
ATOM      7  C   UNL     1      -0.149  10.222  17.974  0.00  0.00    +0.000 A 
ATOM      8  C   UNL     1      -0.698  10.583  19.195  0.00  0.00    +0.000 A 
ATOM      9  C   UNL     1      -0.203  10.031  20.386  0.00  0.00    +0.000 A 
ATOM     10  C   UNL     1       0.895   9.134  20.349  0.00  0.00    +0.000 A 
ATOM     11  C   UNL     1       1.419   8.556  21.651  0.00  0.00    +0.000 C 
ATOM     12  C   UNL     1       0.977   9.312  22.905  0.00  0.00    +0.000 C 
ATOM     13  C   UNL     1      -0.515   9.588  22.861  0.00  0.00    +0.000 C 
ATOM     14  C   UNL     1      -0.834  10.493  21.678  0.00  0.00    +0.000 C 
ENDBRANCH   3   5
BRANCH   2  15
ATOM     15  C   UNL     1       3.955   5.945  18.410  0.00  0.00    +0.000 C 
ATOM     16  C   UNL     1       4.527   5.872  16.989  0.00  0.00    +0.000 C 
ATOM     17  C   UNL     1       5.593   4.796  17.112  0.00  0.00    +0.000 C 
ATOM     18  C   UNL     1       4.948   3.769  18.043  0.00  0.00    +0.000 C 
ATOM     19  N   UNL     1       3.992   4.537  18.836  0.00  0.00    +0.000 N 
ATOM     20  C   UNL     1       3.107   3.892  19.636  0.00  0.00    +0.000 A 
ATOM     21  N   UNL     1       2.842   2.610  19.482  0.00  0.00    +0.000 NA
ATOM     22  C   UNL     1       1.813   2.216  20.307  0.00  0.00    +0.000 A 
ATOM     23  C   UNL     1       1.300   3.199  21.120  0.00  0.00    +0.000 A 
ATOM     24  S   UNL     1       2.200   4.639  20.906  0.00  0.00    +0.000 S 
ENDBRANCH   2  15
TORSDOF 2
ENDMDL
MODEL 3
REMARK VINA RESULT:      -6.9      6.078      8.453
REMARK  Name = 
REMARK  2 active torsions:
REMARK  status: ('A' for Active; 'I' for Inactive)
REMARK    1  A    between atoms: C_2  and  C_14
REMARK    2  A    between atoms: N_3  and  C_4
REMARK                            x       y       z     vdW  Elec       q    Type
REMARK                         _______ _______ _______ _____ _____    ______ ____
ROOT
ATOM      1  O   UNL     1      -0.048  12.144  18.883  0.00  0.00    +0.000 OA
ATOM      2  C   UNL     1      -0.489  11.180  19.507  0.00  0.00    +0.000 C 
ATOM      3  N   UNL     1      -1.554  10.376  19.113  0.00  0.00    +0.000 N 
ATOM      4  H   UNL     1      -1.865   9.709  19.811  0.00  0.00    +0.000 HD
ENDROOT
BRANCH   3   5
ATOM      5  C   UNL     1      -2.398  10.585  17.993  0.00  0.00    +0.000 A 
ATOM      6  C   UNL     1      -2.045  10.104  16.722  0.00  0.00    +0.000 A 
ATOM      7  C   UNL     1      -2.847  10.331  15.609  0.00  0.00    +0.000 A 
ATOM      8  C   UNL     1      -4.035  11.033  15.746  0.00  0.00    +0.000 A 
ATOM      9  C   UNL     1      -4.442  11.500  17.004  0.00  0.00    +0.000 A 
ATOM     10  C   UNL     1      -3.616  11.295  18.138  0.00  0.00    +0.000 A 
ATOM     11  C   UNL     1      -4.073  11.817  19.489  0.00  0.00    +0.000 C 
ATOM     12  C   UNL     1      -5.183  12.868  19.420  0.00  0.00    +0.000 C 
ATOM     13  C   UNL     1      -6.287  12.414  18.481  0.00  0.00    +0.000 C 
ATOM     14  C   UNL     1      -5.735  12.280  17.069  0.00  0.00    +0.000 C 
ENDBRANCH   3   5
BRANCH   2  15
ATOM     15  C   UNL     1       0.191  10.772  20.818  0.00  0.00    +0.000 C 
ATOM     16  C   UNL     1       0.339   9.248  20.883  0.00  0.00    +0.000 C 
ATOM     17  C   UNL     1       0.597   9.000  22.360  0.00  0.00    +0.000 C 
ATOM     18  C   UNL     1      -0.331  10.000  23.050  0.00  0.00    +0.000 C 
ATOM     19  N   UNL     1      -0.506  11.074  22.078  0.00  0.00    +0.000 N 
ATOM     20  C   UNL     1      -1.432  12.041  22.300  0.00  0.00    +0.000 A 
ATOM     21  N   UNL     1      -2.405  11.878  23.173  0.00  0.00    +0.000 NA
ATOM     22  C   UNL     1      -3.298  12.925  23.119  0.00  0.00    +0.000 A 
ATOM     23  C   UNL     1      -2.992  13.912  22.213  0.00  0.00    +0.000 A 
ATOM     24  S   UNL     1      -1.490  13.559  21.472  0.00  0.00    +0.000 S 
ENDBRANCH   2  15
TORSDOF 2
ENDMDL
MODEL 4
REMARK VINA RESULT:      -6.8      3.143      6.953
REMARK  Name = 
REMARK  2 active torsions:
REMARK  status: ('A' for Active; 'I' for Inactive)
REMARK    1  A    between atoms: C_2  and  C_14
REMARK    2  A    between atoms: N_3  and  C_4
REMARK                            x       y       z     vdW  Elec       q    Type
REMARK                         _______ _______ _______ _____ _____    ______ ____
ROOT
ATOM      1  O   UNL     1       0.595   9.281  19.211  0.00  0.00    +0.000 OA
ATOM      2  C   UNL     1       1.126   8.960  20.274  0.00  0.00    +0.000 C 
ATOM      3  N   UNL     1       2.082   7.963  20.434  0.00  0.00    +0.000 N 
ATOM      4  H   UNL     1       2.314   7.747  21.398  0.00  0.00    +0.000 HD
ENDROOT
BRANCH   3   5
ATOM      5  C   UNL     1       2.532   7.058  19.440  0.00  0.00    +0.000 A 
ATOM      6  C   UNL     1       3.243   7.512  18.317  0.00  0.00    +0.000 A 
ATOM      7  C   UNL     1       3.660   6.640  17.318  0.00  0.00    +0.000 A 
ATOM      8  C   UNL     1       3.390   5.284  17.428  0.00  0.00    +0.000 A 
ATOM      9  C   UNL     1       2.714   4.784  18.551  0.00  0.00    +0.000 A 
ATOM     10  C   UNL     1       2.263   5.672  19.560  0.00  0.00    +0.000 A 
ATOM     11  C   UNL     1       1.525   5.109  20.763  0.00  0.00    +0.000 C 
ATOM     12  C   UNL     1       0.985   3.691  20.569  0.00  0.00    +0.000 C 
ATOM     13  C   UNL     1       2.052   2.792  19.971  0.00  0.00    +0.000 C 
ATOM     14  C   UNL     1       2.433   3.300  18.587  0.00  0.00    +0.000 C 
ENDBRANCH   3   5
BRANCH   2  15
ATOM     15  C   UNL     1       0.759   9.729  21.546  0.00  0.00    +0.000 C 
ATOM     16  C   UNL     1      -0.366   9.004  22.294  0.00  0.00    +0.000 C 
ATOM     17  C   UNL     1      -0.892  10.079  23.231  0.00  0.00    +0.000 C 
ATOM     18  C   UNL     1      -0.839  11.345  22.376  0.00  0.00    +0.000 C 
ATOM     19  N   UNL     1       0.213  11.087  21.397  0.00  0.00    +0.000 N 
ATOM     20  C   UNL     1       0.390  11.940  20.357  0.00  0.00    +0.000 A 
ATOM     21  N   UNL     1      -0.543  12.798  20.000  0.00  0.00    +0.000 NA
ATOM     22  C   UNL     1      -0.196  13.450  18.838  0.00  0.00    +0.000 A 
ATOM     23  C   UNL     1       1.027  13.107  18.313  0.00  0.00    +0.000 A 
ATOM     24  S   UNL     1       1.803  11.998  19.360  0.00  0.00    +0.000 S 
ENDBRANCH   2  15
TORSDOF 2
ENDMDL
MODEL 5
REMARK VINA RESULT:      -6.7      2.756      5.165
REMARK  Name = 
REMARK  2 active torsions:
REMARK  status: ('A' for Active; 'I' for Inactive)
REMARK    1  A    between atoms: C_2  and  C_14
REMARK    2  A    between atoms: N_3  and  C_4
REMARK                            x       y       z     vdW  Elec       q    Type
REMARK                         _______ _______ _______ _____ _____    ______ ____
ROOT
ATOM      1  O   UNL     1       4.158   7.429  16.357  0.00  0.00    +0.000 OA
ATOM      2  C   UNL     1       4.542   6.260  16.363  0.00  0.00    +0.000 C 
ATOM      3  N   UNL     1       4.095   5.264  17.225  0.00  0.00    +0.000 N 
ATOM      4  H   UNL     1       4.613   4.393  17.175  0.00  0.00    +0.000 HD
ENDROOT
BRANCH   3   5
ATOM      5  C   UNL     1       3.213   5.433  18.322  0.00  0.00    +0.000 A 
ATOM      6  C   UNL     1       3.092   6.673  18.969  0.00  0.00    +0.000 A 
ATOM      7  C   UNL     1       2.256   6.843  20.067  0.00  0.00    +0.000 A 
ATOM      8  C   UNL     1       1.505   5.775  20.535  0.00  0.00    +0.000 A 
ATOM      9  C   UNL     1       1.569   4.529  19.895  0.00  0.00    +0.000 A 
ATOM     10  C   UNL     1       2.440   4.342  18.792  0.00  0.00    +0.000 A 
ATOM     11  C   UNL     1       2.498   2.981  18.120  0.00  0.00    +0.000 C 
ATOM     12  C   UNL     1       1.919   1.836  18.954  0.00  0.00    +0.000 C 
ATOM     13  C   UNL     1       0.571   2.228  19.531  0.00  0.00    +0.000 C 
ATOM     14  C   UNL     1       0.742   3.407  20.479  0.00  0.00    +0.000 C 
ENDBRANCH   3   5
BRANCH   2  15
ATOM     15  C   UNL     1       5.572   5.813  15.322  0.00  0.00    +0.000 C 
ATOM     16  C   UNL     1       4.973   4.727  14.420  0.00  0.00    +0.000 C 
ATOM     17  C   UNL     1       6.204   4.108  13.779  0.00  0.00    +0.000 C 
ATOM     18  C   UNL     1       7.220   4.088  14.921  0.00  0.00    +0.000 C 
ATOM     19  N   UNL     1       6.807   5.175  15.803  0.00  0.00    +0.000 N 
ATOM     20  C   UNL     1       7.388   5.313  17.022  0.00  0.00    +0.000 A 
ATOM     21  N   UNL     1       8.060   4.328  17.582  0.00  0.00    +0.000 NA
ATOM     22  C   UNL     1       8.429   4.651  18.869  0.00  0.00    +0.000 A 
ATOM     23  C   UNL     1       8.058   5.906  19.290  0.00  0.00    +0.000 A 
ATOM     24  S   UNL     1       7.302   6.738  17.999  0.00  0.00    +0.000 S 
ENDBRANCH   2  15
TORSDOF 2
ENDMDL
MODEL 6
REMARK VINA RESULT:      -6.6      1.341      1.538
REMARK  Name = 
REMARK  2 active torsions:
REMARK  status: ('A' for Active; 'I' for Inactive)
REMARK    1  A    between atoms: C_2  and  C_14
REMARK    2  A    between atoms: N_3  and  C_4
REMARK                            x       y       z     vdW  Elec       q    Type
REMARK                         _______ _______ _______ _____ _____    ______ ____
ROOT
ATOM      1  O   UNL     1       3.669   6.973  17.103  0.00  0.00    +0.000 OA
ATOM      2  C   UNL     1       3.076   6.437  18.039  0.00  0.00    +0.000 C 
ATOM      3  N   UNL     1       2.180   7.064  18.897  0.00  0.00    +0.000 N 
ATOM      4  H   UNL     1       1.886   6.503  19.690  0.00  0.00    +0.000 HD
ENDROOT
BRANCH   3   5
ATOM      5  C   UNL     1       1.875   8.448  18.933  0.00  0.00    +0.000 A 
ATOM      6  C   UNL     1       2.186   9.286  17.851  0.00  0.00    +0.000 A 
ATOM      7  C   UNL     1       1.924  10.650  17.887  0.00  0.00    +0.000 A 
ATOM      8  C   UNL     1       1.324  11.209  19.005  0.00  0.00    +0.000 A 
ATOM      9  C   UNL     1       0.963  10.402  20.094  0.00  0.00    +0.000 A 
ATOM     10  C   UNL     1       1.253   9.014  20.074  0.00  0.00    +0.000 A 
ATOM     11  C   UNL     1       0.861   8.161  21.268  0.00  0.00    +0.000 C 
ATOM     12  C   UNL     1       0.562   8.952  22.543  0.00  0.00    +0.000 C 
ATOM     13  C   UNL     1      -0.357  10.122  22.239  0.00  0.00    +0.000 C 
ATOM     14  C   UNL     1       0.339  11.086  21.287  0.00  0.00    +0.000 C 
ENDBRANCH   3   5
BRANCH   2  15
ATOM     15  C   UNL     1       3.286   4.940  18.287  0.00  0.00    +0.000 C 
ATOM     16  C   UNL     1       2.308   4.442  19.357  0.00  0.00    +0.000 C 
ATOM     17  C   UNL     1       2.927   3.121  19.786  0.00  0.00    +0.000 C 
ATOM     18  C   UNL     1       4.426   3.420  19.784  0.00  0.00    +0.000 C 
ATOM     19  N   UNL     1       4.586   4.506  18.822  0.00  0.00    +0.000 N 
ATOM     20  C   UNL     1       5.778   5.145  18.718  0.00  0.00    +0.000 A 
ATOM     21  N   UNL     1       6.691   5.064  19.665  0.00  0.00    +0.000 NA
ATOM     22  C   UNL     1       7.748   5.907  19.406  0.00  0.00    +0.000 A 
ATOM     23  C   UNL     1       7.656   6.623  18.236  0.00  0.00    +0.000 A 
ATOM     24  S   UNL     1       6.242   6.155  17.392  0.00  0.00    +0.000 S 
ENDBRANCH   2  15
TORSDOF 2
ENDMDL
MODEL 7
REMARK VINA RESULT:      -6.5      6.335      9.212
REMARK  Name = 
REMARK  2 active torsions:
REMARK  status: ('A' for Active; 'I' for Inactive)
REMARK    1  A    between atoms: C_2  and  C_14
REMARK    2  A    between atoms: N_3  and  C_4
REMARK                            x       y       z     vdW  Elec       q    Type
REMARK                         _______ _______ _______ _____ _____    ______ ____
ROOT
ATOM      1  O   UNL     1      -2.293  11.251  19.105  0.00  0.00    +0.000 OA
ATOM      2  C   UNL     1      -2.277  12.375  19.607  0.00  0.00    +0.000 C 
ATOM      3  N   UNL     1      -3.377  13.040  20.139  0.00  0.00    +0.000 N 
ATOM      4  H   UNL     1      -3.207  14.008  20.392  0.00  0.00    +0.000 HD
ENDROOT
BRANCH   3   5
ATOM      5  C   UNL     1      -4.726  12.607  20.097  0.00  0.00    +0.000 A 
ATOM      6  C   UNL     1      -5.303  12.155  18.899  0.00  0.00    +0.000 A 
ATOM      7  C   UNL     1      -6.634  11.760  18.836  0.00  0.00    +0.000 A 
ATOM      8  C   UNL     1      -7.418  11.790  19.979  0.00  0.00    +0.000 A 
ATOM      9  C   UNL     1      -6.872  12.201  21.204  0.00  0.00    +0.000 A 
ATOM     10  C   UNL     1      -5.522  12.631  21.269  0.00  0.00    +0.000 A 
ATOM     11  C   UNL     1      -4.954  13.079  22.604  0.00  0.00    +0.000 C 
ATOM     12  C   UNL     1      -6.007  13.410  23.663  0.00  0.00    +0.000 C 
ATOM     13  C   UNL     1      -7.057  12.315  23.728  0.00  0.00    +0.000 C 
ATOM     14  C   UNL     1      -7.795  12.233  22.399  0.00  0.00    +0.000 C 
ENDBRANCH   3   5
BRANCH   2  15
ATOM     15  C   UNL     1      -0.945  13.122  19.710  0.00  0.00    +0.000 C 
ATOM     16  C   UNL     1      -0.332  13.300  18.316  0.00  0.00    +0.000 C 
ATOM     17  C   UNL     1       1.119  13.631  18.628  0.00  0.00    +0.000 C 
ATOM     18  C   UNL     1       1.438  12.718  19.812  0.00  0.00    +0.000 C 
ATOM     19  N   UNL     1       0.150  12.480  20.454  0.00  0.00    +0.000 N 
ATOM     20  C   UNL     1       0.047  11.548  21.435  0.00  0.00    +0.000 A 
ATOM     21  N   UNL     1       0.966  10.619  21.605  0.00  0.00    +0.000 NA
ATOM     22  C   UNL     1       0.575   9.706  22.559  0.00  0.00    +0.000 A 
ATOM     23  C   UNL     1      -0.645   9.952  23.145  0.00  0.00    +0.000 A 
ATOM     24  S   UNL     1      -1.277  11.424  22.542  0.00  0.00    +0.000 S 
ENDBRANCH   2  15
TORSDOF 2
ENDMDL
MODEL 8
REMARK VINA RESULT:      -6.5      7.796     11.312
REMARK  Name = 
REMARK  2 active torsions:
REMARK  status: ('A' for Active; 'I' for Inactive)
REMARK    1  A    between atoms: C_2  and  C_14
REMARK    2  A    between atoms: N_3  and  C_4
REMARK                            x       y       z     vdW  Elec       q    Type
REMARK                         _______ _______ _______ _____ _____    ______ ____
ROOT
ATOM      1  O   UNL     1      -6.459  11.111  18.512  0.00  0.00    +0.000 OA
ATOM      2  C   UNL     1      -6.082  12.201  18.082  0.00  0.00    +0.000 C 
ATOM      3  N   UNL     1      -4.855  12.454  17.478  0.00  0.00    +0.000 N 
ATOM      4  H   UNL     1      -4.661  13.434  17.302  0.00  0.00    +0.000 HD
ENDROOT
BRANCH   3   5
ATOM      5  C   UNL     1      -3.774  11.545  17.352  0.00  0.00    +0.000 A 
ATOM      6  C   UNL     1      -3.683  10.678  16.252  0.00  0.00    +0.000 A 
ATOM      7  C   UNL     1      -2.646   9.759  16.134  0.00  0.00    +0.000 A 
ATOM      8  C   UNL     1      -1.663   9.698  17.109  0.00  0.00    +0.000 A 
ATOM      9  C   UNL     1      -1.696  10.572  18.206  0.00  0.00    +0.000 A 
ATOM     10  C   UNL     1      -2.766  11.493  18.346  0.00  0.00    +0.000 A 
ATOM     11  C   UNL     1      -2.786  12.423  19.546  0.00  0.00    +0.000 C 
ATOM     12  C   UNL     1      -1.871  11.996  20.696  0.00  0.00    +0.000 C 
ATOM     13  C   UNL     1      -0.495  11.628  20.171  0.00  0.00    +0.000 C 
ATOM     14  C   UNL     1      -0.605  10.427  19.241  0.00  0.00    +0.000 C 
ENDBRANCH   3   5
BRANCH   2  15
ATOM     15  C   UNL     1      -7.033  13.399  18.166  0.00  0.00    +0.000 C 
ATOM     16  C   UNL     1      -6.947  14.230  16.880  0.00  0.00    +0.000 C 
ATOM     17  C   UNL     1      -7.572  15.552  17.294  0.00  0.00    +0.000 C 
ATOM     18  C   UNL     1      -7.052  15.754  18.718  0.00  0.00    +0.000 C 
ATOM     19  N   UNL     1      -6.782  14.406  19.208  0.00  0.00    +0.000 N 
ATOM     20  C   UNL     1      -6.124  14.235  20.383  0.00  0.00    +0.000 A 
ATOM     21  N   UNL     1      -5.427  15.208  20.933  0.00  0.00    +0.000 NA
ATOM     22  C   UNL     1      -4.735  14.758  22.035  0.00  0.00    +0.000 A 
ATOM     23  C   UNL     1      -4.924  13.433  22.348  0.00  0.00    +0.000 A 
ATOM     24  S   UNL     1      -6.076  12.756  21.278  0.00  0.00    +0.000 S 
ENDBRANCH   2  15
TORSDOF 2
ENDMDL
MODEL 9
REMARK VINA RESULT:      -6.4      3.711      7.851
REMARK  Name = 
REMARK  2 active torsions:
REMARK  status: ('A' for Active; 'I' for Inactive)
REMARK    1  A    between atoms: C_2  and  C_14
REMARK    2  A    between atoms: N_3  and  C_4
REMARK                            x       y       z     vdW  Elec       q    Type
REMARK                         _______ _______ _______ _____ _____    ______ ____
ROOT
ATOM      1  O   UNL     1      -0.101   9.569  20.338  0.00  0.00    +0.000 OA
ATOM      2  C   UNL     1       0.794   9.916  19.568  0.00  0.00    +0.000 C 
ATOM      3  N   UNL     1       1.783   9.087  19.048  0.00  0.00    +0.000 N 
ATOM      4  H   UNL     1       2.514   9.568  18.534  0.00  0.00    +0.000 HD
ENDROOT
BRANCH   3   5
ATOM      5  C   UNL     1       2.018   7.733  19.397  0.00  0.00    +0.000 A 
ATOM      6  C   UNL     1       1.382   7.151  20.505  0.00  0.00    +0.000 A 
ATOM      7  C   UNL     1       1.629   5.835  20.878  0.00  0.00    +0.000 A 
ATOM      8  C   UNL     1       2.509   5.061  20.137  0.00  0.00    +0.000 A 
ATOM      9  C   UNL     1       3.138   5.592  19.001  0.00  0.00    +0.000 A 
ATOM     10  C   UNL     1       2.911   6.943  18.632  0.00  0.00    +0.000 A 
ATOM     11  C   UNL     1       3.609   7.499  17.403  0.00  0.00    +0.000 C 
ATOM     12  C   UNL     1       4.803   6.672  16.923  0.00  0.00    +0.000 C 
ATOM     13  C   UNL     1       4.439   5.199  16.863  0.00  0.00    +0.000 C 
ATOM     14  C   UNL     1       4.103   4.697  18.261  0.00  0.00    +0.000 C 
ENDBRANCH   3   5
BRANCH   2  15
ATOM     15  C   UNL     1       0.832  11.368  19.083  0.00  0.00    +0.000 C 
ATOM     16  C   UNL     1       1.279  12.292  20.223  0.00  0.00    +0.000 C 
ATOM     17  C   UNL     1       0.843  13.663  19.731  0.00  0.00    +0.000 C 
ATOM     18  C   UNL     1      -0.505  13.384  19.066  0.00  0.00    +0.000 C 
ATOM     19  N   UNL     1      -0.433  11.985  18.656  0.00  0.00    +0.000 N 
ATOM     20  C   UNL     1      -1.547  11.358  18.200  0.00  0.00    +0.000 A 
ATOM     21  N   UNL     1      -2.752  11.841  18.422  0.00  0.00    +0.000 NA
ATOM     22  C   UNL     1      -3.723  10.963  17.994  0.00  0.00    +0.000 A 
ATOM     23  C   UNL     1      -3.256   9.806  17.415  0.00  0.00    +0.000 A 
ATOM     24  S   UNL     1      -1.548   9.866  17.324  0.00  0.00    +0.000 S 
ENDBRANCH   2  15
TORSDOF 2
ENDMDL
