MODEL 1
REMARK VINA RESULT:      -7.7      0.000      0.000
REMARK  Name = 
REMARK  6 active torsions:
REMARK  status: ('A' for Active; 'I' for Inactive)
REMARK    1  A    between atoms: C_1  and  C_2
REMARK    2  A    between atoms: C_6  and  N_7
REMARK    3  A    between atoms: C_11  and  C_13
REMARK    4  A    between atoms: C_13  and  C_14
REMARK    5  A    between atoms: C_14  and  C_15
REMARK    6  A    between atoms: C_16  and  C_17
REMARK                            x       y       z     vdW  Elec       q    Type
REMARK                         _______ _______ _______ _____ _____    ______ ____
ROOT
ATOM      1  N   UNL     1       1.709   7.230  19.923  0.00  0.00    +0.000 N 
ATOM      2  C   UNL     1       1.881   6.013  20.729  0.00  0.00    +0.000 C 
ATOM      3  C   UNL     1       1.691   4.792  19.817  0.00  0.00    +0.000 C 
ATOM      4  N   UNL     1       2.605   4.837  18.666  0.00  0.00    +0.000 N 
ATOM      5  C   UNL     1       3.240   3.671  18.282  0.00  0.00    +0.000 C 
ATOM      6  O   UNL     1       3.123   2.623  18.918  0.00  0.00    +0.000 OA
ATOM      7  C   UNL     1       2.554   6.095  17.896  0.00  0.00    +0.000 C 
ATOM      8  C   UNL     1       2.658   7.347  18.801  0.00  0.00    +0.000 C 
ENDROOT
BRANCH   1  14
ATOM      9  C   UNL     1      -0.047  11.778  19.370  0.00  0.00    +0.000 C 
ATOM     10  C   UNL     1       0.353  10.656  20.281  0.00  0.00    +0.000 A 
ATOM     11  C   UNL     1       0.092  10.708  21.650  0.00  0.00    +0.000 A 
ATOM     12  C   UNL     1       0.431   9.630  22.465  0.00  0.00    +0.000 A 
ATOM     13  C   UNL     1       1.009   8.484  21.911  0.00  0.00    +0.000 A 
ATOM     14  C   UNL     1       1.270   8.394  20.538  0.00  0.00    +0.000 A 
ATOM     15  C   UNL     1       0.963   9.511  19.745  0.00  0.00    +0.000 A 
ENDBRANCH   1  14
BRANCH   5  16
ATOM     16  C   UNL     1       4.130   3.735  17.055  0.00  0.00    +0.000 C 
BRANCH  16  17
ATOM     17  C   UNL     1       5.607   3.734  17.456  0.00  0.00    +0.000 C 
BRANCH  17  18
ATOM     18  C   UNL     1       6.431   4.644  16.610  0.00  0.00    +0.000 A 
ATOM     19  C   UNL     1       6.598   4.627  15.195  0.00  0.00    +0.000 A 
ATOM     20  C   UNL     1       6.023   3.702  14.189  0.00  0.00    +0.000 C 
ATOM     21  N   UNL     1       7.408   5.610  14.787  0.00  0.00    +0.000 NA
ATOM     22  O   UNL     1       7.785   6.287  15.930  0.00  0.00    +0.000 OA
ATOM     23  C   UNL     1       7.207   5.710  17.017  0.00  0.00    +0.000 A 
ATOM     24 CL   UNL     1       7.464   6.269  18.622  0.00  0.00    +0.000 Cl
ENDBRANCH  17  18
ENDBRANCH  16  17
ENDBRANCH   5  16
TORSDOF 4
ENDMDL
MODEL 2
REMARK VINA RESULT:      -7.6      1.228      1.716
REMARK  Name = 
REMARK  6 active torsions:
REMARK  status: ('A' for Active; 'I' for Inactive)
REMARK    1  A    between atoms: C_1  and  C_2
REMARK    2  A    between atoms: C_6  and  N_7
REMARK    3  A    between atoms: C_11  and  C_13
REMARK    4  A    between atoms: C_13  and  C_14
REMARK    5  A    between atoms: C_14  and  C_15
REMARK    6  A    between atoms: C_16  and  C_17
REMARK                            x       y       z     vdW  Elec       q    Type
REMARK                         _______ _______ _______ _____ _____    ______ ____
ROOT
ATOM      1  N   UNL     1       1.680   7.235  19.970  0.00  0.00    +0.000 N 
ATOM      2  C   UNL     1       1.877   6.035  20.797  0.00  0.00    +0.000 C 
ATOM      3  C   UNL     1       1.677   4.795  19.913  0.00  0.00    +0.000 C 
ATOM      4  N   UNL     1       2.566   4.822  18.743  0.00  0.00    +0.000 N 
ATOM      5  C   UNL     1       3.201   3.653  18.369  0.00  0.00    +0.000 C 
ATOM      6  O   UNL     1       3.104   2.617  19.028  0.00  0.00    +0.000 OA
ATOM      7  C   UNL     1       2.491   6.064  17.949  0.00  0.00    +0.000 C 
ATOM      8  C   UNL     1       2.605   7.335  18.826  0.00  0.00    +0.000 C 
ENDROOT
BRANCH   1  14
ATOM      9  C   UNL     1      -0.095  11.768  19.362  0.00  0.00    +0.000 C 
ATOM     10  C   UNL     1       0.320  10.663  20.286  0.00  0.00    +0.000 A 
ATOM     11  C   UNL     1       0.077  10.738  21.658  0.00  0.00    +0.000 A 
ATOM     12  C   UNL     1       0.431   9.675  22.487  0.00  0.00    +0.000 A 
ATOM     13  C   UNL     1       1.004   8.521  21.945  0.00  0.00    +0.000 A 
ATOM     14  C   UNL     1       1.247   8.408  20.571  0.00  0.00    +0.000 A 
ATOM     15  C   UNL     1       0.926   9.510  19.763  0.00  0.00    +0.000 A 
ENDBRANCH   1  14
BRANCH   5  16
ATOM     16  C   UNL     1       4.065   3.697  17.123  0.00  0.00    +0.000 C 
BRANCH  16  17
ATOM     17  C   UNL     1       5.550   3.629  17.490  0.00  0.00    +0.000 C 
BRANCH  17  18
ATOM     18  C   UNL     1       6.371   4.621  16.739  0.00  0.00    +0.000 A 
ATOM     19  C   UNL     1       7.146   5.700  17.254  0.00  0.00    +0.000 A 
ATOM     20  C   UNL     1       7.332   6.140  18.658  0.00  0.00    +0.000 C 
ATOM     21  N   UNL     1       7.761   6.372  16.274  0.00  0.00    +0.000 NA
ATOM     22  O   UNL     1       7.396   5.743  15.100  0.00  0.00    +0.000 OA
ATOM     23  C   UNL     1       6.566   4.703  15.375  0.00  0.00    +0.000 A 
ATOM     24 CL   UNL     1       5.888   3.697  14.156  0.00  0.00    +0.000 Cl
ENDBRANCH  17  18
ENDBRANCH  16  17
ENDBRANCH   5  16
TORSDOF 4
ENDMDL
MODEL 3
REMARK VINA RESULT:      -7.6      1.623      2.128
REMARK  Name = 
REMARK  6 active torsions:
REMARK  status: ('A' for Active; 'I' for Inactive)
REMARK    1  A    between atoms: C_1  and  C_2
REMARK    2  A    between atoms: C_6  and  N_7
REMARK    3  A    between atoms: C_11  and  C_13
REMARK    4  A    between atoms: C_13  and  C_14
REMARK    5  A    between atoms: C_14  and  C_15
REMARK    6  A    between atoms: C_16  and  C_17
REMARK                            x       y       z     vdW  Elec       q    Type
REMARK                         _______ _______ _______ _____ _____    ______ ____
ROOT
ATOM      1  N   UNL     1       0.942   9.012  20.481  0.00  0.00    +0.000 N 
ATOM      2  C   UNL     1       1.722   8.052  21.276  0.00  0.00    +0.000 C 
ATOM      3  C   UNL     1       1.896   6.766  20.456  0.00  0.00    +0.000 C 
ATOM      4  N   UNL     1       2.511   7.042  19.150  0.00  0.00    +0.000 N 
ATOM      5  C   UNL     1       3.491   6.185  18.688  0.00  0.00    +0.000 C 
ATOM      6  O   UNL     1       3.915   5.249  19.367  0.00  0.00    +0.000 OA
ATOM      7  C   UNL     1       1.830   8.091  18.365  0.00  0.00    +0.000 C 
ATOM      8  C   UNL     1       1.565   9.371  19.193  0.00  0.00    +0.000 C 
ENDROOT
BRANCH   1  14
ATOM      9  C   UNL     1      -1.827  13.043  20.092  0.00  0.00    +0.000 C 
ATOM     10  C   UNL     1      -1.243  11.962  20.951  0.00  0.00    +0.000 A 
ATOM     11  C   UNL     1      -1.629  11.810  22.284  0.00  0.00    +0.000 A 
ATOM     12  C   UNL     1      -1.106  10.767  23.045  0.00  0.00    +0.000 A 
ATOM     13  C   UNL     1      -0.217   9.854  22.471  0.00  0.00    +0.000 A 
ATOM     14  C   UNL     1       0.177   9.969  21.132  0.00  0.00    +0.000 A 
ATOM     15  C   UNL     1      -0.325  11.056  20.399  0.00  0.00    +0.000 A 
ENDBRANCH   1  14
BRANCH   5  16
ATOM     16  C   UNL     1       4.066   6.462  17.311  0.00  0.00    +0.000 C 
BRANCH  16  17
ATOM     17  C   UNL     1       5.523   6.918  17.413  0.00  0.00    +0.000 C 
BRANCH  17  18
ATOM     18  C   UNL     1       6.489   5.808  17.180  0.00  0.00    +0.000 A 
ATOM     19  C   UNL     1       6.665   5.018  16.008  0.00  0.00    +0.000 A 
ATOM     20  C   UNL     1       5.933   5.069  14.719  0.00  0.00    +0.000 C 
ATOM     21  N   UNL     1       7.642   4.118  16.166  0.00  0.00    +0.000 NA
ATOM     22  O   UNL     1       8.121   4.305  17.447  0.00  0.00    +0.000 OA
ATOM     23  C   UNL     1       7.433   5.307  18.054  0.00  0.00    +0.000 A 
ATOM     24 CL   UNL     1       7.739   5.809  19.670  0.00  0.00    +0.000 Cl
ENDBRANCH  17  18
ENDBRANCH  16  17
ENDBRANCH   5  16
TORSDOF 4
ENDMDL
MODEL 4
REMARK VINA RESULT:      -7.5      0.928      1.002
REMARK  Name = 
REMARK  6 active torsions:
REMARK  status: ('A' for Active; 'I' for Inactive)
REMARK    1  A    between atoms: C_1  and  C_2
REMARK    2  A    between atoms: C_6  and  N_7
REMARK    3  A    between atoms: C_11  and  C_13
REMARK    4  A    between atoms: C_13  and  C_14
REMARK    5  A    between atoms: C_14  and  C_15
REMARK    6  A    between atoms: C_16  and  C_17
REMARK                            x       y       z     vdW  Elec       q    Type
REMARK                         _______ _______ _______ _____ _____    ______ ____
ROOT
ATOM      1  N   UNL     1       1.210   8.027  20.402  0.00  0.00    +0.000 N 
ATOM      2  C   UNL     1       1.847   6.960  21.187  0.00  0.00    +0.000 C 
ATOM      3  C   UNL     1       1.804   5.660  20.370  0.00  0.00    +0.000 C 
ATOM      4  N   UNL     1       2.429   5.836  19.051  0.00  0.00    +0.000 N 
ATOM      5  C   UNL     1       3.255   4.836  18.575  0.00  0.00    +0.000 C 
ATOM      6  O   UNL     1       3.542   3.847  19.250  0.00  0.00    +0.000 OA
ATOM      7  C   UNL     1       1.902   6.975  18.274  0.00  0.00    +0.000 C 
ATOM      8  C   UNL     1       1.855   8.283  19.101  0.00  0.00    +0.000 C 
ENDROOT
BRANCH   1  14
ATOM      9  C   UNL     1      -1.148  12.313  20.031  0.00  0.00    +0.000 C 
ATOM     10  C   UNL     1      -0.601  11.217  20.895  0.00  0.00    +0.000 A 
ATOM     11  C   UNL     1      -0.871  11.173  22.264  0.00  0.00    +0.000 A 
ATOM     12  C   UNL     1      -0.389  10.117  23.034  0.00  0.00    +0.000 A 
ATOM     13  C   UNL     1       0.341   9.086  22.436  0.00  0.00    +0.000 A 
ATOM     14  C   UNL     1       0.615   9.092  21.063  0.00  0.00    +0.000 A 
ATOM     15  C   UNL     1       0.160  10.191  20.316  0.00  0.00    +0.000 A 
ENDBRANCH   1  14
BRANCH   5  16
ATOM     16  C   UNL     1       3.838   5.018  17.186  0.00  0.00    +0.000 C 
BRANCH  16  17
ATOM     17  C   UNL     1       5.065   4.124  16.991  0.00  0.00    +0.000 C 
BRANCH  17  18
ATOM     18  C   UNL     1       6.156   4.804  16.236  0.00  0.00    +0.000 A 
ATOM     19  C   UNL     1       6.502   4.663  14.862  0.00  0.00    +0.000 A 
ATOM     20  C   UNL     1       5.895   3.798  13.821  0.00  0.00    +0.000 C 
ATOM     21  N   UNL     1       7.536   5.446  14.534  0.00  0.00    +0.000 NA
ATOM     22  O   UNL     1       7.883   6.114  15.693  0.00  0.00    +0.000 OA
ATOM     23  C   UNL     1       7.065   5.730  16.707  0.00  0.00    +0.000 A 
ATOM     24 CL   UNL     1       7.211   6.336  18.310  0.00  0.00    +0.000 Cl
ENDBRANCH  17  18
ENDBRANCH  16  17
ENDBRANCH   5  16
TORSDOF 4
ENDMDL
MODEL 5
REMARK VINA RESULT:      -7.5      2.219      4.159
REMARK  Name = 
REMARK  6 active torsions:
REMARK  status: ('A' for Active; 'I' for Inactive)
REMARK    1  A    between atoms: C_1  and  C_2
REMARK    2  A    between atoms: C_6  and  N_7
REMARK    3  A    between atoms: C_11  and  C_13
REMARK    4  A    between atoms: C_13  and  C_14
REMARK    5  A    between atoms: C_14  and  C_15
REMARK    6  A    between atoms: C_16  and  C_17
REMARK                            x       y       z     vdW  Elec       q    Type
REMARK                         _______ _______ _______ _____ _____    ______ ____
ROOT
ATOM      1  N   UNL     1       2.102   8.112  19.176  0.00  0.00    +0.000 N 
ATOM      2  C   UNL     1       2.238   8.151  17.713  0.00  0.00    +0.000 C 
ATOM      3  C   UNL     1       3.682   7.779  17.346  0.00  0.00    +0.000 C 
ATOM      4  N   UNL     1       4.058   6.475  17.910  0.00  0.00    +0.000 N 
ATOM      5  C   UNL     1       4.776   5.597  17.120  0.00  0.00    +0.000 C 
ATOM      6  O   UNL     1       5.040   5.843  15.942  0.00  0.00    +0.000 OA
ATOM      7  C   UNL     1       3.824   6.348  19.362  0.00  0.00    +0.000 C 
ATOM      8  C   UNL     1       2.401   6.797  19.772  0.00  0.00    +0.000 C 
ENDROOT
BRANCH   1  14
ATOM      9  C   UNL     1      -0.065   9.472  23.363  0.00  0.00    +0.000 C 
ATOM     10  C   UNL     1       0.083   9.634  21.879  0.00  0.00    +0.000 A 
ATOM     11  C   UNL     1      -0.545  10.678  21.200  0.00  0.00    +0.000 A 
ATOM     12  C   UNL     1      -0.352  10.833  19.829  0.00  0.00    +0.000 A 
ATOM     13  C   UNL     1       0.492   9.961  19.135  0.00  0.00    +0.000 A 
ATOM     14  C   UNL     1       1.150   8.913  19.790  0.00  0.00    +0.000 A 
ATOM     15  C   UNL     1       0.902   8.748  21.162  0.00  0.00    +0.000 A 
ENDBRANCH   1  14
BRANCH   5  16
ATOM     16  C   UNL     1       5.202   4.283  17.748  0.00  0.00    +0.000 C 
BRANCH  16  17
ATOM     17  C   UNL     1       4.187   3.180  17.441  0.00  0.00    +0.000 C 
BRANCH  17  18
ATOM     18  C   UNL     1       3.161   3.030  18.512  0.00  0.00    +0.000 A 
ATOM     19  C   UNL     1       1.802   3.459  18.503  0.00  0.00    +0.000 A 
ATOM     20  C   UNL     1       1.049   4.180  17.449  0.00  0.00    +0.000 C 
ATOM     21  N   UNL     1       1.181   3.139  19.643  0.00  0.00    +0.000 NA
ATOM     22  O   UNL     1       2.125   2.494  20.418  0.00  0.00    +0.000 OA
ATOM     23  C   UNL     1       3.305   2.433  19.747  0.00  0.00    +0.000 A 
ATOM     24 CL   UNL     1       4.723   1.718  20.409  0.00  0.00    +0.000 Cl
ENDBRANCH  17  18
ENDBRANCH  16  17
ENDBRANCH   5  16
TORSDOF 4
ENDMDL
MODEL 6
REMARK VINA RESULT:      -7.4      1.284      2.200
REMARK  Name = 
REMARK  6 active torsions:
REMARK  status: ('A' for Active; 'I' for Inactive)
REMARK    1  A    between atoms: C_1  and  C_2
REMARK    2  A    between atoms: C_6  and  N_7
REMARK    3  A    between atoms: C_11  and  C_13
REMARK    4  A    between atoms: C_13  and  C_14
REMARK    5  A    between atoms: C_14  and  C_15
REMARK    6  A    between atoms: C_16  and  C_17
REMARK                            x       y       z     vdW  Elec       q    Type
REMARK                         _______ _______ _______ _____ _____    ______ ____
ROOT
ATOM      1  N   UNL     1       1.692   7.224  19.682  0.00  0.00    +0.000 N 
ATOM      2  C   UNL     1       1.944   6.135  20.637  0.00  0.00    +0.000 C 
ATOM      3  C   UNL     1       1.829   4.796  19.894  0.00  0.00    +0.000 C 
ATOM      4  N   UNL     1       2.734   4.747  18.736  0.00  0.00    +0.000 N 
ATOM      5  C   UNL     1       3.441   3.584  18.500  0.00  0.00    +0.000 C 
ATOM      6  O   UNL     1       3.394   2.622  19.269  0.00  0.00    +0.000 OA
ATOM      7  C   UNL     1       2.601   5.889  17.810  0.00  0.00    +0.000 C 
ATOM      8  C   UNL     1       2.628   7.252  18.543  0.00  0.00    +0.000 C 
ENDROOT
BRANCH   1  14
ATOM      9  C   UNL     1      -0.184   9.727  23.462  0.00  0.00    +0.000 C 
ATOM     10  C   UNL     1       0.279   9.707  22.036  0.00  0.00    +0.000 A 
ATOM     11  C   UNL     1       0.390  10.884  21.295  0.00  0.00    +0.000 A 
ATOM     12  C   UNL     1       0.869  10.841  19.987  0.00  0.00    +0.000 A 
ATOM     13  C   UNL     1       1.265   9.624  19.423  0.00  0.00    +0.000 A 
ATOM     14  C   UNL     1       1.182   8.428  20.145  0.00  0.00    +0.000 A 
ATOM     15  C   UNL     1       0.651   8.490  21.444  0.00  0.00    +0.000 A 
ENDBRANCH   1  14
BRANCH   5  16
ATOM     16  C   UNL     1       4.321   3.542  17.265  0.00  0.00    +0.000 C 
BRANCH  16  17
ATOM     17  C   UNL     1       5.799   3.643  17.649  0.00  0.00    +0.000 C 
BRANCH  17  18
ATOM     18  C   UNL     1       6.534   4.656  16.839  0.00  0.00    +0.000 A 
ATOM     19  C   UNL     1       7.251   5.800  17.291  0.00  0.00    +0.000 A 
ATOM     20  C   UNL     1       7.446   6.305  18.672  0.00  0.00    +0.000 C 
ATOM     21  N   UNL     1       7.794   6.473  16.270  0.00  0.00    +0.000 NA
ATOM     22  O   UNL     1       7.439   5.778  15.131  0.00  0.00    +0.000 OA
ATOM     23  C   UNL     1       6.685   4.698  15.467  0.00  0.00    +0.000 A 
ATOM     24 CL   UNL     1       6.042   3.605  14.306  0.00  0.00    +0.000 Cl
ENDBRANCH  17  18
ENDBRANCH  16  17
ENDBRANCH   5  16
TORSDOF 4
ENDMDL
MODEL 7
REMARK VINA RESULT:      -7.4      0.931      1.590
REMARK  Name = 
REMARK  6 active torsions:
REMARK  status: ('A' for Active; 'I' for Inactive)
REMARK    1  A    between atoms: C_1  and  C_2
REMARK    2  A    between atoms: C_6  and  N_7
REMARK    3  A    between atoms: C_11  and  C_13
REMARK    4  A    between atoms: C_13  and  C_14
REMARK    5  A    between atoms: C_14  and  C_15
REMARK    6  A    between atoms: C_16  and  C_17
REMARK                            x       y       z     vdW  Elec       q    Type
REMARK                         _______ _______ _______ _____ _____    ______ ____
ROOT
ATOM      1  N   UNL     1       1.751   8.003  19.317  0.00  0.00    +0.000 N 
ATOM      2  C   UNL     1       2.048   7.209  20.518  0.00  0.00    +0.000 C 
ATOM      3  C   UNL     1       1.958   5.720  20.153  0.00  0.00    +0.000 C 
ATOM      4  N   UNL     1       2.844   5.389  19.028  0.00  0.00    +0.000 N 
ATOM      5  C   UNL     1       3.578   4.220  19.088  0.00  0.00    +0.000 C 
ATOM      6  O   UNL     1       3.570   3.492  20.082  0.00  0.00    +0.000 OA
ATOM      7  C   UNL     1       2.664   6.244  17.839  0.00  0.00    +0.000 C 
ATOM      8  C   UNL     1       2.666   7.752  18.189  0.00  0.00    +0.000 C 
ENDROOT
BRANCH   1  14
ATOM      9  C   UNL     1      -0.576  11.194  22.228  0.00  0.00    +0.000 C 
ATOM     10  C   UNL     1       0.088  10.897  20.917  0.00  0.00    +0.000 A 
ATOM     11  C   UNL     1       0.342  11.908  19.990  0.00  0.00    +0.000 A 
ATOM     12  C   UNL     1       1.004  11.612  18.801  0.00  0.00    +0.000 A 
ATOM     13  C   UNL     1       1.440  10.309  18.544  0.00  0.00    +0.000 A 
ATOM     14  C   UNL     1       1.216   9.275  19.461  0.00  0.00    +0.000 A 
ATOM     15  C   UNL     1       0.505   9.588  20.630  0.00  0.00    +0.000 A 
ENDBRANCH   1  14
BRANCH   5  16
ATOM     16  C   UNL     1       4.438   3.875  17.887  0.00  0.00    +0.000 C 
BRANCH  16  17
ATOM     17  C   UNL     1       5.919   4.110  18.194  0.00  0.00    +0.000 C 
BRANCH  17  18
ATOM     18  C   UNL     1       6.605   4.906  17.136  0.00  0.00    +0.000 A 
ATOM     19  C   UNL     1       6.558   4.727  15.724  0.00  0.00    +0.000 A 
ATOM     20  C   UNL     1       5.839   3.703  14.927  0.00  0.00    +0.000 C 
ATOM     21  N   UNL     1       7.295   5.645  15.089  0.00  0.00    +0.000 NA
ATOM     22  O   UNL     1       7.839   6.440  16.079  0.00  0.00    +0.000 OA
ATOM     23  C   UNL     1       7.432   5.999  17.298  0.00  0.00    +0.000 A 
ATOM     24 CL   UNL     1       7.927   6.732  18.773  0.00  0.00    +0.000 Cl
ENDBRANCH  17  18
ENDBRANCH  16  17
ENDBRANCH   5  16
TORSDOF 4
ENDMDL
MODEL 8
REMARK VINA RESULT:      -7.4      0.704      1.501
REMARK  Name = 
REMARK  6 active torsions:
REMARK  status: ('A' for Active; 'I' for Inactive)
REMARK    1  A    between atoms: C_1  and  C_2
REMARK    2  A    between atoms: C_6  and  N_7
REMARK    3  A    between atoms: C_11  and  C_13
REMARK    4  A    between atoms: C_13  and  C_14
REMARK    5  A    between atoms: C_14  and  C_15
REMARK    6  A    between atoms: C_16  and  C_17
REMARK                            x       y       z     vdW  Elec       q    Type
REMARK                         _______ _______ _______ _____ _____    ______ ____
ROOT
ATOM      1  N   UNL     1       1.880   7.192  19.699  0.00  0.00    +0.000 N 
ATOM      2  C   UNL     1       1.707   5.986  20.522  0.00  0.00    +0.000 C 
ATOM      3  C   UNL     1       1.861   4.753  19.621  0.00  0.00    +0.000 C 
ATOM      4  N   UNL     1       3.148   4.766  18.910  0.00  0.00    +0.000 N 
ATOM      5  C   UNL     1       3.861   3.587  18.814  0.00  0.00    +0.000 C 
ATOM      6  O   UNL     1       3.490   2.551  19.368  0.00  0.00    +0.000 OA
ATOM      7  C   UNL     1       3.419   6.012  18.166  0.00  0.00    +0.000 C 
ATOM      8  C   UNL     1       3.189   7.277  19.026  0.00  0.00    +0.000 C 
ENDROOT
BRANCH   1  14
ATOM      9  C   UNL     1      -0.286   9.728  23.297  0.00  0.00    +0.000 C 
ATOM     10  C   UNL     1       0.209   9.669  21.883  0.00  0.00    +0.000 A 
ATOM     11  C   UNL     1       0.236  10.809  21.079  0.00  0.00    +0.000 A 
ATOM     12  C   UNL     1       0.745  10.735  19.784  0.00  0.00    +0.000 A 
ATOM     13  C   UNL     1       1.256   9.529  19.297  0.00  0.00    +0.000 A 
ATOM     14  C   UNL     1       1.259   8.371  20.084  0.00  0.00    +0.000 A 
ATOM     15  C   UNL     1       0.696   8.458  21.368  0.00  0.00    +0.000 A 
ENDBRANCH   1  14
BRANCH   5  16
ATOM     16  C   UNL     1       5.155   3.618  18.023  0.00  0.00    +0.000 C 
BRANCH  16  17
ATOM     17  C   UNL     1       4.880   3.871  16.539  0.00  0.00    +0.000 C 
BRANCH  17  18
ATOM     18  C   UNL     1       5.995   4.593  15.864  0.00  0.00    +0.000 A 
ATOM     19  C   UNL     1       6.418   4.498  14.507  0.00  0.00    +0.000 A 
ATOM     20  C   UNL     1       5.885   3.653  13.411  0.00  0.00    +0.000 C 
ATOM     21  N   UNL     1       7.452   5.310  14.259  0.00  0.00    +0.000 NA
ATOM     22  O   UNL     1       7.723   5.949  15.452  0.00  0.00    +0.000 OA
ATOM     23  C   UNL     1       6.860   5.520  16.410  0.00  0.00    +0.000 A 
ATOM     24 CL   UNL     1       6.908   6.082  18.034  0.00  0.00    +0.000 Cl
ENDBRANCH  17  18
ENDBRANCH  16  17
ENDBRANCH   5  16
TORSDOF 4
ENDMDL
MODEL 9
REMARK VINA RESULT:      -7.3      2.365      4.303
REMARK  Name = 
REMARK  6 active torsions:
REMARK  status: ('A' for Active; 'I' for Inactive)
REMARK    1  A    between atoms: C_1  and  C_2
REMARK    2  A    between atoms: C_6  and  N_7
REMARK    3  A    between atoms: C_11  and  C_13
REMARK    4  A    between atoms: C_13  and  C_14
REMARK    5  A    between atoms: C_14  and  C_15
REMARK    6  A    between atoms: C_16  and  C_17
REMARK                            x       y       z     vdW  Elec       q    Type
REMARK                         _______ _______ _______ _____ _____    ______ ____
ROOT
ATOM      1  N   UNL     1       2.108   8.104  19.151  0.00  0.00    +0.000 N 
ATOM      2  C   UNL     1       2.232   8.145  17.687  0.00  0.00    +0.000 C 
ATOM      3  C   UNL     1       3.674   7.777  17.308  0.00  0.00    +0.000 C 
ATOM      4  N   UNL     1       4.059   6.473  17.867  0.00  0.00    +0.000 N 
ATOM      5  C   UNL     1       4.772   5.598  17.070  0.00  0.00    +0.000 C 
ATOM      6  O   UNL     1       5.025   5.846  15.891  0.00  0.00    +0.000 OA
ATOM      7  C   UNL     1       3.837   6.344  19.321  0.00  0.00    +0.000 C 
ATOM      8  C   UNL     1       2.416   6.789  19.744  0.00  0.00    +0.000 C 
ENDROOT
BRANCH   1  14
ATOM      9  C   UNL     1       0.004   9.485  23.362  0.00  0.00    +0.000 C 
ATOM     10  C   UNL     1       0.123   9.633  21.875  0.00  0.00    +0.000 A 
ATOM     11  C   UNL     1      -0.528  10.664  21.197  0.00  0.00    +0.000 A 
ATOM     12  C   UNL     1      -0.361  10.807  19.821  0.00  0.00    +0.000 A 
ATOM     13  C   UNL     1       0.479   9.936  19.121  0.00  0.00    +0.000 A 
ATOM     14  C   UNL     1       1.159   8.901  19.774  0.00  0.00    +0.000 A 
ATOM     15  C   UNL     1       0.937   8.748  21.152  0.00  0.00    +0.000 A 
ENDBRANCH   1  14
BRANCH   5  16
ATOM     16  C   UNL     1       5.207   4.285  17.693  0.00  0.00    +0.000 C 
BRANCH  16  17
ATOM     17  C   UNL     1       4.169   3.191  17.434  0.00  0.00    +0.000 C 
BRANCH  17  18
ATOM     18  C   UNL     1       3.181   3.063  18.543  0.00  0.00    +0.000 A 
ATOM     19  C   UNL     1       3.366   2.482  19.830  0.00  0.00    +0.000 A 
ATOM     20  C   UNL     1       4.569   1.836  20.408  0.00  0.00    +0.000 C 
ATOM     21  N   UNL     1       2.252   2.559  20.567  0.00  0.00    +0.000 NA
ATOM     22  O   UNL     1       1.318   3.193  19.771  0.00  0.00    +0.000 OA
ATOM     23  C   UNL     1       1.869   3.489  18.564  0.00  0.00    +0.000 A 
ATOM     24 CL   UNL     1       0.996   4.265  17.302  0.00  0.00    +0.000 Cl
ENDBRANCH  17  18
ENDBRANCH  16  17
ENDBRANCH   5  16
TORSDOF 4
ENDMDL
