MODEL 1
REMARK VINA RESULT:      -7.7      0.000      0.000
REMARK  Name = 
REMARK  13 active torsions:
REMARK  status: ('A' for Active; 'I' for Inactive)
REMARK    1  A    between atoms: C_1  and  C_2
REMARK    2  A    between atoms: C_2  and  N_3
REMARK    3  A    between atoms: N_3  and  C_4
REMARK    4  A    between atoms: C_4  and  C_5
REMARK    5  A    between atoms: C_8  and  C_9
REMARK    6  A    between atoms: C_9  and  C_11
REMARK    7  A    between atoms: C_11  and  N_12
REMARK    8  A    between atoms: C_15  and  O_16
REMARK    9  A    between atoms: O_16  and  C_17
REMARK   10  A    between atoms: C_17  and  C_18
REMARK   11  A    between atoms: C_21  and  O_22
REMARK   12  A    between atoms: O_22  and  C_23
REMARK   13  A    between atoms: C_29  and  C_30
REMARK                            x       y       z     vdW  Elec       q    Type
REMARK                         _______ _______ _______ _____ _____    ______ ____
ROOT
ATOM      1  N   UNL     1       5.073   5.040  17.366  0.00  0.00    +0.000 N 
ATOM      2  C   UNL     1       5.151   5.883  16.278  0.00  0.00    +0.000 A 
ATOM      3  C   UNL     1       6.068   6.852  16.219  0.00  0.00    +0.000 A 
ATOM      4  C   UNL     1       6.955   7.077  17.339  0.00  0.00    +0.000 A 
ATOM      5  C   UNL     1       6.909   6.269  18.406  0.00  0.00    +0.000 A 
ATOM      6  C   UNL     1       5.959   5.132  18.445  0.00  0.00    +0.000 A 
ATOM      7  O   UNL     1       6.020   4.319  19.363  0.00  0.00    +0.000 OA
ENDROOT
BRANCH   1   8
ATOM      8  C   UNL     1       4.263   3.841  17.269  0.00  0.00    +0.000 C 
BRANCH   8   9
ATOM      9  C   UNL     1       2.768   3.999  17.572  0.00  0.00    +0.000 C 
ATOM     10  O   UNL     1       1.907   3.274  17.075  0.00  0.00    +0.000 OA
BRANCH   9  14
ATOM     11  C   UNL     1       1.772   7.197  20.328  0.00  0.00    +0.000 A 
ATOM     12  C   UNL     1       2.142   7.455  19.012  0.00  0.00    +0.000 A 
ATOM     13  C   UNL     1       2.439   6.405  18.147  0.00  0.00    +0.000 A 
ATOM     14  C   UNL     1       2.411   5.063  18.577  0.00  0.00    +0.000 A 
ATOM     15  C   UNL     1       2.067   4.789  19.916  0.00  0.00    +0.000 A 
ATOM     16  C   UNL     1       2.037   3.427  20.559  0.00  0.00    +0.000 C 
ATOM     17  C   UNL     1       1.736   5.868  20.765  0.00  0.00    +0.000 A 
BRANCH  11  18
ATOM     18  C   UNL     1       1.405   8.331  21.253  0.00  0.00    +0.000 C 
BRANCH  18  19
ATOM     19  N   UNL     1       0.010   8.764  21.125  0.00  0.00    +0.000 NA
ATOM     20  H   UNL     1      -0.453   8.161  20.446  0.00  0.00    +0.000 HD
BRANCH  19  22
ATOM     21  C   UNL     1      -0.479  10.191  19.210  0.00  0.00    +0.000 C 
ATOM     22  C   UNL     1      -0.106  10.156  20.684  0.00  0.00    +0.000 C 
ENDBRANCH  19  22
ENDBRANCH  18  19
ENDBRANCH  11  18
ENDBRANCH   9  14
ENDBRANCH   8   9
ENDBRANCH   1   8
BRANCH   4  23
ATOM     23  O   UNL     1       7.869   8.112  17.307  0.00  0.00    +0.000 OA
BRANCH  23  24
ATOM     24  C   UNL     1       8.590   8.350  18.518  0.00  0.00    +0.000 C 
BRANCH  24  25
ATOM     25  C   UNL     1       8.832   9.823  18.707  0.00  0.00    +0.000 A 
ATOM     26  C   UNL     1       8.506  10.715  17.689  0.00  0.00    +0.000 A 
ATOM     27  C   UNL     1       8.859  12.051  17.836  0.00  0.00    +0.000 A 
ATOM     28  C   UNL     1       9.519  12.470  18.987  0.00  0.00    +0.000 A 
ATOM     29  C   UNL     1       9.776  11.516  19.962  0.00  0.00    +0.000 A 
ATOM     30  N   UNL     1       9.460  10.205  19.845  0.00  0.00    +0.000 NA
BRANCH  28  31
ATOM     31  O   UNL     1       9.860  13.791  19.023  0.00  0.00    +0.000 OA
ATOM     32  C   UNL     1      11.199  14.080  19.400  0.00  0.00    +0.000 C 
ENDBRANCH  28  31
ENDBRANCH  24  25
ENDBRANCH  23  24
ENDBRANCH   4  23
TORSDOF 10
ENDMDL
MODEL 2
REMARK VINA RESULT:      -7.7      1.050      1.317
REMARK  Name = 
REMARK  13 active torsions:
REMARK  status: ('A' for Active; 'I' for Inactive)
REMARK    1  A    between atoms: C_1  and  C_2
REMARK    2  A    between atoms: C_2  and  N_3
REMARK    3  A    between atoms: N_3  and  C_4
REMARK    4  A    between atoms: C_4  and  C_5
REMARK    5  A    between atoms: C_8  and  C_9
REMARK    6  A    between atoms: C_9  and  C_11
REMARK    7  A    between atoms: C_11  and  N_12
REMARK    8  A    between atoms: C_15  and  O_16
REMARK    9  A    between atoms: O_16  and  C_17
REMARK   10  A    between atoms: C_17  and  C_18
REMARK   11  A    between atoms: C_21  and  O_22
REMARK   12  A    between atoms: O_22  and  C_23
REMARK   13  A    between atoms: C_29  and  C_30
REMARK                            x       y       z     vdW  Elec       q    Type
REMARK                         _______ _______ _______ _____ _____    ______ ____
ROOT
ATOM      1  N   UNL     1       5.520   5.059  17.761  0.00  0.00    +0.000 N 
ATOM      2  C   UNL     1       5.912   5.902  16.742  0.00  0.00    +0.000 A 
ATOM      3  C   UNL     1       6.888   6.796  16.922  0.00  0.00    +0.000 A 
ATOM      4  C   UNL     1       7.506   6.941  18.222  0.00  0.00    +0.000 A 
ATOM      5  C   UNL     1       7.153   6.131  19.228  0.00  0.00    +0.000 A 
ATOM      6  C   UNL     1       6.136   5.072  19.017  0.00  0.00    +0.000 A 
ATOM      7  O   UNL     1       5.921   4.249  19.903  0.00  0.00    +0.000 OA
ENDROOT
BRANCH   1   8
ATOM      8  C   UNL     1       4.667   3.929  17.448  0.00  0.00    +0.000 C 
BRANCH   8   9
ATOM      9  C   UNL     1       3.156   4.180  17.491  0.00  0.00    +0.000 C 
ATOM     10  O   UNL     1       2.355   3.554  16.796  0.00  0.00    +0.000 OA
BRANCH   9  14
ATOM     11  C   UNL     1       1.835   7.263  20.243  0.00  0.00    +0.000 A 
ATOM     12  C   UNL     1       2.201   7.559  18.933  0.00  0.00    +0.000 A 
ATOM     13  C   UNL     1       2.604   6.544  18.070  0.00  0.00    +0.000 A 
ATOM     14  C   UNL     1       2.689   5.203  18.495  0.00  0.00    +0.000 A 
ATOM     15  C   UNL     1       2.350   4.892  19.827  0.00  0.00    +0.000 A 
ATOM     16  C   UNL     1       2.432   3.530  20.464  0.00  0.00    +0.000 C 
ATOM     17  C   UNL     1       1.911   5.933  20.675  0.00  0.00    +0.000 A 
BRANCH  11  18
ATOM     18  C   UNL     1       1.353   8.355  21.166  0.00  0.00    +0.000 C 
BRANCH  18  19
ATOM     19  N   UNL     1       0.608   9.415  20.481  0.00  0.00    +0.000 NA
ATOM     20  H   UNL     1       0.970   9.501  19.531  0.00  0.00    +0.000 HD
BRANCH  19  22
ATOM     21  C   UNL     1      -0.383  10.853  22.183  0.00  0.00    +0.000 C 
ATOM     22  C   UNL     1       0.730  10.710  21.155  0.00  0.00    +0.000 C 
ENDBRANCH  19  22
ENDBRANCH  18  19
ENDBRANCH  11  18
ENDBRANCH   9  14
ENDBRANCH   8   9
ENDBRANCH   1   8
BRANCH   4  23
ATOM     23  O   UNL     1       8.476   7.900  18.429  0.00  0.00    +0.000 OA
BRANCH  23  24
ATOM     24  C   UNL     1       8.211   9.192  17.877  0.00  0.00    +0.000 C 
BRANCH  24  25
ATOM     25  C   UNL     1       9.062  10.236  18.546  0.00  0.00    +0.000 A 
ATOM     26  C   UNL     1       9.195  10.239  19.932  0.00  0.00    +0.000 A 
ATOM     27  C   UNL     1       9.880  11.288  20.534  0.00  0.00    +0.000 A 
ATOM     28  C   UNL     1      10.419  12.304  19.749  0.00  0.00    +0.000 A 
ATOM     29  C   UNL     1      10.262  12.201  18.373  0.00  0.00    +0.000 A 
ATOM     30  N   UNL     1       9.591  11.202  17.756  0.00  0.00    +0.000 NA
BRANCH  28  31
ATOM     31  O   UNL     1      11.037  13.311  20.431  0.00  0.00    +0.000 OA
ATOM     32  C   UNL     1      10.205  14.094  21.277  0.00  0.00    +0.000 C 
ENDBRANCH  28  31
ENDBRANCH  24  25
ENDBRANCH  23  24
ENDBRANCH   4  23
TORSDOF 10
ENDMDL
MODEL 3
REMARK VINA RESULT:      -7.6      4.759      9.431
REMARK  Name = 
REMARK  13 active torsions:
REMARK  status: ('A' for Active; 'I' for Inactive)
REMARK    1  A    between atoms: C_1  and  C_2
REMARK    2  A    between atoms: C_2  and  N_3
REMARK    3  A    between atoms: N_3  and  C_4
REMARK    4  A    between atoms: C_4  and  C_5
REMARK    5  A    between atoms: C_8  and  C_9
REMARK    6  A    between atoms: C_9  and  C_11
REMARK    7  A    between atoms: C_11  and  N_12
REMARK    8  A    between atoms: C_15  and  O_16
REMARK    9  A    between atoms: O_16  and  C_17
REMARK   10  A    between atoms: C_17  and  C_18
REMARK   11  A    between atoms: C_21  and  O_22
REMARK   12  A    between atoms: O_22  and  C_23
REMARK   13  A    between atoms: C_29  and  C_30
REMARK                            x       y       z     vdW  Elec       q    Type
REMARK                         _______ _______ _______ _____ _____    ______ ____
ROOT
ATOM      1  N   UNL     1       1.853   8.021  19.427  0.00  0.00    +0.000 N 
ATOM      2  C   UNL     1       1.806   8.771  18.271  0.00  0.00    +0.000 A 
ATOM      3  C   UNL     1       1.147   9.933  18.227  0.00  0.00    +0.000 A 
ATOM      4  C   UNL     1       0.409  10.389  19.384  0.00  0.00    +0.000 A 
ATOM      5  C   UNL     1       0.444   9.687  20.524  0.00  0.00    +0.000 A 
ATOM      6  C   UNL     1       1.246   8.444  20.614  0.00  0.00    +0.000 A 
ATOM      7  O   UNL     1       1.382   7.884  21.699  0.00  0.00    +0.000 OA
ENDROOT
BRANCH   1   8
ATOM      8  C   UNL     1       2.799   6.926  19.515  0.00  0.00    +0.000 C 
BRANCH   8   9
ATOM      9  C   UNL     1       2.501   5.694  18.652  0.00  0.00    +0.000 C 
ATOM     10  O   UNL     1       1.462   5.043  18.754  0.00  0.00    +0.000 OA
BRANCH   9  14
ATOM     11  C   UNL     1       5.514   4.917  15.629  0.00  0.00    +0.000 A 
ATOM     12  C   UNL     1       5.190   6.211  16.022  0.00  0.00    +0.000 A 
ATOM     13  C   UNL     1       4.231   6.426  17.009  0.00  0.00    +0.000 A 
ATOM     14  C   UNL     1       3.536   5.357  17.610  0.00  0.00    +0.000 A 
ATOM     15  C   UNL     1       3.833   4.042  17.200  0.00  0.00    +0.000 A 
ATOM     16  C   UNL     1       3.157   2.790  17.693  0.00  0.00    +0.000 C 
ATOM     17  C   UNL     1       4.835   3.846  16.223  0.00  0.00    +0.000 A 
BRANCH  11  18
ATOM     18  C   UNL     1       6.587   4.679  14.595  0.00  0.00    +0.000 C 
BRANCH  18  19
ATOM     19  N   UNL     1       6.406   3.439  13.836  0.00  0.00    +0.000 NA
ATOM     20  H   UNL     1       7.198   2.825  14.029  0.00  0.00    +0.000 HD
BRANCH  19  22
ATOM     21  C   UNL     1       5.681   2.470  11.720  0.00  0.00    +0.000 C 
ATOM     22  C   UNL     1       6.326   3.671  12.392  0.00  0.00    +0.000 C 
ENDBRANCH  19  22
ENDBRANCH  18  19
ENDBRANCH  11  18
ENDBRANCH   9  14
ENDBRANCH   8   9
ENDBRANCH   1   8
BRANCH   4  23
ATOM     23  O   UNL     1      -0.319  11.561  19.328  0.00  0.00    +0.000 OA
BRANCH  23  24
ATOM     24  C   UNL     1      -0.853  11.909  18.048  0.00  0.00    +0.000 C 
BRANCH  24  25
ATOM     25  C   UNL     1      -2.337  11.669  18.012  0.00  0.00    +0.000 A 
ATOM     26  C   UNL     1      -2.936  11.205  16.844  0.00  0.00    +0.000 A 
ATOM     27  C   UNL     1      -4.322  11.114  16.797  0.00  0.00    +0.000 A 
ATOM     28  C   UNL     1      -5.078  11.480  17.906  0.00  0.00    +0.000 A 
ATOM     29  C   UNL     1      -4.392  11.903  19.037  0.00  0.00    +0.000 A 
ATOM     30  N   UNL     1      -3.046  12.016  19.113  0.00  0.00    +0.000 NA
BRANCH  28  31
ATOM     31  O   UNL     1      -6.431  11.397  17.751  0.00  0.00    +0.000 OA
ATOM     32  C   UNL     1      -7.211  11.714  18.896  0.00  0.00    +0.000 C 
ENDBRANCH  28  31
ENDBRANCH  24  25
ENDBRANCH  23  24
ENDBRANCH   4  23
TORSDOF 10
ENDMDL
MODEL 4
REMARK VINA RESULT:      -7.5      3.798      8.495
REMARK  Name = 
REMARK  13 active torsions:
REMARK  status: ('A' for Active; 'I' for Inactive)
REMARK    1  A    between atoms: C_1  and  C_2
REMARK    2  A    between atoms: C_2  and  N_3
REMARK    3  A    between atoms: N_3  and  C_4
REMARK    4  A    between atoms: C_4  and  C_5
REMARK    5  A    between atoms: C_8  and  C_9
REMARK    6  A    between atoms: C_9  and  C_11
REMARK    7  A    between atoms: C_11  and  N_12
REMARK    8  A    between atoms: C_15  and  O_16
REMARK    9  A    between atoms: O_16  and  C_17
REMARK   10  A    between atoms: C_17  and  C_18
REMARK   11  A    between atoms: C_21  and  O_22
REMARK   12  A    between atoms: O_22  and  C_23
REMARK   13  A    between atoms: C_29  and  C_30
REMARK                            x       y       z     vdW  Elec       q    Type
REMARK                         _______ _______ _______ _____ _____    ______ ____
ROOT
ATOM      1  N   UNL     1       2.951   5.639  19.294  0.00  0.00    +0.000 N 
ATOM      2  C   UNL     1       2.998   6.731  18.453  0.00  0.00    +0.000 A 
ATOM      3  C   UNL     1       2.368   7.867  18.762  0.00  0.00    +0.000 A 
ATOM      4  C   UNL     1       1.563   7.945  19.961  0.00  0.00    +0.000 A 
ATOM      5  C   UNL     1       1.506   6.904  20.802  0.00  0.00    +0.000 A 
ATOM      6  C   UNL     1       2.274   5.669  20.518  0.00  0.00    +0.000 A 
ATOM      7  O   UNL     1       2.325   4.776  21.360  0.00  0.00    +0.000 OA
ENDROOT
BRANCH   1   8
ATOM      8  C   UNL     1       3.866   4.537  19.065  0.00  0.00    +0.000 C 
BRANCH   8   9
ATOM      9  C   UNL     1       5.332   4.907  18.808  0.00  0.00    +0.000 C 
ATOM     10  O   UNL     1       6.105   5.233  19.708  0.00  0.00    +0.000 OA
BRANCH   9  14
ATOM     11  C   UNL     1       6.574   4.387  14.685  0.00  0.00    +0.000 A 
ATOM     12  C   UNL     1       5.746   3.467  15.320  0.00  0.00    +0.000 A 
ATOM     13  C   UNL     1       5.350   3.673  16.639  0.00  0.00    +0.000 A 
ATOM     14  C   UNL     1       5.798   4.784  17.381  0.00  0.00    +0.000 A 
ATOM     15  C   UNL     1       6.662   5.709  16.759  0.00  0.00    +0.000 A 
ATOM     16  C   UNL     1       7.277   6.919  17.411  0.00  0.00    +0.000 C 
ATOM     17  C   UNL     1       7.022   5.498  15.409  0.00  0.00    +0.000 A 
BRANCH  11  18
ATOM     18  C   UNL     1       6.965   4.191  13.240  0.00  0.00    +0.000 C 
BRANCH  18  19
ATOM     19  N   UNL     1       6.118   3.230  12.528  0.00  0.00    +0.000 NA
ATOM     20  H   UNL     1       6.578   2.982  11.652  0.00  0.00    +0.000 HD
BRANCH  19  22
ATOM     21  C   UNL     1       4.143   2.945  11.128  0.00  0.00    +0.000 C 
ATOM     22  C   UNL     1       4.788   3.766  12.233  0.00  0.00    +0.000 C 
ENDBRANCH  19  22
ENDBRANCH  18  19
ENDBRANCH  11  18
ENDBRANCH   9  14
ENDBRANCH   8   9
ENDBRANCH   1   8
BRANCH   4  23
ATOM     23  O   UNL     1       0.865   9.099  20.258  0.00  0.00    +0.000 OA
BRANCH  23  24
ATOM     24  C   UNL     1       1.054  10.196  19.362  0.00  0.00    +0.000 C 
BRANCH  24  25
ATOM     25  C   UNL     1      -0.214  10.486  18.607  0.00  0.00    +0.000 A 
ATOM     26  C   UNL     1      -0.740   9.530  17.742  0.00  0.00    +0.000 A 
ATOM     27  C   UNL     1      -1.837   9.870  16.961  0.00  0.00    +0.000 A 
ATOM     28  C   UNL     1      -2.388  11.144  17.058  0.00  0.00    +0.000 A 
ATOM     29  C   UNL     1      -1.816  12.022  17.969  0.00  0.00    +0.000 A 
ATOM     30  N   UNL     1      -0.739  11.729  18.735  0.00  0.00    +0.000 NA
BRANCH  28  31
ATOM     31  O   UNL     1      -3.437  11.399  16.223  0.00  0.00    +0.000 OA
ATOM     32  C   UNL     1      -3.642  10.461  15.175  0.00  0.00    +0.000 C 
ENDBRANCH  28  31
ENDBRANCH  24  25
ENDBRANCH  23  24
ENDBRANCH   4  23
TORSDOF 10
ENDMDL
MODEL 5
REMARK VINA RESULT:      -7.4      1.352      1.872
REMARK  Name = 
REMARK  13 active torsions:
REMARK  status: ('A' for Active; 'I' for Inactive)
REMARK    1  A    between atoms: C_1  and  C_2
REMARK    2  A    between atoms: C_2  and  N_3
REMARK    3  A    between atoms: N_3  and  C_4
REMARK    4  A    between atoms: C_4  and  C_5
REMARK    5  A    between atoms: C_8  and  C_9
REMARK    6  A    between atoms: C_9  and  C_11
REMARK    7  A    between atoms: C_11  and  N_12
REMARK    8  A    between atoms: C_15  and  O_16
REMARK    9  A    between atoms: O_16  and  C_17
REMARK   10  A    between atoms: C_17  and  C_18
REMARK   11  A    between atoms: C_21  and  O_22
REMARK   12  A    between atoms: O_22  and  C_23
REMARK   13  A    between atoms: C_29  and  C_30
REMARK                            x       y       z     vdW  Elec       q    Type
REMARK                         _______ _______ _______ _____ _____    ______ ____
ROOT
ATOM      1  N   UNL     1       5.966   5.066  17.412  0.00  0.00    +0.000 N 
ATOM      2  C   UNL     1       6.607   4.997  18.631  0.00  0.00    +0.000 A 
ATOM      3  C   UNL     1       7.414   5.977  19.044  0.00  0.00    +0.000 A 
ATOM      4  C   UNL     1       7.685   7.104  18.179  0.00  0.00    +0.000 A 
ATOM      5  C   UNL     1       7.071   7.204  16.993  0.00  0.00    +0.000 A 
ATOM      6  C   UNL     1       6.101   6.169  16.562  0.00  0.00    +0.000 A 
ATOM      7  O   UNL     1       5.442   6.340  15.539  0.00  0.00    +0.000 OA
ENDROOT
BRANCH   1   8
ATOM      8  C   UNL     1       4.894   4.132  17.128  0.00  0.00    +0.000 C 
BRANCH   8   9
ATOM      9  C   UNL     1       3.926   3.831  18.279  0.00  0.00    +0.000 C 
ATOM     10  O   UNL     1       3.775   2.702  18.745  0.00  0.00    +0.000 OA
BRANCH   9  14
ATOM     11  C   UNL     1       1.913   7.361  19.797  0.00  0.00    +0.000 A 
ATOM     12  C   UNL     1       2.578   7.368  18.575  0.00  0.00    +0.000 A 
ATOM     13  C   UNL     1       3.199   6.212  18.107  0.00  0.00    +0.000 A 
ATOM     14  C   UNL     1       3.209   5.021  18.861  0.00  0.00    +0.000 A 
ATOM     15  C   UNL     1       2.564   5.009  20.114  0.00  0.00    +0.000 A 
ATOM     16  C   UNL     1       2.520   3.847  21.072  0.00  0.00    +0.000 C 
ATOM     17  C   UNL     1       1.911   6.182  20.552  0.00  0.00    +0.000 A 
BRANCH  11  18
ATOM     18  C   UNL     1       1.198   8.598  20.284  0.00  0.00    +0.000 C 
BRANCH  18  19
ATOM     19  N   UNL     1       0.540   8.423  21.581  0.00  0.00    +0.000 NA
ATOM     20  H   UNL     1      -0.426   8.137  21.417  0.00  0.00    +0.000 HD
BRANCH  19  22
ATOM     21  C   UNL     1      -0.322  10.700  21.703  0.00  0.00    +0.000 C 
ATOM     22  C   UNL     1       0.544   9.650  22.382  0.00  0.00    +0.000 C 
ENDBRANCH  19  22
ENDBRANCH  18  19
ENDBRANCH  11  18
ENDBRANCH   9  14
ENDBRANCH   8   9
ENDBRANCH   1   8
BRANCH   4  23
ATOM     23  O   UNL     1       8.562   8.093  18.577  0.00  0.00    +0.000 OA
BRANCH  23  24
ATOM     24  C   UNL     1       8.334   9.393  18.027  0.00  0.00    +0.000 C 
BRANCH  24  25
ATOM     25  C   UNL     1       9.294  10.390  18.615  0.00  0.00    +0.000 A 
ATOM     26  C   UNL     1       9.388  10.531  19.997  0.00  0.00    +0.000 A 
ATOM     27  C   UNL     1      10.185  11.546  20.511  0.00  0.00    +0.000 A 
ATOM     28  C   UNL     1      10.872  12.392  19.645  0.00  0.00    +0.000 A 
ATOM     29  C   UNL     1      10.742  12.158  18.283  0.00  0.00    +0.000 A 
ATOM     30  N   UNL     1       9.964  11.189  17.748  0.00  0.00    +0.000 NA
BRANCH  28  31
ATOM     31  O   UNL     1      11.596  13.384  20.241  0.00  0.00    +0.000 OA
ATOM     32  C   UNL     1      12.203  14.326  19.366  0.00  0.00    +0.000 C 
ENDBRANCH  28  31
ENDBRANCH  24  25
ENDBRANCH  23  24
ENDBRANCH   4  23
TORSDOF 10
ENDMDL
MODEL 6
REMARK VINA RESULT:      -7.4      1.191      1.631
REMARK  Name = 
REMARK  13 active torsions:
REMARK  status: ('A' for Active; 'I' for Inactive)
REMARK    1  A    between atoms: C_1  and  C_2
REMARK    2  A    between atoms: C_2  and  N_3
REMARK    3  A    between atoms: N_3  and  C_4
REMARK    4  A    between atoms: C_4  and  C_5
REMARK    5  A    between atoms: C_8  and  C_9
REMARK    6  A    between atoms: C_9  and  C_11
REMARK    7  A    between atoms: C_11  and  N_12
REMARK    8  A    between atoms: C_15  and  O_16
REMARK    9  A    between atoms: O_16  and  C_17
REMARK   10  A    between atoms: C_17  and  C_18
REMARK   11  A    between atoms: C_21  and  O_22
REMARK   12  A    between atoms: O_22  and  C_23
REMARK   13  A    between atoms: C_29  and  C_30
REMARK                            x       y       z     vdW  Elec       q    Type
REMARK                         _______ _______ _______ _____ _____    ______ ____
ROOT
ATOM      1  N   UNL     1       5.433   4.370  17.728  0.00  0.00    +0.000 N 
ATOM      2  C   UNL     1       5.942   4.979  18.856  0.00  0.00    +0.000 A 
ATOM      3  C   UNL     1       6.688   6.084  18.766  0.00  0.00    +0.000 A 
ATOM      4  C   UNL     1       7.031   6.622  17.468  0.00  0.00    +0.000 A 
ATOM      5  C   UNL     1       6.543   6.057  16.356  0.00  0.00    +0.000 A 
ATOM      6  C   UNL     1       5.640   4.885  16.444  0.00  0.00    +0.000 A 
ATOM      7  O   UNL     1       5.090   4.462  15.431  0.00  0.00    +0.000 OA
ENDROOT
BRANCH   1   8
ATOM      8  C   UNL     1       4.410   3.353  17.881  0.00  0.00    +0.000 C 
BRANCH   8   9
ATOM      9  C   UNL     1       2.957   3.817  17.735  0.00  0.00    +0.000 C 
ATOM     10  O   UNL     1       2.155   3.271  16.977  0.00  0.00    +0.000 OA
BRANCH   9  14
ATOM     11  C   UNL     1       1.794   7.211  20.173  0.00  0.00    +0.000 A 
ATOM     12  C   UNL     1       2.272   7.372  18.876  0.00  0.00    +0.000 A 
ATOM     13  C   UNL     1       2.620   6.260  18.113  0.00  0.00    +0.000 A 
ATOM     14  C   UNL     1       2.537   4.953  18.632  0.00  0.00    +0.000 A 
ATOM     15  C   UNL     1       2.083   4.777  19.955  0.00  0.00    +0.000 A 
ATOM     16  C   UNL     1       1.981   3.464  20.686  0.00  0.00    +0.000 C 
ATOM     17  C   UNL     1       1.703   5.917  20.697  0.00  0.00    +0.000 A 
BRANCH  11  18
ATOM     18  C   UNL     1       1.372   8.412  20.985  0.00  0.00    +0.000 C 
BRANCH  18  19
ATOM     19  N   UNL     1       0.722   9.458  20.190  0.00  0.00    +0.000 NA
ATOM     20  H   UNL     1       1.445  10.064  19.803  0.00  0.00    +0.000 HD
BRANCH  19  22
ATOM     21  C   UNL     1      -0.587  11.515  20.197  0.00  0.00    +0.000 C 
ATOM     22  C   UNL     1      -0.205  10.269  20.982  0.00  0.00    +0.000 C 
ENDBRANCH  19  22
ENDBRANCH  18  19
ENDBRANCH  11  18
ENDBRANCH   9  14
ENDBRANCH   8   9
ENDBRANCH   1   8
BRANCH   4  23
ATOM     23  O   UNL     1       7.846   7.731  17.367  0.00  0.00    +0.000 OA
BRANCH  23  24
ATOM     24  C   UNL     1       8.451   8.180  18.583  0.00  0.00    +0.000 C 
BRANCH  24  25
ATOM     25  C   UNL     1       8.748   9.652  18.513  0.00  0.00    +0.000 A 
ATOM     26  C   UNL     1       9.601  10.233  19.447  0.00  0.00    +0.000 A 
ATOM     27  C   UNL     1       9.757  11.614  19.440  0.00  0.00    +0.000 A 
ATOM     28  C   UNL     1       9.069  12.383  18.506  0.00  0.00    +0.000 A 
ATOM     29  C   UNL     1       8.264  11.714  17.594  0.00  0.00    +0.000 A 
ATOM     30  N   UNL     1       8.078  10.374  17.581  0.00  0.00    +0.000 NA
BRANCH  28  31
ATOM     31  O   UNL     1       9.253  13.731  18.603  0.00  0.00    +0.000 OA
ATOM     32  C   UNL     1       8.169  14.542  18.170  0.00  0.00    +0.000 C 
ENDBRANCH  28  31
ENDBRANCH  24  25
ENDBRANCH  23  24
ENDBRANCH   4  23
TORSDOF 10
ENDMDL
MODEL 7
REMARK VINA RESULT:      -7.4      1.319      1.747
REMARK  Name = 
REMARK  13 active torsions:
REMARK  status: ('A' for Active; 'I' for Inactive)
REMARK    1  A    between atoms: C_1  and  C_2
REMARK    2  A    between atoms: C_2  and  N_3
REMARK    3  A    between atoms: N_3  and  C_4
REMARK    4  A    between atoms: C_4  and  C_5
REMARK    5  A    between atoms: C_8  and  C_9
REMARK    6  A    between atoms: C_9  and  C_11
REMARK    7  A    between atoms: C_11  and  N_12
REMARK    8  A    between atoms: C_15  and  O_16
REMARK    9  A    between atoms: O_16  and  C_17
REMARK   10  A    between atoms: C_17  and  C_18
REMARK   11  A    between atoms: C_21  and  O_22
REMARK   12  A    between atoms: O_22  and  C_23
REMARK   13  A    between atoms: C_29  and  C_30
REMARK                            x       y       z     vdW  Elec       q    Type
REMARK                         _______ _______ _______ _____ _____    ______ ____
ROOT
ATOM      1  N   UNL     1       5.889   4.561  18.233  0.00  0.00    +0.000 N 
ATOM      2  C   UNL     1       6.443   5.339  19.228  0.00  0.00    +0.000 A 
ATOM      3  C   UNL     1       7.121   6.453  18.937  0.00  0.00    +0.000 A 
ATOM      4  C   UNL     1       7.345   6.824  17.558  0.00  0.00    +0.000 A 
ATOM      5  C   UNL     1       6.812   6.094  16.570  0.00  0.00    +0.000 A 
ATOM      6  C   UNL     1       5.980   4.907  16.880  0.00  0.00    +0.000 A 
ATOM      7  O   UNL     1       5.384   4.327  15.976  0.00  0.00    +0.000 OA
ENDROOT
BRANCH   1   8
ATOM      8  C   UNL     1       4.935   3.532  18.596  0.00  0.00    +0.000 C 
BRANCH   8   9
ATOM      9  C   UNL     1       3.465   3.813  18.262  0.00  0.00    +0.000 C 
ATOM     10  O   UNL     1       2.798   3.088  17.525  0.00  0.00    +0.000 OA
BRANCH   9  14
ATOM     11  C   UNL     1       1.767   7.361  20.090  0.00  0.00    +0.000 A 
ATOM     12  C   UNL     1       2.444   7.417  18.876  0.00  0.00    +0.000 A 
ATOM     13  C   UNL     1       2.962   6.257  18.307  0.00  0.00    +0.000 A 
ATOM     14  C   UNL     1       2.854   5.007  18.948  0.00  0.00    +0.000 A 
ATOM     15  C   UNL     1       2.196   4.940  20.193  0.00  0.00    +0.000 A 
ATOM     16  C   UNL     1       2.033   3.705  21.041  0.00  0.00    +0.000 C 
ATOM     17  C   UNL     1       1.648   6.124  20.735  0.00  0.00    +0.000 A 
BRANCH  11  18
ATOM     18  C   UNL     1       1.164   8.610  20.686  0.00  0.00    +0.000 C 
BRANCH  18  19
ATOM     19  N   UNL     1       1.584   8.864  22.067  0.00  0.00    +0.000 NA
ATOM     20  H   UNL     1       1.971   8.001  22.449  0.00  0.00    +0.000 HD
BRANCH  19  22
ATOM     21  C   UNL     1      -0.205  10.507  22.276  0.00  0.00    +0.000 C 
ATOM     22  C   UNL     1       0.478   9.308  22.917  0.00  0.00    +0.000 C 
ENDBRANCH  19  22
ENDBRANCH  18  19
ENDBRANCH  11  18
ENDBRANCH   9  14
ENDBRANCH   8   9
ENDBRANCH   1   8
BRANCH   4  23
ATOM     23  O   UNL     1       8.092   7.943  17.250  0.00  0.00    +0.000 OA
BRANCH  23  24
ATOM     24  C   UNL     1       7.486   9.204  17.545  0.00  0.00    +0.000 C 
BRANCH  24  25
ATOM     25  C   UNL     1       8.490  10.143  18.155  0.00  0.00    +0.000 A 
ATOM     26  C   UNL     1       9.222   9.745  19.270  0.00  0.00    +0.000 A 
ATOM     27  C   UNL     1      10.048  10.675  19.891  0.00  0.00    +0.000 A 
ATOM     28  C   UNL     1      10.130  11.971  19.391  0.00  0.00    +0.000 A 
ATOM     29  C   UNL     1       9.385  12.268  18.258  0.00  0.00    +0.000 A 
ATOM     30  N   UNL     1       8.562  11.393  17.636  0.00  0.00    +0.000 NA
BRANCH  28  31
ATOM     31  O   UNL     1      10.933  12.823  20.092  0.00  0.00    +0.000 OA
ATOM     32  C   UNL     1      10.614  14.204  19.993  0.00  0.00    +0.000 C 
ENDBRANCH  28  31
ENDBRANCH  24  25
ENDBRANCH  23  24
ENDBRANCH   4  23
TORSDOF 10
ENDMDL
MODEL 8
REMARK VINA RESULT:      -7.3      4.474      7.897
REMARK  Name = 
REMARK  13 active torsions:
REMARK  status: ('A' for Active; 'I' for Inactive)
REMARK    1  A    between atoms: C_1  and  C_2
REMARK    2  A    between atoms: C_2  and  N_3
REMARK    3  A    between atoms: N_3  and  C_4
REMARK    4  A    between atoms: C_4  and  C_5
REMARK    5  A    between atoms: C_8  and  C_9
REMARK    6  A    between atoms: C_9  and  C_11
REMARK    7  A    between atoms: C_11  and  N_12
REMARK    8  A    between atoms: C_15  and  O_16
REMARK    9  A    between atoms: O_16  and  C_17
REMARK   10  A    between atoms: C_17  and  C_18
REMARK   11  A    between atoms: C_21  and  O_22
REMARK   12  A    between atoms: O_22  and  C_23
REMARK   13  A    between atoms: C_29  and  C_30
REMARK                            x       y       z     vdW  Elec       q    Type
REMARK                         _______ _______ _______ _____ _____    ______ ____
ROOT
ATOM      1  N   UNL     1       0.974   9.359  19.490  0.00  0.00    +0.000 N 
ATOM      2  C   UNL     1       0.908   8.656  20.675  0.00  0.00    +0.000 A 
ATOM      3  C   UNL     1       1.614   7.536  20.854  0.00  0.00    +0.000 A 
ATOM      4  C   UNL     1       2.411   7.003  19.771  0.00  0.00    +0.000 A 
ATOM      5  C   UNL     1       2.502   7.668  18.613  0.00  0.00    +0.000 A 
ATOM      6  C   UNL     1       1.797   8.960  18.432  0.00  0.00    +0.000 A 
ATOM      7  O   UNL     1       1.998   9.627  17.420  0.00  0.00    +0.000 OA
ENDROOT
BRANCH   1   8
ATOM      8  C   UNL     1       0.423  10.699  19.437  0.00  0.00    +0.000 C 
BRANCH   8   9
ATOM      9  C   UNL     1       0.642  11.578  20.675  0.00  0.00    +0.000 C 
ATOM     10  O   UNL     1       1.747  12.015  20.995  0.00  0.00    +0.000 OA
BRANCH   9  14
ATOM     11  C   UNL     1      -2.889  12.464  23.034  0.00  0.00    +0.000 A 
ATOM     12  C   UNL     1      -2.039  11.411  23.358  0.00  0.00    +0.000 A 
ATOM     13  C   UNL     1      -0.903  11.164  22.590  0.00  0.00    +0.000 A 
ATOM     14  C   UNL     1      -0.598  11.937  21.452  0.00  0.00    +0.000 A 
ATOM     15  C   UNL     1      -1.467  12.988  21.095  0.00  0.00    +0.000 A 
ATOM     16  C   UNL     1      -1.326  13.878  19.888  0.00  0.00    +0.000 C 
ATOM     17  C   UNL     1      -2.593  13.242  21.908  0.00  0.00    +0.000 A 
BRANCH  11  18
ATOM     18  C   UNL     1      -4.094  12.763  23.892  0.00  0.00    +0.000 C 
BRANCH  18  19
ATOM     19  N   UNL     1      -5.359  12.317  23.302  0.00  0.00    +0.000 NA
ATOM     20  H   UNL     1      -5.467  12.765  22.392  0.00  0.00    +0.000 HD
BRANCH  19  22
ATOM     21  C   UNL     1      -7.785  12.561  23.304  0.00  0.00    +0.000 C 
ATOM     22  C   UNL     1      -6.516  12.651  24.137  0.00  0.00    +0.000 C 
ENDBRANCH  19  22
ENDBRANCH  18  19
ENDBRANCH  11  18
ENDBRANCH   9  14
ENDBRANCH   8   9
ENDBRANCH   1   8
BRANCH   4  23
ATOM     23  O   UNL     1       3.099   5.817  19.931  0.00  0.00    +0.000 OA
BRANCH  23  24
ATOM     24  C   UNL     1       2.876   4.821  18.931  0.00  0.00    +0.000 C 
BRANCH  24  25
ATOM     25  C   UNL     1       4.109   4.631  18.091  0.00  0.00    +0.000 A 
ATOM     26  C   UNL     1       5.367   4.841  18.649  0.00  0.00    +0.000 A 
ATOM     27  C   UNL     1       6.481   4.785  17.820  0.00  0.00    +0.000 A 
ATOM     28  C   UNL     1       6.322   4.519  16.463  0.00  0.00    +0.000 A 
ATOM     29  C   UNL     1       5.033   4.293  16.001  0.00  0.00    +0.000 A 
ATOM     30  N   UNL     1       3.925   4.353  16.777  0.00  0.00    +0.000 NA
BRANCH  28  31
ATOM     31  O   UNL     1       7.469   4.525  15.723  0.00  0.00    +0.000 OA
ATOM     32  C   UNL     1       7.317   4.812  14.339  0.00  0.00    +0.000 C 
ENDBRANCH  28  31
ENDBRANCH  24  25
ENDBRANCH  23  24
ENDBRANCH   4  23
TORSDOF 10
ENDMDL
MODEL 9
REMARK VINA RESULT:      -7.2      1.212      1.970
REMARK  Name = 
REMARK  13 active torsions:
REMARK  status: ('A' for Active; 'I' for Inactive)
REMARK    1  A    between atoms: C_1  and  C_2
REMARK    2  A    between atoms: C_2  and  N_3
REMARK    3  A    between atoms: N_3  and  C_4
REMARK    4  A    between atoms: C_4  and  C_5
REMARK    5  A    between atoms: C_8  and  C_9
REMARK    6  A    between atoms: C_9  and  C_11
REMARK    7  A    between atoms: C_11  and  N_12
REMARK    8  A    between atoms: C_15  and  O_16
REMARK    9  A    between atoms: O_16  and  C_17
REMARK   10  A    between atoms: C_17  and  C_18
REMARK   11  A    between atoms: C_21  and  O_22
REMARK   12  A    between atoms: O_22  and  C_23
REMARK   13  A    between atoms: C_29  and  C_30
REMARK                            x       y       z     vdW  Elec       q    Type
REMARK                         _______ _______ _______ _____ _____    ______ ____
ROOT
ATOM      1  N   UNL     1       5.621   4.402  18.038  0.00  0.00    +0.000 N 
ATOM      2  C   UNL     1       5.998   4.886  19.273  0.00  0.00    +0.000 A 
ATOM      3  C   UNL     1       6.855   5.905  19.383  0.00  0.00    +0.000 A 
ATOM      4  C   UNL     1       7.458   6.474  18.198  0.00  0.00    +0.000 A 
ATOM      5  C   UNL     1       7.104   6.031  16.985  0.00  0.00    +0.000 A 
ATOM      6  C   UNL     1       6.085   4.963  16.844  0.00  0.00    +0.000 A 
ATOM      7  O   UNL     1       5.669   4.662  15.729  0.00  0.00    +0.000 OA
ENDROOT
BRANCH   1   8
ATOM      8  C   UNL     1       4.490   3.498  17.954  0.00  0.00    +0.000 C 
BRANCH   8   9
ATOM      9  C   UNL     1       3.131   4.130  17.634  0.00  0.00    +0.000 C 
ATOM     10  O   UNL     1       2.427   3.759  16.695  0.00  0.00    +0.000 OA
BRANCH   9  14
ATOM     11  C   UNL     1       1.719   7.077  20.487  0.00  0.00    +0.000 A 
ATOM     12  C   UNL     1       1.529   5.713  20.690  0.00  0.00    +0.000 A 
ATOM     13  C   UNL     1       2.011   4.792  19.763  0.00  0.00    +0.000 A 
ATOM     14  C   UNL     1       2.665   5.202  18.585  0.00  0.00    +0.000 A 
ATOM     15  C   UNL     1       2.838   6.582  18.352  0.00  0.00    +0.000 A 
ATOM     16  C   UNL     1       3.464   7.199  17.129  0.00  0.00    +0.000 C 
ATOM     17  C   UNL     1       2.373   7.496  19.323  0.00  0.00    +0.000 A 
BRANCH  11  18
ATOM     18  C   UNL     1       1.240   8.074  21.514  0.00  0.00    +0.000 C 
BRANCH  18  19
ATOM     19  N   UNL     1       1.125   9.440  20.995  0.00  0.00    +0.000 NA
ATOM     20  H   UNL     1       1.627  10.067  21.623  0.00  0.00    +0.000 HD
BRANCH  19  22
ATOM     21  C   UNL     1      -0.461  11.141  21.728  0.00  0.00    +0.000 C 
ATOM     22  C   UNL     1      -0.267   9.885  20.892  0.00  0.00    +0.000 C 
ENDBRANCH  19  22
ENDBRANCH  18  19
ENDBRANCH  11  18
ENDBRANCH   9  14
ENDBRANCH   8   9
ENDBRANCH   1   8
BRANCH   4  23
ATOM     23  O   UNL     1       8.386   7.490  18.308  0.00  0.00    +0.000 OA
BRANCH  23  24
ATOM     24  C   UNL     1       7.963   8.779  17.858  0.00  0.00    +0.000 C 
BRANCH  24  25
ATOM     25  C   UNL     1       8.797   9.859  18.490  0.00  0.00    +0.000 A 
ATOM     26  C   UNL     1       9.536  10.724  17.687  0.00  0.00    +0.000 A 
ATOM     27  C   UNL     1      10.398  11.627  18.298  0.00  0.00    +0.000 A 
ATOM     28  C   UNL     1      10.503  11.654  19.685  0.00  0.00    +0.000 A 
ATOM     29  C   UNL     1       9.705  10.775  20.405  0.00  0.00    +0.000 A 
ATOM     30  N   UNL     1       8.867   9.874  19.843  0.00  0.00    +0.000 NA
BRANCH  28  31
ATOM     31  O   UNL     1      11.403  12.546  20.191  0.00  0.00    +0.000 OA
ATOM     32  C   UNL     1      11.610  13.726  19.427  0.00  0.00    +0.000 C 
ENDBRANCH  28  31
ENDBRANCH  24  25
ENDBRANCH  23  24
ENDBRANCH   4  23
TORSDOF 10
ENDMDL
