MODEL 1
REMARK VINA RESULT:      -5.6      0.000      0.000
REMARK  Name = 
REMARK  3 active torsions:
REMARK  status: ('A' for Active; 'I' for Inactive)
REMARK    1  A    between atoms: C_2  and  C_3
REMARK    2  A    between atoms: C_4  and  C_5
REMARK    3  A    between atoms: C_10  and  O_11
REMARK                            x       y       z     vdW  Elec       q    Type
REMARK                         _______ _______ _______ _____ _____    ______ ____
ROOT
ATOM      1  C   UNL     1       3.859   3.799  18.143  0.00  0.00    +0.000 A 
ATOM      2  C   UNL     1       2.678   4.333  17.610  0.00  0.00    +0.000 A 
ATOM      3  C   UNL     1       1.435   3.831  18.002  0.00  0.00    +0.000 A 
ATOM      4  C   UNL     1       1.362   2.791  18.928  0.00  0.00    +0.000 A 
ATOM      5  C   UNL     1       2.531   2.255  19.471  0.00  0.00    +0.000 A 
ATOM      6  C   UNL     1       3.771   2.760  19.079  0.00  0.00    +0.000 A 
ENDROOT
BRANCH   1   8
ATOM      7  C   UNL     1       5.606   4.130  16.467  0.00  0.00    +0.000 C 
ATOM      8  C   UNL     1       5.142   4.355  17.702  0.00  0.00    +0.000 C 
BRANCH   7  10
ATOM      9  O   UNL     1       7.938   4.405  16.687  0.00  0.00    +0.000 OA
ATOM     10  C   UNL     1       6.920   4.662  16.057  0.00  0.00    +0.000 C 
ENDBRANCH   7  10
ENDBRANCH   1   8
BRANCH   6  11
ATOM     11  O   UNL     1       4.920   2.236  19.608  0.00  0.00    +0.000 OA
ATOM     12  H   UNL     1       4.732   1.342  19.941  0.00  0.00    +0.000 HD
ENDBRANCH   6  11
TORSDOF 3
ENDMDL
MODEL 2
REMARK VINA RESULT:      -5.4      1.326      1.686
REMARK  Name = 
REMARK  3 active torsions:
REMARK  status: ('A' for Active; 'I' for Inactive)
REMARK    1  A    between atoms: C_2  and  C_3
REMARK    2  A    between atoms: C_4  and  C_5
REMARK    3  A    between atoms: C_10  and  O_11
REMARK                            x       y       z     vdW  Elec       q    Type
REMARK                         _______ _______ _______ _____ _____    ______ ____
ROOT
ATOM      1  C   UNL     1       2.994   3.170  18.778  0.00  0.00    +0.000 A 
ATOM      2  C   UNL     1       1.682   3.661  18.811  0.00  0.00    +0.000 A 
ATOM      3  C   UNL     1       0.955   3.653  20.004  0.00  0.00    +0.000 A 
ATOM      4  C   UNL     1       1.532   3.154  21.170  0.00  0.00    +0.000 A 
ATOM      5  C   UNL     1       2.840   2.668  21.151  0.00  0.00    +0.000 A 
ATOM      6  C   UNL     1       3.565   2.679  19.959  0.00  0.00    +0.000 A 
ENDROOT
BRANCH   1   8
ATOM      7  C   UNL     1       4.425   4.270  17.130  0.00  0.00    +0.000 C 
ATOM      8  C   UNL     1       3.721   3.195  17.504  0.00  0.00    +0.000 C 
BRANCH   7  10
ATOM      9  O   UNL     1       6.180   3.713  15.656  0.00  0.00    +0.000 OA
ATOM     10  C   UNL     1       5.114   4.290  15.825  0.00  0.00    +0.000 C 
ENDBRANCH   7  10
ENDBRANCH   1   8
BRANCH   6  11
ATOM     11  O   UNL     1       4.848   2.201  19.937  0.00  0.00    +0.000 OA
ATOM     12  H   UNL     1       5.191   2.266  19.030  0.00  0.00    +0.000 HD
ENDBRANCH   6  11
TORSDOF 3
ENDMDL
MODEL 3
REMARK VINA RESULT:      -5.4      0.987      1.010
REMARK  Name = 
REMARK  3 active torsions:
REMARK  status: ('A' for Active; 'I' for Inactive)
REMARK    1  A    between atoms: C_2  and  C_3
REMARK    2  A    between atoms: C_4  and  C_5
REMARK    3  A    between atoms: C_10  and  O_11
REMARK                            x       y       z     vdW  Elec       q    Type
REMARK                         _______ _______ _______ _____ _____    ______ ____
ROOT
ATOM      1  C   UNL     1       3.783   4.040  17.786  0.00  0.00    +0.000 A 
ATOM      2  C   UNL     1       2.414   4.014  17.488  0.00  0.00    +0.000 A 
ATOM      3  C   UNL     1       1.534   3.261  18.268  0.00  0.00    +0.000 A 
ATOM      4  C   UNL     1       2.014   2.528  19.352  0.00  0.00    +0.000 A 
ATOM      5  C   UNL     1       3.374   2.550  19.664  0.00  0.00    +0.000 A 
ATOM      6  C   UNL     1       4.251   3.304  18.883  0.00  0.00    +0.000 A 
ENDROOT
BRANCH   1   8
ATOM      7  C   UNL     1       5.234   4.322  15.841  0.00  0.00    +0.000 C 
ATOM      8  C   UNL     1       4.671   4.841  16.940  0.00  0.00    +0.000 C 
BRANCH   7  10
ATOM      9  O   UNL     1       7.269   5.446  15.440  0.00  0.00    +0.000 OA
ATOM     10  C   UNL     1       6.160   5.133  15.027  0.00  0.00    +0.000 C 
ENDBRANCH   7  10
ENDBRANCH   1   8
BRANCH   6  11
ATOM     11  O   UNL     1       5.586   3.327  19.185  0.00  0.00    +0.000 OA
ATOM     12  H   UNL     1       5.723   2.877  20.036  0.00  0.00    +0.000 HD
ENDBRANCH   6  11
TORSDOF 3
ENDMDL
MODEL 4
REMARK VINA RESULT:      -5.4      2.044      2.214
REMARK  Name = 
REMARK  3 active torsions:
REMARK  status: ('A' for Active; 'I' for Inactive)
REMARK    1  A    between atoms: C_2  and  C_3
REMARK    2  A    between atoms: C_4  and  C_5
REMARK    3  A    between atoms: C_10  and  O_11
REMARK                            x       y       z     vdW  Elec       q    Type
REMARK                         _______ _______ _______ _____ _____    ______ ____
ROOT
ATOM      1  C   UNL     1       2.805   4.035  18.347  0.00  0.00    +0.000 A 
ATOM      2  C   UNL     1       2.552   5.066  19.261  0.00  0.00    +0.000 A 
ATOM      3  C   UNL     1       1.641   4.880  20.303  0.00  0.00    +0.000 A 
ATOM      4  C   UNL     1       0.975   3.663  20.439  0.00  0.00    +0.000 A 
ATOM      5  C   UNL     1       1.222   2.626  19.539  0.00  0.00    +0.000 A 
ATOM      6  C   UNL     1       2.134   2.814  18.500  0.00  0.00    +0.000 A 
ENDROOT
BRANCH   1   8
ATOM      7  C   UNL     1       4.334   5.474  17.098  0.00  0.00    +0.000 C 
ATOM      8  C   UNL     1       3.767   4.274  17.267  0.00  0.00    +0.000 C 
BRANCH   7  10
ATOM      9  O   UNL     1       5.242   6.741  15.328  0.00  0.00    +0.000 OA
ATOM     10  C   UNL     1       5.267   5.705  15.978  0.00  0.00    +0.000 C 
ENDBRANCH   7  10
ENDBRANCH   1   8
BRANCH   6  11
ATOM     11  O   UNL     1       2.378   1.799  17.615  0.00  0.00    +0.000 OA
ATOM     12  H   UNL     1       1.897   1.007  17.905  0.00  0.00    +0.000 HD
ENDBRANCH   6  11
TORSDOF 3
ENDMDL
MODEL 5
REMARK VINA RESULT:      -5.4      1.662      1.855
REMARK  Name = 
REMARK  3 active torsions:
REMARK  status: ('A' for Active; 'I' for Inactive)
REMARK    1  A    between atoms: C_2  and  C_3
REMARK    2  A    between atoms: C_4  and  C_5
REMARK    3  A    between atoms: C_10  and  O_11
REMARK                            x       y       z     vdW  Elec       q    Type
REMARK                         _______ _______ _______ _____ _____    ______ ____
ROOT
ATOM      1  C   UNL     1       3.126   3.791  18.686  0.00  0.00    +0.000 A 
ATOM      2  C   UNL     1       1.805   4.246  18.798  0.00  0.00    +0.000 A 
ATOM      3  C   UNL     1       1.054   3.960  19.940  0.00  0.00    +0.000 A 
ATOM      4  C   UNL     1       1.615   3.218  20.978  0.00  0.00    +0.000 A 
ATOM      5  C   UNL     1       2.931   2.765  20.881  0.00  0.00    +0.000 A 
ATOM      6  C   UNL     1       3.680   3.053  19.740  0.00  0.00    +0.000 A 
ENDROOT
BRANCH   1   8
ATOM      7  C   UNL     1       4.476   5.300  17.317  0.00  0.00    +0.000 C 
ATOM      8  C   UNL     1       3.878   4.112  17.469  0.00  0.00    +0.000 C 
BRANCH   7  10
ATOM      9  O   UNL     1       5.159   6.740  15.579  0.00  0.00    +0.000 OA
ATOM     10  C   UNL     1       5.192   5.618  16.067  0.00  0.00    +0.000 C 
ENDBRANCH   7  10
ENDBRANCH   1   8
BRANCH   6  11
ATOM     11  O   UNL     1       4.971   2.609  19.641  0.00  0.00    +0.000 OA
ATOM     12  H   UNL     1       5.570   3.321  19.920  0.00  0.00    +0.000 HD
ENDBRANCH   6  11
TORSDOF 3
ENDMDL
MODEL 6
REMARK VINA RESULT:      -5.4      2.210      2.438
REMARK  Name = 
REMARK  3 active torsions:
REMARK  status: ('A' for Active; 'I' for Inactive)
REMARK    1  A    between atoms: C_2  and  C_3
REMARK    2  A    between atoms: C_4  and  C_5
REMARK    3  A    between atoms: C_10  and  O_11
REMARK                            x       y       z     vdW  Elec       q    Type
REMARK                         _______ _______ _______ _____ _____    ______ ____
ROOT
ATOM      1  C   UNL     1       2.602   4.757  18.401  0.00  0.00    +0.000 A 
ATOM      2  C   UNL     1       1.959   3.622  17.888  0.00  0.00    +0.000 A 
ATOM      3  C   UNL     1       1.070   2.894  18.682  0.00  0.00    +0.000 A 
ATOM      4  C   UNL     1       0.816   3.294  19.994  0.00  0.00    +0.000 A 
ATOM      5  C   UNL     1       1.445   4.426  20.513  0.00  0.00    +0.000 A 
ATOM      6  C   UNL     1       2.332   5.152  19.718  0.00  0.00    +0.000 A 
ENDROOT
BRANCH   1   8
ATOM      7  C   UNL     1       4.512   4.858  16.881  0.00  0.00    +0.000 C 
ATOM      8  C   UNL     1       3.529   5.490  17.534  0.00  0.00    +0.000 C 
BRANCH   7  10
ATOM      9  O   UNL     1       5.202   6.750  15.655  0.00  0.00    +0.000 OA
ATOM     10  C   UNL     1       5.462   5.621  16.048  0.00  0.00    +0.000 C 
ENDBRANCH   7  10
ENDBRANCH   1   8
BRANCH   6  11
ATOM     11  O   UNL     1       2.951   6.262  20.225  0.00  0.00    +0.000 OA
ATOM     12  H   UNL     1       2.278   6.935  20.421  0.00  0.00    +0.000 HD
ENDBRANCH   6  11
TORSDOF 3
ENDMDL
MODEL 7
REMARK VINA RESULT:      -5.4      1.572      1.641
REMARK  Name = 
REMARK  3 active torsions:
REMARK  status: ('A' for Active; 'I' for Inactive)
REMARK    1  A    between atoms: C_2  and  C_3
REMARK    2  A    between atoms: C_4  and  C_5
REMARK    3  A    between atoms: C_10  and  O_11
REMARK                            x       y       z     vdW  Elec       q    Type
REMARK                         _______ _______ _______ _____ _____    ______ ____
ROOT
ATOM      1  C   UNL     1       4.195   3.967  18.808  0.00  0.00    +0.000 A 
ATOM      2  C   UNL     1       3.177   4.600  18.084  0.00  0.00    +0.000 A 
ATOM      3  C   UNL     1       2.034   3.892  17.706  0.00  0.00    +0.000 A 
ATOM      4  C   UNL     1       1.899   2.547  18.048  0.00  0.00    +0.000 A 
ATOM      5  C   UNL     1       2.904   1.908  18.776  0.00  0.00    +0.000 A 
ATOM      6  C   UNL     1       4.044   2.617  19.153  0.00  0.00    +0.000 A 
ENDROOT
BRANCH   1   8
ATOM      7  C   UNL     1       6.396   4.914  18.327  0.00  0.00    +0.000 C 
ATOM      8  C   UNL     1       5.379   4.746  19.182  0.00  0.00    +0.000 C 
BRANCH   7  10
ATOM      9  O   UNL     1       8.252   5.338  19.720  0.00  0.00    +0.000 OA
ATOM     10  C   UNL     1       7.597   5.666  18.739  0.00  0.00    +0.000 C 
ENDBRANCH   7  10
ENDBRANCH   1   8
BRANCH   6  11
ATOM     11  O   UNL     1       5.032   1.992  19.866  0.00  0.00    +0.000 OA
ATOM     12  H   UNL     1       4.622   1.429  20.543  0.00  0.00    +0.000 HD
ENDBRANCH   6  11
TORSDOF 3
ENDMDL
MODEL 8
REMARK VINA RESULT:      -5.3      1.075      1.075
REMARK  Name = 
REMARK  3 active torsions:
REMARK  status: ('A' for Active; 'I' for Inactive)
REMARK    1  A    between atoms: C_2  and  C_3
REMARK    2  A    between atoms: C_4  and  C_5
REMARK    3  A    between atoms: C_10  and  O_11
REMARK                            x       y       z     vdW  Elec       q    Type
REMARK                         _______ _______ _______ _____ _____    ______ ____
ROOT
ATOM      1  C   UNL     1       4.032   4.019  18.314  0.00  0.00    +0.000 A 
ATOM      2  C   UNL     1       2.905   4.609  17.727  0.00  0.00    +0.000 A 
ATOM      3  C   UNL     1       1.660   3.979  17.798  0.00  0.00    +0.000 A 
ATOM      4  C   UNL     1       1.532   2.756  18.453  0.00  0.00    +0.000 A 
ATOM      5  C   UNL     1       2.646   2.161  19.047  0.00  0.00    +0.000 A 
ATOM      6  C   UNL     1       3.888   2.793  18.977  0.00  0.00    +0.000 A 
ENDROOT
BRANCH   1   8
ATOM      7  C   UNL     1       5.501   5.713  17.343  0.00  0.00    +0.000 C 
ATOM      8  C   UNL     1       5.320   4.712  18.214  0.00  0.00    +0.000 C 
BRANCH   7  10
ATOM      9  O   UNL     1       7.501   6.261  16.219  0.00  0.00    +0.000 OA
ATOM     10  C   UNL     1       6.818   6.369  17.229  0.00  0.00    +0.000 C 
ENDBRANCH   7  10
ENDBRANCH   1   8
BRANCH   6  11
ATOM     11  O   UNL     1       4.983   2.211  19.557  0.00  0.00    +0.000 OA
ATOM     12  H   UNL     1       5.028   2.486  20.488  0.00  0.00    +0.000 HD
ENDBRANCH   6  11
TORSDOF 3
ENDMDL
MODEL 9
REMARK VINA RESULT:      -5.3      3.556      4.176
REMARK  Name = 
REMARK  3 active torsions:
REMARK  status: ('A' for Active; 'I' for Inactive)
REMARK    1  A    between atoms: C_2  and  C_3
REMARK    2  A    between atoms: C_4  and  C_5
REMARK    3  A    between atoms: C_10  and  O_11
REMARK                            x       y       z     vdW  Elec       q    Type
REMARK                         _______ _______ _______ _____ _____    ______ ____
ROOT
ATOM      1  C   UNL     1       2.230   4.950  19.232  0.00  0.00    +0.000 A 
ATOM      2  C   UNL     1       2.547   4.865  20.594  0.00  0.00    +0.000 A 
ATOM      3  C   UNL     1       2.056   3.812  21.369  0.00  0.00    +0.000 A 
ATOM      4  C   UNL     1       1.246   2.836  20.790  0.00  0.00    +0.000 A 
ATOM      5  C   UNL     1       0.929   2.906  19.433  0.00  0.00    +0.000 A 
ATOM      6  C   UNL     1       1.421   3.959  18.660  0.00  0.00    +0.000 A 
ENDROOT
BRANCH   1   8
ATOM      7  C   UNL     1       2.185   7.281  18.498  0.00  0.00    +0.000 C 
ATOM      8  C   UNL     1       2.763   6.074  18.456  0.00  0.00    +0.000 C 
BRANCH   7  10
ATOM      9  O   UNL     1       2.050   9.392  17.456  0.00  0.00    +0.000 OA
ATOM     10  C   UNL     1       2.713   8.387  17.676  0.00  0.00    +0.000 C 
ENDBRANCH   7  10
ENDBRANCH   1   8
BRANCH   6  11
ATOM     11  O   UNL     1       1.110   4.031  17.329  0.00  0.00    +0.000 OA
ATOM     12  H   UNL     1       1.266   3.162  16.923  0.00  0.00    +0.000 HD
ENDBRANCH   6  11
TORSDOF 3
ENDMDL
