MODEL 1
REMARK VINA RESULT:      -6.5      0.000      0.000
REMARK  Name = 
REMARK  12 active torsions:
REMARK  status: ('A' for Active; 'I' for Inactive)
REMARK    1  A    between atoms: C_1  and  N_2
REMARK    2  A    between atoms: N_2  and  C_3
REMARK    3  A    between atoms: N_2  and  C_4
REMARK    4  A    between atoms: C_7  and  N_8
REMARK    5  A    between atoms: C_11  and  S_12
REMARK    6  A    between atoms: S_12  and  C_13
REMARK    7  A    between atoms: C_13  and  C_14
REMARK    8  A    between atoms: C_14  and  O_15
REMARK    9  A    between atoms: C_16  and  S_17
REMARK   10  A    between atoms: S_17  and  C_18
REMARK   11  A    between atoms: C_18  and  C_19
REMARK   12  A    between atoms: C_19  and  O_20
REMARK                            x       y       z     vdW  Elec       q    Type
REMARK                         _______ _______ _______ _____ _____    ______ ____
ROOT
ATOM      1  N   UNL     1       2.871   6.358  18.166  0.00  0.00    +0.000 N 
ATOM      2  C   UNL     1       2.414   5.070  18.230  0.00  0.00    +0.000 C 
ATOM      3  O   UNL     1       1.364   4.652  18.699  0.00  0.00    +0.000 OA
ATOM      4  C   UNL     1       3.418   4.207  17.558  0.00  0.00    +0.000 C 
ATOM      5  C   UNL     1       4.428   4.996  17.178  0.00  0.00    +0.000 C 
ATOM      6  C   UNL     1       4.070   6.391  17.507  0.00  0.00    +0.000 C 
ATOM      7  O   UNL     1       4.788   7.348  17.246  0.00  0.00    +0.000 OA
ENDROOT
BRANCH   1  11
ATOM      8  C   UNL     1       0.864   9.800  19.813  0.00  0.00    +0.000 A 
ATOM      9  C   UNL     1       1.117   9.664  18.441  0.00  0.00    +0.000 A 
ATOM     10  C   UNL     1       1.792   8.555  17.902  0.00  0.00    +0.000 A 
ATOM     11  C   UNL     1       2.213   7.499  18.714  0.00  0.00    +0.000 A 
ATOM     12  C   UNL     1       1.939   7.605  20.080  0.00  0.00    +0.000 A 
ATOM     13  C   UNL     1       1.291   8.733  20.613  0.00  0.00    +0.000 A 
BRANCH   8  15
ATOM     14  C   UNL     1       0.253  12.193  19.652  0.00  0.00    +0.000 C 
ATOM     15  N   UNL     1       0.215  10.909  20.344  0.00  0.00    +0.000 N 
ATOM     16  C   UNL     1      -0.207  10.910  21.741  0.00  0.00    +0.000 C 
ENDBRANCH   8  15
ENDBRANCH   1  11
BRANCH   4  17
ATOM     17  S   UNL     1       3.344   2.500  17.420  0.00  0.00    +0.000 S 
BRANCH  17  18
ATOM     18  C   UNL     1       3.248   1.850  19.123  0.00  0.00    +0.000 C 
BRANCH  18  19
ATOM     19  C   UNL     1       4.388   2.463  19.944  0.00  0.00    +0.000 C 
BRANCH  19  20
ATOM     20  O   UNL     1       5.338   1.471  20.329  0.00  0.00    +0.000 OA
ATOM     21  H   UNL     1       4.950   1.004  21.093  0.00  0.00    +0.000 HD
ENDBRANCH  19  20
ENDBRANCH  18  19
ENDBRANCH  17  18
ENDBRANCH   4  17
BRANCH   5  22
ATOM     22  S   UNL     1       5.893   4.580  16.376  0.00  0.00    +0.000 S 
BRANCH  22  23
ATOM     23  C   UNL     1       7.103   4.615  17.750  0.00  0.00    +0.000 C 
BRANCH  23  24
ATOM     24  C   UNL     1       7.648   6.028  17.971  0.00  0.00    +0.000 C 
BRANCH  24  25
ATOM     25  O   UNL     1       7.649   6.789  16.767  0.00  0.00    +0.000 OA
ATOM     26  H   UNL     1       6.994   7.502  16.885  0.00  0.00    +0.000 HD
ENDBRANCH  24  25
ENDBRANCH  23  24
ENDBRANCH  22  23
ENDBRANCH   5  22
TORSDOF 10
ENDMDL
MODEL 2
REMARK VINA RESULT:      -6.5      0.151      1.211
REMARK  Name = 
REMARK  12 active torsions:
REMARK  status: ('A' for Active; 'I' for Inactive)
REMARK    1  A    between atoms: C_1  and  N_2
REMARK    2  A    between atoms: N_2  and  C_3
REMARK    3  A    between atoms: N_2  and  C_4
REMARK    4  A    between atoms: C_7  and  N_8
REMARK    5  A    between atoms: C_11  and  S_12
REMARK    6  A    between atoms: S_12  and  C_13
REMARK    7  A    between atoms: C_13  and  C_14
REMARK    8  A    between atoms: C_14  and  O_15
REMARK    9  A    between atoms: C_16  and  S_17
REMARK   10  A    between atoms: S_17  and  C_18
REMARK   11  A    between atoms: C_18  and  C_19
REMARK   12  A    between atoms: C_19  and  O_20
REMARK                            x       y       z     vdW  Elec       q    Type
REMARK                         _______ _______ _______ _____ _____    ______ ____
ROOT
ATOM      1  N   UNL     1       2.892   6.321  18.112  0.00  0.00    +0.000 N 
ATOM      2  C   UNL     1       2.446   5.029  18.183  0.00  0.00    +0.000 C 
ATOM      3  O   UNL     1       1.398   4.606  18.651  0.00  0.00    +0.000 OA
ATOM      4  C   UNL     1       3.461   4.171  17.521  0.00  0.00    +0.000 C 
ATOM      5  C   UNL     1       4.466   4.966  17.140  0.00  0.00    +0.000 C 
ATOM      6  C   UNL     1       4.094   6.360  17.458  0.00  0.00    +0.000 C 
ATOM      7  O   UNL     1       4.804   7.322  17.193  0.00  0.00    +0.000 OA
ENDROOT
BRANCH   1  11
ATOM      8  C   UNL     1       0.881   9.769  19.741  0.00  0.00    +0.000 A 
ATOM      9  C   UNL     1       1.334   8.715  20.546  0.00  0.00    +0.000 A 
ATOM     10  C   UNL     1       1.969   7.578  20.017  0.00  0.00    +0.000 A 
ATOM     11  C   UNL     1       2.221   7.460  18.648  0.00  0.00    +0.000 A 
ATOM     12  C   UNL     1       1.804   8.518  17.836  0.00  0.00    +0.000 A 
ATOM     13  C   UNL     1       1.141   9.636  18.371  0.00  0.00    +0.000 A 
BRANCH   8  15
ATOM     14  C   UNL     1      -0.243  10.881  21.645  0.00  0.00    +0.000 C 
ATOM     15  N   UNL     1       0.234  10.882  20.267  0.00  0.00    +0.000 N 
ATOM     16  C   UNL     1      -0.288  11.913  19.375  0.00  0.00    +0.000 C 
ENDBRANCH   8  15
ENDBRANCH   1  11
BRANCH   4  17
ATOM     17  S   UNL     1       3.403   2.462  17.395  0.00  0.00    +0.000 S 
BRANCH  17  18
ATOM     18  C   UNL     1       3.262   1.825  19.100  0.00  0.00    +0.000 C 
BRANCH  18  19
ATOM     19  C   UNL     1       4.386   2.438  19.944  0.00  0.00    +0.000 C 
BRANCH  19  20
ATOM     20  O   UNL     1       5.336   1.448  20.334  0.00  0.00    +0.000 OA
ATOM     21  H   UNL     1       5.358   0.792  19.612  0.00  0.00    +0.000 HD
ENDBRANCH  19  20
ENDBRANCH  18  19
ENDBRANCH  17  18
ENDBRANCH   4  17
BRANCH   5  22
ATOM     22  S   UNL     1       5.938   4.558  16.347  0.00  0.00    +0.000 S 
BRANCH  22  23
ATOM     23  C   UNL     1       7.140   4.606  17.728  0.00  0.00    +0.000 C 
BRANCH  23  24
ATOM     24  C   UNL     1       7.631   6.033  17.983  0.00  0.00    +0.000 C 
BRANCH  24  25
ATOM     25  O   UNL     1       7.668   6.803  16.786  0.00  0.00    +0.000 OA
ATOM     26  H   UNL     1       7.295   6.244  16.079  0.00  0.00    +0.000 HD
ENDBRANCH  24  25
ENDBRANCH  23  24
ENDBRANCH  22  23
ENDBRANCH   5  22
TORSDOF 10
ENDMDL
MODEL 3
REMARK VINA RESULT:      -6.5      1.549      3.700
REMARK  Name = 
REMARK  12 active torsions:
REMARK  status: ('A' for Active; 'I' for Inactive)
REMARK    1  A    between atoms: C_1  and  N_2
REMARK    2  A    between atoms: N_2  and  C_3
REMARK    3  A    between atoms: N_2  and  C_4
REMARK    4  A    between atoms: C_7  and  N_8
REMARK    5  A    between atoms: C_11  and  S_12
REMARK    6  A    between atoms: S_12  and  C_13
REMARK    7  A    between atoms: C_13  and  C_14
REMARK    8  A    between atoms: C_14  and  O_15
REMARK    9  A    between atoms: C_16  and  S_17
REMARK   10  A    between atoms: S_17  and  C_18
REMARK   11  A    between atoms: C_18  and  C_19
REMARK   12  A    between atoms: C_19  and  O_20
REMARK                            x       y       z     vdW  Elec       q    Type
REMARK                         _______ _______ _______ _____ _____    ______ ____
ROOT
ATOM      1  N   UNL     1       3.193   6.540  18.727  0.00  0.00    +0.000 N 
ATOM      2  C   UNL     1       4.227   6.486  17.831  0.00  0.00    +0.000 C 
ATOM      3  O   UNL     1       4.637   7.361  17.082  0.00  0.00    +0.000 OA
ATOM      4  C   UNL     1       4.847   5.142  17.948  0.00  0.00    +0.000 C 
ATOM      5  C   UNL     1       4.140   4.455  18.851  0.00  0.00    +0.000 C 
ATOM      6  C   UNL     1       3.108   5.354  19.406  0.00  0.00    +0.000 C 
ATOM      7  O   UNL     1       2.324   5.016  20.284  0.00  0.00    +0.000 OA
ENDROOT
BRANCH   1  11
ATOM      8  C   UNL     1       0.575   9.913  19.321  0.00  0.00    +0.000 A 
ATOM      9  C   UNL     1       0.986   9.087  20.376  0.00  0.00    +0.000 A 
ATOM     10  C   UNL     1       1.821   7.972  20.184  0.00  0.00    +0.000 A 
ATOM     11  C   UNL     1       2.322   7.653  18.921  0.00  0.00    +0.000 A 
ATOM     12  C   UNL     1       1.947   8.485  17.863  0.00  0.00    +0.000 A 
ATOM     13  C   UNL     1       1.087   9.579  18.061  0.00  0.00    +0.000 A 
BRANCH   8  15
ATOM     14  C   UNL     1       0.012  11.984  20.555  0.00  0.00    +0.000 C 
ATOM     15  N   UNL     1      -0.268  11.002  19.513  0.00  0.00    +0.000 N 
ATOM     16  C   UNL     1      -1.608  11.000  18.934  0.00  0.00    +0.000 C 
ENDBRANCH   8  15
ENDBRANCH   1  11
BRANCH   4  17
ATOM     17  S   UNL     1       6.146   4.549  16.999  0.00  0.00    +0.000 S 
BRANCH  17  18
ATOM     18  C   UNL     1       7.631   4.617  18.060  0.00  0.00    +0.000 C 
BRANCH  18  19
ATOM     19  C   UNL     1       7.509   5.826  18.993  0.00  0.00    +0.000 C 
BRANCH  19  20
ATOM     20  O   UNL     1       7.868   5.484  20.330  0.00  0.00    +0.000 OA
ATOM     21  H   UNL     1       8.307   6.272  20.705  0.00  0.00    +0.000 HD
ENDBRANCH  19  20
ENDBRANCH  18  19
ENDBRANCH  17  18
ENDBRANCH   4  17
BRANCH   5  22
ATOM     22  S   UNL     1       4.350   2.837  19.398  0.00  0.00    +0.000 S 
BRANCH  22  23
ATOM     23  C   UNL     1       3.222   1.910  18.292  0.00  0.00    +0.000 C 
BRANCH  23  24
ATOM     24  C   UNL     1       1.787   1.931  18.824  0.00  0.00    +0.000 C 
BRANCH  24  25
ATOM     25  O   UNL     1       1.008   2.951  18.207  0.00  0.00    +0.000 OA
ATOM     26  H   UNL     1       0.154   2.977  18.678  0.00  0.00    +0.000 HD
ENDBRANCH  24  25
ENDBRANCH  23  24
ENDBRANCH  22  23
ENDBRANCH   5  22
TORSDOF 10
ENDMDL
MODEL 4
REMARK VINA RESULT:      -6.5      1.434      1.905
REMARK  Name = 
REMARK  12 active torsions:
REMARK  status: ('A' for Active; 'I' for Inactive)
REMARK    1  A    between atoms: C_1  and  N_2
REMARK    2  A    between atoms: N_2  and  C_3
REMARK    3  A    between atoms: N_2  and  C_4
REMARK    4  A    between atoms: C_7  and  N_8
REMARK    5  A    between atoms: C_11  and  S_12
REMARK    6  A    between atoms: S_12  and  C_13
REMARK    7  A    between atoms: C_13  and  C_14
REMARK    8  A    between atoms: C_14  and  O_15
REMARK    9  A    between atoms: C_16  and  S_17
REMARK   10  A    between atoms: S_17  and  C_18
REMARK   11  A    between atoms: C_18  and  C_19
REMARK   12  A    between atoms: C_19  and  O_20
REMARK                            x       y       z     vdW  Elec       q    Type
REMARK                         _______ _______ _______ _____ _____    ______ ____
ROOT
ATOM      1  N   UNL     1       3.013   6.503  18.874  0.00  0.00    +0.000 N 
ATOM      2  C   UNL     1       2.858   5.313  19.533  0.00  0.00    +0.000 C 
ATOM      3  O   UNL     1       1.978   4.979  20.314  0.00  0.00    +0.000 OA
ATOM      4  C   UNL     1       3.954   4.415  19.091  0.00  0.00    +0.000 C 
ATOM      5  C   UNL     1       4.724   5.111  18.249  0.00  0.00    +0.000 C 
ATOM      6  C   UNL     1       4.104   6.437  18.050  0.00  0.00    +0.000 C 
ATOM      7  O   UNL     1       4.564   7.288  17.300  0.00  0.00    +0.000 OA
ENDROOT
BRANCH   1  11
ATOM      8  C   UNL     1       0.507   9.979  19.347  0.00  0.00    +0.000 A 
ATOM      9  C   UNL     1       0.934   9.208  20.437  0.00  0.00    +0.000 A 
ATOM     10  C   UNL     1       1.732   8.060  20.285  0.00  0.00    +0.000 A 
ATOM     11  C   UNL     1       2.178   7.650  19.028  0.00  0.00    +0.000 A 
ATOM     12  C   UNL     1       1.788   8.427  17.934  0.00  0.00    +0.000 A 
ATOM     13  C   UNL     1       0.964   9.555  18.093  0.00  0.00    +0.000 A 
BRANCH   8  15
ATOM     14  C   UNL     1      -0.531  11.675  20.821  0.00  0.00    +0.000 C 
ATOM     15  N   UNL     1      -0.300  11.101  19.500  0.00  0.00    +0.000 N 
ATOM     16  C   UNL     1      -1.198  11.508  18.424  0.00  0.00    +0.000 C 
ENDBRANCH   8  15
ENDBRANCH   1  11
BRANCH   4  17
ATOM     17  S   UNL     1       4.243   2.825  19.667  0.00  0.00    +0.000 S 
BRANCH  17  18
ATOM     18  C   UNL     1       3.666   1.691  18.357  0.00  0.00    +0.000 C 
BRANCH  18  19
ATOM     19  C   UNL     1       2.355   2.238  17.782  0.00  0.00    +0.000 C 
BRANCH  19  20
ATOM     20  O   UNL     1       1.245   1.892  18.609  0.00  0.00    +0.000 OA
ATOM     21  H   UNL     1       0.462   2.311  18.203  0.00  0.00    +0.000 HD
ENDBRANCH  19  20
ENDBRANCH  18  19
ENDBRANCH  17  18
ENDBRANCH   4  17
BRANCH   5  22
ATOM     22  S   UNL     1       6.157   4.625  17.428  0.00  0.00    +0.000 S 
BRANCH  22  23
ATOM     23  C   UNL     1       7.467   5.273  18.532  0.00  0.00    +0.000 C 
BRANCH  23  24
ATOM     24  C   UNL     1       7.800   6.729  18.199  0.00  0.00    +0.000 C 
BRANCH  24  25
ATOM     25  O   UNL     1       7.434   7.065  16.864  0.00  0.00    +0.000 OA
ATOM     26  H   UNL     1       7.286   8.029  16.846  0.00  0.00    +0.000 HD
ENDBRANCH  24  25
ENDBRANCH  23  24
ENDBRANCH  22  23
ENDBRANCH   5  22
TORSDOF 10
ENDMDL
MODEL 5
REMARK VINA RESULT:      -6.5      1.669      3.921
REMARK  Name = 
REMARK  12 active torsions:
REMARK  status: ('A' for Active; 'I' for Inactive)
REMARK    1  A    between atoms: C_1  and  N_2
REMARK    2  A    between atoms: N_2  and  C_3
REMARK    3  A    between atoms: N_2  and  C_4
REMARK    4  A    between atoms: C_7  and  N_8
REMARK    5  A    between atoms: C_11  and  S_12
REMARK    6  A    between atoms: S_12  and  C_13
REMARK    7  A    between atoms: C_13  and  C_14
REMARK    8  A    between atoms: C_14  and  O_15
REMARK    9  A    between atoms: C_16  and  S_17
REMARK   10  A    between atoms: S_17  and  C_18
REMARK   11  A    between atoms: C_18  and  C_19
REMARK   12  A    between atoms: C_19  and  O_20
REMARK                            x       y       z     vdW  Elec       q    Type
REMARK                         _______ _______ _______ _____ _____    ______ ____
ROOT
ATOM      1  N   UNL     1       3.245   6.381  18.890  0.00  0.00    +0.000 N 
ATOM      2  C   UNL     1       4.353   6.295  18.091  0.00  0.00    +0.000 C 
ATOM      3  O   UNL     1       4.844   7.151  17.368  0.00  0.00    +0.000 OA
ATOM      4  C   UNL     1       4.936   4.944  18.284  0.00  0.00    +0.000 C 
ATOM      5  C   UNL     1       4.139   4.283  19.129  0.00  0.00    +0.000 C 
ATOM      6  C   UNL     1       3.077   5.209  19.576  0.00  0.00    +0.000 C 
ATOM      7  O   UNL     1       2.213   4.899  20.385  0.00  0.00    +0.000 OA
ENDROOT
BRANCH   1  11
ATOM      8  C   UNL     1       0.645   9.807  19.193  0.00  0.00    +0.000 A 
ATOM      9  C   UNL     1       1.017   9.046  20.310  0.00  0.00    +0.000 A 
ATOM     10  C   UNL     1       1.845   7.915  20.213  0.00  0.00    +0.000 A 
ATOM     11  C   UNL     1       2.379   7.512  18.987  0.00  0.00    +0.000 A 
ATOM     12  C   UNL     1       2.044   8.279  17.869  0.00  0.00    +0.000 A 
ATOM     13  C   UNL     1       1.189   9.390  17.972  0.00  0.00    +0.000 A 
BRANCH   8  15
ATOM     14  C   UNL     1      -0.242  11.701  20.518  0.00  0.00    +0.000 C 
ATOM     15  N   UNL     1      -0.193  10.913  19.291  0.00  0.00    +0.000 N 
ATOM     16  C   UNL     1      -1.275  11.098  18.330  0.00  0.00    +0.000 C 
ENDBRANCH   8  15
ENDBRANCH   1  11
BRANCH   4  17
ATOM     17  S   UNL     1       6.304   4.314  17.464  0.00  0.00    +0.000 S 
BRANCH  17  18
ATOM     18  C   UNL     1       5.762   3.956  15.758  0.00  0.00    +0.000 C 
BRANCH  18  19
ATOM     19  C   UNL     1       6.694   4.690  14.786  0.00  0.00    +0.000 C 
BRANCH  19  20
ATOM     20  O   UNL     1       7.487   5.660  15.467  0.00  0.00    +0.000 OA
ATOM     21  H   UNL     1       8.410   5.500  15.190  0.00  0.00    +0.000 HD
ENDBRANCH  19  20
ENDBRANCH  18  19
ENDBRANCH  17  18
ENDBRANCH   4  17
BRANCH   5  22
ATOM     22  S   UNL     1       4.271   2.672  19.718  0.00  0.00    +0.000 S 
BRANCH  22  23
ATOM     23  C   UNL     1       3.622   1.697  18.310  0.00  0.00    +0.000 C 
BRANCH  23  24
ATOM     24  C   UNL     1       2.296   2.271  17.804  0.00  0.00    +0.000 C 
BRANCH  24  25
ATOM     25  O   UNL     1       1.190   1.807  18.573  0.00  0.00    +0.000 OA
ATOM     26  H   UNL     1       0.509   1.515  17.939  0.00  0.00    +0.000 HD
ENDBRANCH  24  25
ENDBRANCH  23  24
ENDBRANCH  22  23
ENDBRANCH   5  22
TORSDOF 10
ENDMDL
MODEL 6
REMARK VINA RESULT:      -6.4      1.196      1.661
REMARK  Name = 
REMARK  12 active torsions:
REMARK  status: ('A' for Active; 'I' for Inactive)
REMARK    1  A    between atoms: C_1  and  N_2
REMARK    2  A    between atoms: N_2  and  C_3
REMARK    3  A    between atoms: N_2  and  C_4
REMARK    4  A    between atoms: C_7  and  N_8
REMARK    5  A    between atoms: C_11  and  S_12
REMARK    6  A    between atoms: S_12  and  C_13
REMARK    7  A    between atoms: C_13  and  C_14
REMARK    8  A    between atoms: C_14  and  O_15
REMARK    9  A    between atoms: C_16  and  S_17
REMARK   10  A    between atoms: S_17  and  C_18
REMARK   11  A    between atoms: C_18  and  C_19
REMARK   12  A    between atoms: C_19  and  O_20
REMARK                            x       y       z     vdW  Elec       q    Type
REMARK                         _______ _______ _______ _____ _____    ______ ____
ROOT
ATOM      1  N   UNL     1       2.932   6.311  18.117  0.00  0.00    +0.000 N 
ATOM      2  C   UNL     1       2.428   5.041  18.203  0.00  0.00    +0.000 C 
ATOM      3  O   UNL     1       1.334   4.678  18.611  0.00  0.00    +0.000 OA
ATOM      4  C   UNL     1       3.449   4.119  17.644  0.00  0.00    +0.000 C 
ATOM      5  C   UNL     1       4.510   4.858  17.306  0.00  0.00    +0.000 C 
ATOM      6  C   UNL     1       4.176   6.277  17.547  0.00  0.00    +0.000 C 
ATOM      7  O   UNL     1       4.943   7.199  17.298  0.00  0.00    +0.000 OA
ENDROOT
BRANCH   1  11
ATOM      8  C   UNL     1       0.963   9.897  19.478  0.00  0.00    +0.000 A 
ATOM      9  C   UNL     1       1.343   8.870  20.354  0.00  0.00    +0.000 A 
ATOM     10  C   UNL     1       1.964   7.689  19.912  0.00  0.00    +0.000 A 
ATOM     11  C   UNL     1       2.275   7.495  18.564  0.00  0.00    +0.000 A 
ATOM     12  C   UNL     1       1.931   8.523  17.683  0.00  0.00    +0.000 A 
ATOM     13  C   UNL     1       1.281   9.687  18.130  0.00  0.00    +0.000 A 
BRANCH   8  15
ATOM     14  C   UNL     1       1.010  11.978  20.817  0.00  0.00    +0.000 C 
ATOM     15  N   UNL     1       0.329  11.054  19.917  0.00  0.00    +0.000 N 
ATOM     16  C   UNL     1      -1.118  11.191  19.781  0.00  0.00    +0.000 C 
ENDBRANCH   8  15
ENDBRANCH   1  11
BRANCH   4  17
ATOM     17  S   UNL     1       3.328   2.410  17.575  0.00  0.00    +0.000 S 
BRANCH  17  18
ATOM     18  C   UNL     1       2.879   1.858  19.257  0.00  0.00    +0.000 C 
BRANCH  18  19
ATOM     19  C   UNL     1       3.915   2.408  20.243  0.00  0.00    +0.000 C 
BRANCH  19  20
ATOM     20  O   UNL     1       5.237   2.018  19.873  0.00  0.00    +0.000 OA
ATOM     21  H   UNL     1       5.516   2.634  19.170  0.00  0.00    +0.000 HD
ENDBRANCH  19  20
ENDBRANCH  18  19
ENDBRANCH  17  18
ENDBRANCH   4  17
BRANCH   5  22
ATOM     22  S   UNL     1       6.014   4.362  16.633  0.00  0.00    +0.000 S 
BRANCH  22  23
ATOM     23  C   UNL     1       5.640   4.338  14.840  0.00  0.00    +0.000 C 
BRANCH  23  24
ATOM     24  C   UNL     1       6.898   4.606  14.010  0.00  0.00    +0.000 C 
BRANCH  24  25
ATOM     25  O   UNL     1       7.768   5.535  14.650  0.00  0.00    +0.000 OA
ATOM     26  H   UNL     1       8.224   5.049  15.361  0.00  0.00    +0.000 HD
ENDBRANCH  24  25
ENDBRANCH  23  24
ENDBRANCH  22  23
ENDBRANCH   5  22
TORSDOF 10
ENDMDL
MODEL 7
REMARK VINA RESULT:      -6.4      1.423      3.772
REMARK  Name = 
REMARK  12 active torsions:
REMARK  status: ('A' for Active; 'I' for Inactive)
REMARK    1  A    between atoms: C_1  and  N_2
REMARK    2  A    between atoms: N_2  and  C_3
REMARK    3  A    between atoms: N_2  and  C_4
REMARK    4  A    between atoms: C_7  and  N_8
REMARK    5  A    between atoms: C_11  and  S_12
REMARK    6  A    between atoms: S_12  and  C_13
REMARK    7  A    between atoms: C_13  and  C_14
REMARK    8  A    between atoms: C_14  and  O_15
REMARK    9  A    between atoms: C_16  and  S_17
REMARK   10  A    between atoms: S_17  and  C_18
REMARK   11  A    between atoms: C_18  and  C_19
REMARK   12  A    between atoms: C_19  and  O_20
REMARK                            x       y       z     vdW  Elec       q    Type
REMARK                         _______ _______ _______ _____ _____    ______ ____
ROOT
ATOM      1  N   UNL     1       3.099   6.537  18.793  0.00  0.00    +0.000 N 
ATOM      2  C   UNL     1       4.035   6.412  17.803  0.00  0.00    +0.000 C 
ATOM      3  O   UNL     1       4.372   7.232  16.960  0.00  0.00    +0.000 OA
ATOM      4  C   UNL     1       4.656   5.071  17.944  0.00  0.00    +0.000 C 
ATOM      5  C   UNL     1       4.041   4.452  18.956  0.00  0.00    +0.000 C 
ATOM      6  C   UNL     1       3.076   5.399  19.554  0.00  0.00    +0.000 C 
ATOM      7  O   UNL     1       2.384   5.128  20.526  0.00  0.00    +0.000 OA
ENDROOT
BRANCH   1  11
ATOM      8  C   UNL     1       0.542   9.952  19.410  0.00  0.00    +0.000 A 
ATOM      9  C   UNL     1       1.003   9.580  18.140  0.00  0.00    +0.000 A 
ATOM     10  C   UNL     1       1.855   8.481  17.937  0.00  0.00    +0.000 A 
ATOM     11  C   UNL     1       2.258   7.670  19.000  0.00  0.00    +0.000 A 
ATOM     12  C   UNL     1       1.781   8.010  20.269  0.00  0.00    +0.000 A 
ATOM     13  C   UNL     1       0.954   9.129  20.466  0.00  0.00    +0.000 A 
BRANCH   8  15
ATOM     14  C   UNL     1      -0.797  11.367  20.938  0.00  0.00    +0.000 C 
ATOM     15  N   UNL     1      -0.284  11.053  19.609  0.00  0.00    +0.000 N 
ATOM     16  C   UNL     1      -0.930  11.698  18.470  0.00  0.00    +0.000 C 
ENDBRANCH   8  15
ENDBRANCH   1  11
BRANCH   4  17
ATOM     17  S   UNL     1       5.849   4.403  16.909  0.00  0.00    +0.000 S 
BRANCH  17  18
ATOM     18  C   UNL     1       7.459   4.708  17.714  0.00  0.00    +0.000 C 
BRANCH  18  19
ATOM     19  C   UNL     1       7.569   6.204  18.032  0.00  0.00    +0.000 C 
BRANCH  19  20
ATOM     20  O   UNL     1       7.443   6.993  16.850  0.00  0.00    +0.000 OA
ATOM     21  H   UNL     1       8.148   7.666  16.895  0.00  0.00    +0.000 HD
ENDBRANCH  19  20
ENDBRANCH  18  19
ENDBRANCH  17  18
ENDBRANCH   4  17
BRANCH   5  22
ATOM     22  S   UNL     1       4.297   2.871  19.584  0.00  0.00    +0.000 S 
BRANCH  22  23
ATOM     23  C   UNL     1       3.171   1.863  18.550  0.00  0.00    +0.000 C 
BRANCH  23  24
ATOM     24  C   UNL     1       1.719   2.004  19.013  0.00  0.00    +0.000 C 
BRANCH  24  25
ATOM     25  O   UNL     1       0.963   2.839  18.142  0.00  0.00    +0.000 OA
ATOM     26  H   UNL     1       0.244   3.225  18.675  0.00  0.00    +0.000 HD
ENDBRANCH  24  25
ENDBRANCH  23  24
ENDBRANCH  22  23
ENDBRANCH   5  22
TORSDOF 10
ENDMDL
MODEL 8
REMARK VINA RESULT:      -6.4      1.160      3.625
REMARK  Name = 
REMARK  12 active torsions:
REMARK  status: ('A' for Active; 'I' for Inactive)
REMARK    1  A    between atoms: C_1  and  N_2
REMARK    2  A    between atoms: N_2  and  C_3
REMARK    3  A    between atoms: N_2  and  C_4
REMARK    4  A    between atoms: C_7  and  N_8
REMARK    5  A    between atoms: C_11  and  S_12
REMARK    6  A    between atoms: S_12  and  C_13
REMARK    7  A    between atoms: C_13  and  C_14
REMARK    8  A    between atoms: C_14  and  O_15
REMARK    9  A    between atoms: C_16  and  S_17
REMARK   10  A    between atoms: S_17  and  C_18
REMARK   11  A    between atoms: C_18  and  C_19
REMARK   12  A    between atoms: C_19  and  O_20
REMARK                            x       y       z     vdW  Elec       q    Type
REMARK                         _______ _______ _______ _____ _____    ______ ____
ROOT
ATOM      1  N   UNL     1       2.931   6.291  18.207  0.00  0.00    +0.000 N 
ATOM      2  C   UNL     1       4.178   6.220  17.647  0.00  0.00    +0.000 C 
ATOM      3  O   UNL     1       4.976   7.123  17.438  0.00  0.00    +0.000 OA
ATOM      4  C   UNL     1       4.457   4.790  17.363  0.00  0.00    +0.000 C 
ATOM      5  C   UNL     1       3.369   4.095  17.710  0.00  0.00    +0.000 C 
ATOM      6  C   UNL     1       2.398   5.034  18.310  0.00  0.00    +0.000 C 
ATOM      7  O   UNL     1       1.314   4.684  18.757  0.00  0.00    +0.000 OA
ENDROOT
BRANCH   1  11
ATOM      8  C   UNL     1       0.919   9.906  19.419  0.00  0.00    +0.000 A 
ATOM      9  C   UNL     1       1.246   9.641  18.082  0.00  0.00    +0.000 A 
ATOM     10  C   UNL     1       1.923   8.475  17.685  0.00  0.00    +0.000 A 
ATOM     11  C   UNL     1       2.271   7.489  18.611  0.00  0.00    +0.000 A 
ATOM     12  C   UNL     1       1.924   7.724  19.944  0.00  0.00    +0.000 A 
ATOM     13  C   UNL     1       1.275   8.908  20.335  0.00  0.00    +0.000 A 
BRANCH   8  15
ATOM     14  C   UNL     1       0.789  11.879  20.909  0.00  0.00    +0.000 C 
ATOM     15  N   UNL     1       0.269  11.072  19.810  0.00  0.00    +0.000 N 
ATOM     16  C   UNL     1      -1.103  11.322  19.383  0.00  0.00    +0.000 C 
ENDBRANCH   8  15
ENDBRANCH   1  11
BRANCH   4  17
ATOM     17  S   UNL     1       5.866   4.173  16.605  0.00  0.00    +0.000 S 
BRANCH  17  18
ATOM     18  C   UNL     1       5.588   4.315  14.806  0.00  0.00    +0.000 C 
BRANCH  18  19
ATOM     19  C   UNL     1       6.898   4.752  14.143  0.00  0.00    +0.000 C 
BRANCH  19  20
ATOM     20  O   UNL     1       7.653   5.603  15.004  0.00  0.00    +0.000 OA
ATOM     21  H   UNL     1       7.296   6.503  14.880  0.00  0.00    +0.000 HD
ENDBRANCH  19  20
ENDBRANCH  18  19
ENDBRANCH  17  18
ENDBRANCH   4  17
BRANCH   5  22
ATOM     22  S   UNL     1       3.073   2.404  17.596  0.00  0.00    +0.000 S 
BRANCH  22  23
ATOM     23  C   UNL     1       2.754   1.954  19.342  0.00  0.00    +0.000 C 
BRANCH  23  24
ATOM     24  C   UNL     1       3.887   2.433  20.252  0.00  0.00    +0.000 C 
BRANCH  24  25
ATOM     25  O   UNL     1       5.153   1.937  19.828  0.00  0.00    +0.000 OA
ATOM     26  H   UNL     1       5.758   2.701  19.794  0.00  0.00    +0.000 HD
ENDBRANCH  24  25
ENDBRANCH  23  24
ENDBRANCH  22  23
ENDBRANCH   5  22
TORSDOF 10
ENDMDL
MODEL 9
REMARK VINA RESULT:      -6.4      1.197      1.306
REMARK  Name = 
REMARK  12 active torsions:
REMARK  status: ('A' for Active; 'I' for Inactive)
REMARK    1  A    between atoms: C_1  and  N_2
REMARK    2  A    between atoms: N_2  and  C_3
REMARK    3  A    between atoms: N_2  and  C_4
REMARK    4  A    between atoms: C_7  and  N_8
REMARK    5  A    between atoms: C_11  and  S_12
REMARK    6  A    between atoms: S_12  and  C_13
REMARK    7  A    between atoms: C_13  and  C_14
REMARK    8  A    between atoms: C_14  and  O_15
REMARK    9  A    between atoms: C_16  and  S_17
REMARK   10  A    between atoms: S_17  and  C_18
REMARK   11  A    between atoms: C_18  and  C_19
REMARK   12  A    between atoms: C_19  and  O_20
REMARK                            x       y       z     vdW  Elec       q    Type
REMARK                         _______ _______ _______ _____ _____    ______ ____
ROOT
ATOM      1  N   UNL     1       3.138   6.341  18.152  0.00  0.00    +0.000 N 
ATOM      2  C   UNL     1       2.624   5.072  18.177  0.00  0.00    +0.000 C 
ATOM      3  O   UNL     1       1.496   4.709  18.480  0.00  0.00    +0.000 OA
ATOM      4  C   UNL     1       3.688   4.152  17.701  0.00  0.00    +0.000 C 
ATOM      5  C   UNL     1       4.778   4.890  17.469  0.00  0.00    +0.000 C 
ATOM      6  C   UNL     1       4.428   6.308  17.696  0.00  0.00    +0.000 C 
ATOM      7  O   UNL     1       5.217   7.229  17.529  0.00  0.00    +0.000 OA
ENDROOT
BRANCH   1  11
ATOM      8  C   UNL     1       1.033   9.906  19.353  0.00  0.00    +0.000 A 
ATOM      9  C   UNL     1       1.468   9.699  18.036  0.00  0.00    +0.000 A 
ATOM     10  C   UNL     1       2.175   8.549  17.645  0.00  0.00    +0.000 A 
ATOM     11  C   UNL     1       2.447   7.523  18.552  0.00  0.00    +0.000 A 
ATOM     12  C   UNL     1       1.992   7.700  19.861  0.00  0.00    +0.000 A 
ATOM     13  C   UNL     1       1.313   8.868  20.250  0.00  0.00    +0.000 A 
BRANCH   8  15
ATOM     14  C   UNL     1       1.021  12.083  20.530  0.00  0.00    +0.000 C 
ATOM     15  N   UNL     1       0.353  11.056  19.740  0.00  0.00    +0.000 N 
ATOM     16  C   UNL     1      -1.104  11.100  19.673  0.00  0.00    +0.000 C 
ENDBRANCH   8  15
ENDBRANCH   1  11
BRANCH   4  17
ATOM     17  S   UNL     1       3.567   2.445  17.601  0.00  0.00    +0.000 S 
BRANCH  17  18
ATOM     18  C   UNL     1       2.937   1.877  19.218  0.00  0.00    +0.000 C 
BRANCH  18  19
ATOM     19  C   UNL     1       3.936   2.292  20.303  0.00  0.00    +0.000 C 
BRANCH  19  20
ATOM     20  O   UNL     1       5.270   1.943  19.937  0.00  0.00    +0.000 OA
ATOM     21  H   UNL     1       5.459   2.422  19.108  0.00  0.00    +0.000 HD
ENDBRANCH  19  20
ENDBRANCH  18  19
ENDBRANCH  17  18
ENDBRANCH   4  17
BRANCH   5  22
ATOM     22  S   UNL     1       6.334   4.395  16.928  0.00  0.00    +0.000 S 
BRANCH  22  23
ATOM     23  C   UNL     1       5.996   3.891  15.200  0.00  0.00    +0.000 C 
BRANCH  23  24
ATOM     24  C   UNL     1       6.698   4.819  14.207  0.00  0.00    +0.000 C 
BRANCH  24  25
ATOM     25  O   UNL     1       7.840   5.446  14.783  0.00  0.00    +0.000 OA
ATOM     26  H   UNL     1       7.969   6.288  14.308  0.00  0.00    +0.000 HD
ENDBRANCH  24  25
ENDBRANCH  23  24
ENDBRANCH  22  23
ENDBRANCH   5  22
TORSDOF 10
ENDMDL
