MODEL 1
REMARK VINA RESULT:      -6.7      0.000      0.000
REMARK  Name = 
REMARK  4 active torsions:
REMARK  status: ('A' for Active; 'I' for Inactive)
REMARK    1  A    between atoms: S_2  and  O_4
REMARK    2  A    between atoms: S_2  and  C_5
REMARK    3  A    between atoms: C_5  and  C_6
REMARK    4  A    between atoms: C_9  and  C_10
REMARK                            x       y       z     vdW  Elec       q    Type
REMARK                         _______ _______ _______ _____ _____    ______ ____
ROOT
ATOM      1  C   UNL     1       4.962   5.426  16.194  0.00  0.00    +0.000 A 
ATOM      2  C   UNL     1       4.762   6.214  17.322  0.00  0.00    +0.000 A 
ATOM      3  C   UNL     1       4.082   5.676  18.418  0.00  0.00    +0.000 A 
ATOM      4  C   UNL     1       3.585   4.367  18.386  0.00  0.00    +0.000 A 
ATOM      5  C   UNL     1       3.832   3.670  17.203  0.00  0.00    +0.000 A 
ATOM      6  N   UNL     1       4.512   4.153  16.130  0.00  0.00    +0.000 NA
ENDROOT
BRANCH   4   7
ATOM      7  C   UNL     1       2.867   3.768  19.533  0.00  0.00    +0.000 A 
ATOM      8  C   UNL     1       3.521   2.919  20.446  0.00  0.00    +0.000 A 
ATOM      9  C   UNL     1       2.835   2.318  21.507  0.00  0.00    +0.000 A 
ATOM     10  C   UNL     1       1.479   2.564  21.689  0.00  0.00    +0.000 A 
ATOM     11  C   UNL     1       0.810   3.415  20.816  0.00  0.00    +0.000 A 
ATOM     12  C   UNL     1       1.497   4.006  19.749  0.00  0.00    +0.000 A 
ENDBRANCH   4   7
BRANCH   1  13
ATOM     13  C   UNL     1       5.760   5.933  15.031  0.00  0.00    +0.000 C 
BRANCH  13  15
ATOM     14  O   UNL     1       7.717   4.518  16.163  0.00  0.00    +0.000 OA
ATOM     15  S   UNL     1       7.220   4.919  14.864  0.00  0.00    +0.000 S 
ATOM     16  O   UNL     1       8.094   5.396  13.817  0.00  0.00    +0.000 OA
BRANCH  15  17
ATOM     17  O   UNL     1       6.502   3.611  14.236  0.00  0.00    +0.000 OA
ATOM     18  H   UNL     1       5.585   3.578  14.584  0.00  0.00    +0.000 HD
ENDBRANCH  15  17
ENDBRANCH  13  15
ENDBRANCH   1  13
TORSDOF 4
ENDMDL
MODEL 2
REMARK VINA RESULT:      -6.5      3.530      4.540
REMARK  Name = 
REMARK  4 active torsions:
REMARK  status: ('A' for Active; 'I' for Inactive)
REMARK    1  A    between atoms: S_2  and  O_4
REMARK    2  A    between atoms: S_2  and  C_5
REMARK    3  A    between atoms: C_5  and  C_6
REMARK    4  A    between atoms: C_9  and  C_10
REMARK                            x       y       z     vdW  Elec       q    Type
REMARK                         _______ _______ _______ _____ _____    ______ ____
ROOT
ATOM      1  C   UNL     1       4.635   5.506  17.943  0.00  0.00    +0.000 A 
ATOM      2  C   UNL     1       4.416   6.614  17.131  0.00  0.00    +0.000 A 
ATOM      3  C   UNL     1       3.468   7.566  17.517  0.00  0.00    +0.000 A 
ATOM      4  C   UNL     1       2.728   7.408  18.695  0.00  0.00    +0.000 A 
ATOM      5  C   UNL     1       3.020   6.258  19.429  0.00  0.00    +0.000 A 
ATOM      6  N   UNL     1       3.952   5.326  19.096  0.00  0.00    +0.000 NA
ENDROOT
BRANCH   4   7
ATOM      7  C   UNL     1       1.722   8.402  19.134  0.00  0.00    +0.000 A 
ATOM      8  C   UNL     1       1.275   8.454  20.468  0.00  0.00    +0.000 A 
ATOM      9  C   UNL     1       0.294   9.365  20.876  0.00  0.00    +0.000 A 
ATOM     10  C   UNL     1      -0.252  10.257  19.961  0.00  0.00    +0.000 A 
ATOM     11  C   UNL     1       0.185  10.245  18.641  0.00  0.00    +0.000 A 
ATOM     12  C   UNL     1       1.158   9.325  18.233  0.00  0.00    +0.000 A 
ENDBRANCH   4   7
BRANCH   1  13
ATOM     13  C   UNL     1       5.702   4.507  17.612  0.00  0.00    +0.000 C 
BRANCH  13  15
ATOM     14  O   UNL     1       7.491   6.135  18.734  0.00  0.00    +0.000 OA
ATOM     15  S   UNL     1       7.269   5.359  17.533  0.00  0.00    +0.000 S 
ATOM     16  O   UNL     1       7.534   5.884  16.214  0.00  0.00    +0.000 OA
BRANCH  15  17
ATOM     17  O   UNL     1       8.226   4.059  17.658  0.00  0.00    +0.000 OA
ATOM     18  H   UNL     1       9.145   4.377  17.793  0.00  0.00    +0.000 HD
ENDBRANCH  15  17
ENDBRANCH  13  15
ENDBRANCH   1  13
TORSDOF 4
ENDMDL
MODEL 3
REMARK VINA RESULT:      -6.5      0.256      1.587
REMARK  Name = 
REMARK  4 active torsions:
REMARK  status: ('A' for Active; 'I' for Inactive)
REMARK    1  A    between atoms: S_2  and  O_4
REMARK    2  A    between atoms: S_2  and  C_5
REMARK    3  A    between atoms: C_5  and  C_6
REMARK    4  A    between atoms: C_9  and  C_10
REMARK                            x       y       z     vdW  Elec       q    Type
REMARK                         _______ _______ _______ _____ _____    ______ ____
ROOT
ATOM      1  C   UNL     1       4.932   5.402  16.149  0.00  0.00    +0.000 A 
ATOM      2  C   UNL     1       4.540   6.241  17.186  0.00  0.00    +0.000 A 
ATOM      3  C   UNL     1       3.824   5.708  18.261  0.00  0.00    +0.000 A 
ATOM      4  C   UNL     1       3.484   4.350  18.297  0.00  0.00    +0.000 A 
ATOM      5  C   UNL     1       3.918   3.601  17.202  0.00  0.00    +0.000 A 
ATOM      6  N   UNL     1       4.637   4.083  16.154  0.00  0.00    +0.000 NA
ENDROOT
BRANCH   4   7
ATOM      7  C   UNL     1       2.733   3.754  19.425  0.00  0.00    +0.000 A 
ATOM      8  C   UNL     1       1.330   3.844  19.502  0.00  0.00    +0.000 A 
ATOM      9  C   UNL     1       0.621   3.318  20.588  0.00  0.00    +0.000 A 
ATOM     10  C   UNL     1       1.299   2.674  21.616  0.00  0.00    +0.000 A 
ATOM     11  C   UNL     1       2.682   2.550  21.558  0.00  0.00    +0.000 A 
ATOM     12  C   UNL     1       3.390   3.087  20.476  0.00  0.00    +0.000 A 
ENDBRANCH   4   7
BRANCH   1  13
ATOM     13  C   UNL     1       5.774   5.914  15.020  0.00  0.00    +0.000 C 
BRANCH  13  15
ATOM     14  O   UNL     1       6.582   3.677  13.815  0.00  0.00    +0.000 OA
ATOM     15  S   UNL     1       7.063   4.724  14.692  0.00  0.00    +0.000 S 
ATOM     16  O   UNL     1       7.854   4.443  15.867  0.00  0.00    +0.000 OA
BRANCH  15  17
ATOM     17  O   UNL     1       8.005   5.673  13.780  0.00  0.00    +0.000 OA
ATOM     18  H   UNL     1       7.507   5.889  12.961  0.00  0.00    +0.000 HD
ENDBRANCH  15  17
ENDBRANCH  13  15
ENDBRANCH   1  13
TORSDOF 4
ENDMDL
MODEL 4
REMARK VINA RESULT:      -6.5      3.743      6.795
REMARK  Name = 
REMARK  4 active torsions:
REMARK  status: ('A' for Active; 'I' for Inactive)
REMARK    1  A    between atoms: S_2  and  O_4
REMARK    2  A    between atoms: S_2  and  C_5
REMARK    3  A    between atoms: C_5  and  C_6
REMARK    4  A    between atoms: C_9  and  C_10
REMARK                            x       y       z     vdW  Elec       q    Type
REMARK                         _______ _______ _______ _____ _____    ______ ____
ROOT
ATOM      1  C   UNL     1       4.524   4.345  18.462  0.00  0.00    +0.000 A 
ATOM      2  C   UNL     1       3.678   4.386  17.359  0.00  0.00    +0.000 A 
ATOM      3  C   UNL     1       4.231   4.385  16.076  0.00  0.00    +0.000 A 
ATOM      4  C   UNL     1       5.618   4.364  15.889  0.00  0.00    +0.000 A 
ATOM      5  C   UNL     1       6.374   4.334  17.062  0.00  0.00    +0.000 A 
ATOM      6  N   UNL     1       5.868   4.308  18.324  0.00  0.00    +0.000 NA
ENDROOT
BRANCH   4   7
ATOM      7  C   UNL     1       6.233   4.356  14.542  0.00  0.00    +0.000 A 
ATOM      8  C   UNL     1       7.322   5.191  14.228  0.00  0.00    +0.000 A 
ATOM      9  C   UNL     1       7.879   5.216  12.944  0.00  0.00    +0.000 A 
ATOM     10  C   UNL     1       7.368   4.392  11.947  0.00  0.00    +0.000 A 
ATOM     11  C   UNL     1       6.307   3.541  12.233  0.00  0.00    +0.000 A 
ATOM     12  C   UNL     1       5.745   3.526  13.515  0.00  0.00    +0.000 A 
ENDBRANCH   4   7
BRANCH   1  13
ATOM     13  C   UNL     1       3.974   4.257  19.853  0.00  0.00    +0.000 C 
BRANCH  13  15
ATOM     14  O   UNL     1       2.758   1.986  19.165  0.00  0.00    +0.000 OA
ATOM     15  S   UNL     1       3.595   2.548  20.204  0.00  0.00    +0.000 S 
ATOM     16  O   UNL     1       3.335   2.328  21.607  0.00  0.00    +0.000 OA
BRANCH  15  17
ATOM     17  O   UNL     1       5.077   1.945  19.960  0.00  0.00    +0.000 OA
ATOM     18  H   UNL     1       5.648   2.678  19.642  0.00  0.00    +0.000 HD
ENDBRANCH  15  17
ENDBRANCH  13  15
ENDBRANCH   1  13
TORSDOF 4
ENDMDL
MODEL 5
REMARK VINA RESULT:      -6.5      3.729      6.835
REMARK  Name = 
REMARK  4 active torsions:
REMARK  status: ('A' for Active; 'I' for Inactive)
REMARK    1  A    between atoms: S_2  and  O_4
REMARK    2  A    between atoms: S_2  and  C_5
REMARK    3  A    between atoms: C_5  and  C_6
REMARK    4  A    between atoms: C_9  and  C_10
REMARK                            x       y       z     vdW  Elec       q    Type
REMARK                         _______ _______ _______ _____ _____    ______ ____
ROOT
ATOM      1  C   UNL     1       4.566   4.362  18.421  0.00  0.00    +0.000 A 
ATOM      2  C   UNL     1       3.699   4.334  17.334  0.00  0.00    +0.000 A 
ATOM      3  C   UNL     1       4.228   4.336  16.040  0.00  0.00    +0.000 A 
ATOM      4  C   UNL     1       5.611   4.384  15.827  0.00  0.00    +0.000 A 
ATOM      5  C   UNL     1       6.388   4.420  16.986  0.00  0.00    +0.000 A 
ATOM      6  N   UNL     1       5.907   4.394  18.258  0.00  0.00    +0.000 NA
ENDROOT
BRANCH   4   7
ATOM      7  C   UNL     1       6.201   4.380  14.470  0.00  0.00    +0.000 A 
ATOM      8  C   UNL     1       5.691   3.554  13.450  0.00  0.00    +0.000 A 
ATOM      9  C   UNL     1       6.273   3.518  12.178  0.00  0.00    +0.000 A 
ATOM     10  C   UNL     1       7.371   4.321  11.891  0.00  0.00    +0.000 A 
ATOM     11  C   UNL     1       7.884   5.163  12.871  0.00  0.00    +0.000 A 
ATOM     12  C   UNL     1       7.307   5.189  14.146  0.00  0.00    +0.000 A 
ENDBRANCH   4   7
BRANCH   1  13
ATOM     13  C   UNL     1       4.046   4.274  19.824  0.00  0.00    +0.000 C 
BRANCH  13  15
ATOM     14  O   UNL     1       2.893   1.979  19.107  0.00  0.00    +0.000 OA
ATOM     15  S   UNL     1       3.667   2.566  20.180  0.00  0.00    +0.000 S 
ATOM     16  O   UNL     1       3.335   2.364  21.571  0.00  0.00    +0.000 OA
BRANCH  15  17
ATOM     17  O   UNL     1       5.166   1.977  20.025  0.00  0.00    +0.000 OA
ATOM     18  H   UNL     1       5.781   2.740  19.957  0.00  0.00    +0.000 HD
ENDBRANCH  15  17
ENDBRANCH  13  15
ENDBRANCH   1  13
TORSDOF 4
ENDMDL
MODEL 6
REMARK VINA RESULT:      -6.5      3.505      4.636
REMARK  Name = 
REMARK  4 active torsions:
REMARK  status: ('A' for Active; 'I' for Inactive)
REMARK    1  A    between atoms: S_2  and  O_4
REMARK    2  A    between atoms: S_2  and  C_5
REMARK    3  A    between atoms: C_5  and  C_6
REMARK    4  A    between atoms: C_9  and  C_10
REMARK                            x       y       z     vdW  Elec       q    Type
REMARK                         _______ _______ _______ _____ _____    ______ ____
ROOT
ATOM      1  C   UNL     1       4.662   5.577  17.772  0.00  0.00    +0.000 A 
ATOM      2  C   UNL     1       3.887   5.309  18.896  0.00  0.00    +0.000 A 
ATOM      3  C   UNL     1       2.922   6.238  19.295  0.00  0.00    +0.000 A 
ATOM      4  C   UNL     1       2.740   7.435  18.592  0.00  0.00    +0.000 A 
ATOM      5  C   UNL     1       3.576   7.607  17.488  0.00  0.00    +0.000 A 
ATOM      6  N   UNL     1       4.506   6.713  17.058  0.00  0.00    +0.000 NA
ENDROOT
BRANCH   4   7
ATOM      7  C   UNL     1       1.722   8.435  18.986  0.00  0.00    +0.000 A 
ATOM      8  C   UNL     1       1.296   8.562  20.322  0.00  0.00    +0.000 A 
ATOM      9  C   UNL     1       0.304   9.477  20.691  0.00  0.00    +0.000 A 
ATOM     10  C   UNL     1      -0.276  10.300  19.732  0.00  0.00    +0.000 A 
ATOM     11  C   UNL     1       0.139  10.213  18.407  0.00  0.00    +0.000 A 
ATOM     12  C   UNL     1       1.124   9.289  18.040  0.00  0.00    +0.000 A 
ENDBRANCH   4   7
BRANCH   1  13
ATOM     13  C   UNL     1       5.647   4.571  17.259  0.00  0.00    +0.000 C 
BRANCH  13  15
ATOM     14  O   UNL     1       8.277   4.138  17.336  0.00  0.00    +0.000 OA
ATOM     15  S   UNL     1       7.294   5.165  17.608  0.00  0.00    +0.000 S 
ATOM     16  O   UNL     1       7.336   5.976  18.802  0.00  0.00    +0.000 OA
BRANCH  15  17
ATOM     17  O   UNL     1       7.403   6.224  16.388  0.00  0.00    +0.000 OA
ATOM     18  H   UNL     1       6.526   6.653  16.287  0.00  0.00    +0.000 HD
ENDBRANCH  15  17
ENDBRANCH  13  15
ENDBRANCH   1  13
TORSDOF 4
ENDMDL
MODEL 7
REMARK VINA RESULT:      -6.5      3.947      6.771
REMARK  Name = 
REMARK  4 active torsions:
REMARK  status: ('A' for Active; 'I' for Inactive)
REMARK    1  A    between atoms: S_2  and  O_4
REMARK    2  A    between atoms: S_2  and  C_5
REMARK    3  A    between atoms: C_5  and  C_6
REMARK    4  A    between atoms: C_9  and  C_10
REMARK                            x       y       z     vdW  Elec       q    Type
REMARK                         _______ _______ _______ _____ _____    ______ ____
ROOT
ATOM      1  C   UNL     1       4.416   5.311  18.246  0.00  0.00    +0.000 A 
ATOM      2  C   UNL     1       4.549   6.375  17.359  0.00  0.00    +0.000 A 
ATOM      3  C   UNL     1       5.109   6.147  16.100  0.00  0.00    +0.000 A 
ATOM      4  C   UNL     1       5.553   4.872  15.729  0.00  0.00    +0.000 A 
ATOM      5  C   UNL     1       5.383   3.881  16.696  0.00  0.00    +0.000 A 
ATOM      6  N   UNL     1       4.819   4.063  17.920  0.00  0.00    +0.000 NA
ENDROOT
BRANCH   4   7
ATOM      7  C   UNL     1       6.145   4.598  14.400  0.00  0.00    +0.000 A 
ATOM      8  C   UNL     1       7.293   5.279  13.953  0.00  0.00    +0.000 A 
ATOM      9  C   UNL     1       7.830   5.052  12.681  0.00  0.00    +0.000 A 
ATOM     10  C   UNL     1       7.239   4.125  11.830  0.00  0.00    +0.000 A 
ATOM     11  C   UNL     1       6.116   3.422  12.251  0.00  0.00    +0.000 A 
ATOM     12  C   UNL     1       5.575   3.659  13.520  0.00  0.00    +0.000 A 
ENDBRANCH   4   7
BRANCH   1  13
ATOM     13  C   UNL     1       3.743   5.493  19.572  0.00  0.00    +0.000 C 
BRANCH  13  15
ATOM     14  O   UNL     1       1.626   4.610  18.213  0.00  0.00    +0.000 OA
ATOM     15  S   UNL     1       2.193   4.608  19.545  0.00  0.00    +0.000 S 
ATOM     16  O   UNL     1       1.399   4.870  20.722  0.00  0.00    +0.000 OA
BRANCH  15  17
ATOM     17  O   UNL     1       2.790   3.121  19.775  0.00  0.00    +0.000 OA
ATOM     18  H   UNL     1       2.204   2.659  20.413  0.00  0.00    +0.000 HD
ENDBRANCH  15  17
ENDBRANCH  13  15
ENDBRANCH   1  13
TORSDOF 4
ENDMDL
MODEL 8
REMARK VINA RESULT:      -6.5      3.815      6.732
REMARK  Name = 
REMARK  4 active torsions:
REMARK  status: ('A' for Active; 'I' for Inactive)
REMARK    1  A    between atoms: S_2  and  O_4
REMARK    2  A    between atoms: S_2  and  C_5
REMARK    3  A    between atoms: C_5  and  C_6
REMARK    4  A    between atoms: C_9  and  C_10
REMARK                            x       y       z     vdW  Elec       q    Type
REMARK                         _______ _______ _______ _____ _____    ______ ____
ROOT
ATOM      1  C   UNL     1       4.416   4.246  18.541  0.00  0.00    +0.000 A 
ATOM      2  C   UNL     1       5.758   4.584  18.400  0.00  0.00    +0.000 A 
ATOM      3  C   UNL     1       6.323   4.614  17.123  0.00  0.00    +0.000 A 
ATOM      4  C   UNL     1       5.563   4.292  15.991  0.00  0.00    +0.000 A 
ATOM      5  C   UNL     1       4.232   3.958  16.247  0.00  0.00    +0.000 A 
ATOM      6  N   UNL     1       3.645   3.943  17.473  0.00  0.00    +0.000 NA
ENDROOT
BRANCH   4   7
ATOM      7  C   UNL     1       6.131   4.322  14.625  0.00  0.00    +0.000 A 
ATOM      8  C   UNL     1       5.596   3.531  13.590  0.00  0.00    +0.000 A 
ATOM      9  C   UNL     1       6.156   3.526  12.308  0.00  0.00    +0.000 A 
ATOM     10  C   UNL     1       7.258   4.325  12.026  0.00  0.00    +0.000 A 
ATOM     11  C   UNL     1       7.796   5.134  13.021  0.00  0.00    +0.000 A 
ATOM     12  C   UNL     1       7.239   5.128  14.306  0.00  0.00    +0.000 A 
ENDBRANCH   4   7
BRANCH   1  13
ATOM     13  C   UNL     1       3.748   4.284  19.882  0.00  0.00    +0.000 C 
BRANCH  13  15
ATOM     14  O   UNL     1       2.936   2.586  21.771  0.00  0.00    +0.000 OA
ATOM     15  S   UNL     1       3.658   2.618  20.517  0.00  0.00    +0.000 S 
ATOM     16  O   UNL     1       4.894   1.896  20.320  0.00  0.00    +0.000 OA
BRANCH  15  17
ATOM     17  O   UNL     1       2.649   2.018  19.404  0.00  0.00    +0.000 OA
ATOM     18  H   UNL     1       2.917   2.381  18.531  0.00  0.00    +0.000 HD
ENDBRANCH  15  17
ENDBRANCH  13  15
ENDBRANCH   1  13
TORSDOF 4
ENDMDL
MODEL 9
REMARK VINA RESULT:      -6.5      3.799      6.728
REMARK  Name = 
REMARK  4 active torsions:
REMARK  status: ('A' for Active; 'I' for Inactive)
REMARK    1  A    between atoms: S_2  and  O_4
REMARK    2  A    between atoms: S_2  and  C_5
REMARK    3  A    between atoms: C_5  and  C_6
REMARK    4  A    between atoms: C_9  and  C_10
REMARK                            x       y       z     vdW  Elec       q    Type
REMARK                         _______ _______ _______ _____ _____    ______ ____
ROOT
ATOM      1  C   UNL     1       4.569   4.238  18.488  0.00  0.00    +0.000 A 
ATOM      2  C   UNL     1       5.909   4.585  18.344  0.00  0.00    +0.000 A 
ATOM      3  C   UNL     1       6.472   4.614  17.065  0.00  0.00    +0.000 A 
ATOM      4  C   UNL     1       5.713   4.281  15.936  0.00  0.00    +0.000 A 
ATOM      5  C   UNL     1       4.385   3.939  16.195  0.00  0.00    +0.000 A 
ATOM      6  N   UNL     1       3.799   3.925  17.422  0.00  0.00    +0.000 NA
ENDROOT
BRANCH   4   7
ATOM      7  C   UNL     1       6.279   4.309  14.569  0.00  0.00    +0.000 A 
ATOM      8  C   UNL     1       7.359   5.149  14.238  0.00  0.00    +0.000 A 
ATOM      9  C   UNL     1       7.869   5.208  12.937  0.00  0.00    +0.000 A 
ATOM     10  C   UNL     1       7.319   4.414  11.936  0.00  0.00    +0.000 A 
ATOM     11  C   UNL     1       6.266   3.558  12.237  0.00  0.00    +0.000 A 
ATOM     12  C   UNL     1       5.751   3.509  13.537  0.00  0.00    +0.000 A 
ENDBRANCH   4   7
BRANCH   1  13
ATOM     13  C   UNL     1       3.903   4.278  19.830  0.00  0.00    +0.000 C 
BRANCH  13  15
ATOM     14  O   UNL     1       2.982   2.574  21.661  0.00  0.00    +0.000 OA
ATOM     15  S   UNL     1       3.747   2.605  20.433  0.00  0.00    +0.000 S 
ATOM     16  O   UNL     1       4.968   1.852  20.265  0.00  0.00    +0.000 OA
BRANCH  15  17
ATOM     17  O   UNL     1       2.759   2.051  19.277  0.00  0.00    +0.000 OA
ATOM     18  H   UNL     1       3.291   1.484  18.676  0.00  0.00    +0.000 HD
ENDBRANCH  15  17
ENDBRANCH  13  15
ENDBRANCH   1  13
TORSDOF 4
ENDMDL
