MODEL 1
REMARK VINA RESULT:      -7.8      0.000      0.000
REMARK  Name = 
REMARK  4 active torsions:
REMARK  status: ('A' for Active; 'I' for Inactive)
REMARK    1  A    between atoms: C_1  and  C_2
REMARK    2  A    between atoms: N_4  and  C_5
REMARK    3  A    between atoms: C_8  and  C_9
REMARK    4  A    between atoms: C_19  and  N_20
REMARK                            x       y       z     vdW  Elec       q    Type
REMARK                         _______ _______ _______ _____ _____    ______ ____
ROOT
ATOM      1  C   UNL     1       0.416   9.486  20.686  0.00  0.00    +0.000 A 
ATOM      2  C   UNL     1       0.784   8.244  21.224  0.00  0.00    +0.000 A 
ATOM      3  C   UNL     1       1.644   7.366  20.549  0.00  0.00    +0.000 A 
ATOM      4  C   UNL     1       2.159   7.691  19.295  0.00  0.00    +0.000 A 
ATOM      5  C   UNL     1       1.793   8.930  18.739  0.00  0.00    +0.000 A 
ATOM      6  C   UNL     1       0.931   9.816  19.416  0.00  0.00    +0.000 A 
ENDROOT
BRANCH   4   7
ATOM      7  C   UNL     1       3.029   6.803  18.500  0.00  0.00    +0.000 A 
ATOM      8  N   UNL     1       3.796   7.257  17.531  0.00  0.00    +0.000 NA
ATOM      9  C   UNL     1       4.430   6.219  16.880  0.00  0.00    +0.000 A 
ATOM     10  C   UNL     1       5.282   6.352  15.771  0.00  0.00    +0.000 A 
ATOM     11  C   UNL     1       5.835   5.212  15.184  0.00  0.00    +0.000 A 
ATOM     12  C   UNL     1       5.556   3.951  15.700  0.00  0.00    +0.000 A 
ATOM     13  C   UNL     1       4.725   3.794  16.815  0.00  0.00    +0.000 A 
ATOM     14  C   UNL     1       4.163   4.947  17.389  0.00  0.00    +0.000 A 
ATOM     15  S   UNL     1       3.096   5.099  18.731  0.00  0.00    +0.000 S 
ENDBRANCH   4   7
BRANCH   1  19
ATOM     16  C   UNL     1      -1.688  11.387  23.191  0.00  0.00    +0.000 C 
ATOM     17  C   UNL     1      -0.566  10.479  22.766  0.00  0.00    +0.000 C 
ATOM     18  O   UNL     1       0.169   9.960  23.601  0.00  0.00    +0.000 OA
ATOM     19  N   UNL     1      -0.471  10.342  21.393  0.00  0.00    +0.000 N 
ATOM     20  H   UNL     1      -0.985  11.023  20.831  0.00  0.00    +0.000 HD
ENDBRANCH   1  19
BRANCH   6  21
ATOM     21  N   UNL     1       0.616  11.090  18.746  0.00  0.00    +0.000 N 
ATOM     22  O   UNL     1       1.556  11.864  18.496  0.00  0.00    +0.000 OA
ATOM     23  O   UNL     1      -0.567  11.329  18.472  0.00  0.00    +0.000 OA
ENDBRANCH   6  21
TORSDOF 3
ENDMDL
MODEL 2
REMARK VINA RESULT:      -7.8      3.996      8.137
REMARK  Name = 
REMARK  4 active torsions:
REMARK  status: ('A' for Active; 'I' for Inactive)
REMARK    1  A    between atoms: C_1  and  C_2
REMARK    2  A    between atoms: N_4  and  C_5
REMARK    3  A    between atoms: C_8  and  C_9
REMARK    4  A    between atoms: C_19  and  N_20
REMARK                            x       y       z     vdW  Elec       q    Type
REMARK                         _______ _______ _______ _____ _____    ______ ____
ROOT
ATOM      1  C   UNL     1       3.008   4.723  19.405  0.00  0.00    +0.000 A 
ATOM      2  C   UNL     1       3.274   5.913  18.711  0.00  0.00    +0.000 A 
ATOM      3  C   UNL     1       2.703   7.138  19.085  0.00  0.00    +0.000 A 
ATOM      4  C   UNL     1       1.823   7.217  20.164  0.00  0.00    +0.000 A 
ATOM      5  C   UNL     1       1.540   6.031  20.865  0.00  0.00    +0.000 A 
ATOM      6  C   UNL     1       2.115   4.800  20.493  0.00  0.00    +0.000 A 
ENDROOT
BRANCH   4   7
ATOM      7  C   UNL     1       1.143   8.455  20.590  0.00  0.00    +0.000 A 
ATOM      8  N   UNL     1       0.662   8.607  21.806  0.00  0.00    +0.000 NA
ATOM      9  C   UNL     1      -0.012   9.806  21.920  0.00  0.00    +0.000 A 
ATOM     10  C   UNL     1      -0.683  10.256  23.068  0.00  0.00    +0.000 A 
ATOM     11  C   UNL     1      -1.356  11.481  23.040  0.00  0.00    +0.000 A 
ATOM     12  C   UNL     1      -1.352  12.257  21.886  0.00  0.00    +0.000 A 
ATOM     13  C   UNL     1      -0.675  11.838  20.735  0.00  0.00    +0.000 A 
ATOM     14  C   UNL     1      -0.013  10.598  20.771  0.00  0.00    +0.000 A 
ATOM     15  S   UNL     1       0.878   9.792  19.539  0.00  0.00    +0.000 S 
ENDBRANCH   4   7
BRANCH   1  19
ATOM     16  C   UNL     1       3.860   1.301  18.037  0.00  0.00    +0.000 C 
ATOM     17  C   UNL     1       3.003   2.526  18.202  0.00  0.00    +0.000 C 
ATOM     18  O   UNL     1       1.907   2.601  17.654  0.00  0.00    +0.000 OA
ATOM     19  N   UNL     1       3.594   3.500  18.985  0.00  0.00    +0.000 N 
ATOM     20  H   UNL     1       4.596   3.396  19.160  0.00  0.00    +0.000 HD
ENDBRANCH   1  19
BRANCH   6  21
ATOM     21  N   UNL     1       1.754   3.619  21.298  0.00  0.00    +0.000 N 
ATOM     22  O   UNL     1       0.738   2.981  20.973  0.00  0.00    +0.000 OA
ATOM     23  O   UNL     1       2.475   3.326  22.261  0.00  0.00    +0.000 OA
ENDBRANCH   6  21
TORSDOF 3
ENDMDL
MODEL 3
REMARK VINA RESULT:      -7.7      1.526      2.436
REMARK  Name = 
REMARK  4 active torsions:
REMARK  status: ('A' for Active; 'I' for Inactive)
REMARK    1  A    between atoms: C_1  and  C_2
REMARK    2  A    between atoms: N_4  and  C_5
REMARK    3  A    between atoms: C_8  and  C_9
REMARK    4  A    between atoms: C_19  and  N_20
REMARK                            x       y       z     vdW  Elec       q    Type
REMARK                         _______ _______ _______ _____ _____    ______ ____
ROOT
ATOM      1  C   UNL     1       0.454  10.266  19.822  0.00  0.00    +0.000 A 
ATOM      2  C   UNL     1       0.794  10.275  18.460  0.00  0.00    +0.000 A 
ATOM      3  C   UNL     1       1.567   9.261  17.878  0.00  0.00    +0.000 A 
ATOM      4  C   UNL     1       2.049   8.200  18.644  0.00  0.00    +0.000 A 
ATOM      5  C   UNL     1       1.724   8.181  20.012  0.00  0.00    +0.000 A 
ATOM      6  C   UNL     1       0.944   9.197  20.599  0.00  0.00    +0.000 A 
ENDROOT
BRANCH   4   7
ATOM      7  C   UNL     1       2.908   7.122  18.119  0.00  0.00    +0.000 A 
ATOM      8  N   UNL     1       3.987   7.370  17.407  0.00  0.00    +0.000 NA
ATOM      9  C   UNL     1       4.554   6.197  16.952  0.00  0.00    +0.000 A 
ATOM     10  C   UNL     1       5.688   6.107  16.128  0.00  0.00    +0.000 A 
ATOM     11  C   UNL     1       6.142   4.853  15.712  0.00  0.00    +0.000 A 
ATOM     12  C   UNL     1       5.485   3.697  16.120  0.00  0.00    +0.000 A 
ATOM     13  C   UNL     1       4.364   3.761  16.956  0.00  0.00    +0.000 A 
ATOM     14  C   UNL     1       3.909   5.028  17.358  0.00  0.00    +0.000 A 
ATOM     15  S   UNL     1       2.566   5.451  18.347  0.00  0.00    +0.000 S 
ENDBRANCH   4   7
BRANCH   1  19
ATOM     16  C   UNL     1      -0.951  13.251  21.673  0.00  0.00    +0.000 C 
ATOM     17  C   UNL     1       0.149  12.368  21.150  0.00  0.00    +0.000 C 
ATOM     18  O   UNL     1       1.324  12.618  21.401  0.00  0.00    +0.000 OA
ATOM     19  N   UNL     1      -0.318  11.321  20.377  0.00  0.00    +0.000 N 
ATOM     20  H   UNL     1      -1.286  11.389  20.056  0.00  0.00    +0.000 HD
ENDBRANCH   1  19
BRANCH   6  21
ATOM     21  N   UNL     1       0.659   9.077  22.040  0.00  0.00    +0.000 N 
ATOM     22  O   UNL     1      -0.494   8.760  22.380  0.00  0.00    +0.000 OA
ATOM     23  O   UNL     1       1.576   9.305  22.839  0.00  0.00    +0.000 OA
ENDBRANCH   6  21
TORSDOF 3
ENDMDL
MODEL 4
REMARK VINA RESULT:      -7.6      3.574      8.078
REMARK  Name = 
REMARK  4 active torsions:
REMARK  status: ('A' for Active; 'I' for Inactive)
REMARK    1  A    between atoms: C_1  and  C_2
REMARK    2  A    between atoms: N_4  and  C_5
REMARK    3  A    between atoms: C_8  and  C_9
REMARK    4  A    between atoms: C_19  and  N_20
REMARK                            x       y       z     vdW  Elec       q    Type
REMARK                         _______ _______ _______ _____ _____    ______ ____
ROOT
ATOM      1  C   UNL     1       3.833   5.754  17.554  0.00  0.00    +0.000 A 
ATOM      2  C   UNL     1       3.707   7.080  17.111  0.00  0.00    +0.000 A 
ATOM      3  C   UNL     1       2.991   8.043  17.837  0.00  0.00    +0.000 A 
ATOM      4  C   UNL     1       2.354   7.711  19.032  0.00  0.00    +0.000 A 
ATOM      5  C   UNL     1       2.465   6.384  19.485  0.00  0.00    +0.000 A 
ATOM      6  C   UNL     1       3.186   5.415  18.760  0.00  0.00    +0.000 A 
ENDROOT
BRANCH   4   7
ATOM      7  C   UNL     1       1.542   8.651  19.827  0.00  0.00    +0.000 A 
ATOM      8  N   UNL     1       1.260   8.435  21.095  0.00  0.00    +0.000 NA
ATOM      9  C   UNL     1       0.407   9.405  21.580  0.00  0.00    +0.000 A 
ATOM     10  C   UNL     1      -0.125   9.445  22.879  0.00  0.00    +0.000 A 
ATOM     11  C   UNL     1      -1.007  10.470  23.233  0.00  0.00    +0.000 A 
ATOM     12  C   UNL     1      -1.348  11.453  22.310  0.00  0.00    +0.000 A 
ATOM     13  C   UNL     1      -0.816  11.444  21.015  0.00  0.00    +0.000 A 
ATOM     14  C   UNL     1       0.060  10.401  20.667  0.00  0.00    +0.000 A 
ATOM     15  S   UNL     1       0.855  10.087  19.173  0.00  0.00    +0.000 S 
ENDBRANCH   4   7
BRANCH   1  19
ATOM     16  C   UNL     1       6.291   3.775  15.468  0.00  0.00    +0.000 C 
ATOM     17  C   UNL     1       5.868   4.906  16.366  0.00  0.00    +0.000 C 
ATOM     18  O   UNL     1       6.664   5.787  16.679  0.00  0.00    +0.000 OA
ATOM     19  N   UNL     1       4.554   4.804  16.783  0.00  0.00    +0.000 N 
ATOM     20  H   UNL     1       4.102   3.898  16.646  0.00  0.00    +0.000 HD
ENDBRANCH   1  19
BRANCH   6  21
ATOM     21  N   UNL     1       3.243   4.056  19.327  0.00  0.00    +0.000 N 
ATOM     22  O   UNL     1       4.363   3.562  19.544  0.00  0.00    +0.000 OA
ATOM     23  O   UNL     1       2.175   3.472  19.552  0.00  0.00    +0.000 OA
ENDBRANCH   6  21
TORSDOF 3
ENDMDL
MODEL 5
REMARK VINA RESULT:      -7.5      3.485      8.034
REMARK  Name = 
REMARK  4 active torsions:
REMARK  status: ('A' for Active; 'I' for Inactive)
REMARK    1  A    between atoms: C_1  and  C_2
REMARK    2  A    between atoms: N_4  and  C_5
REMARK    3  A    between atoms: C_8  and  C_9
REMARK    4  A    between atoms: C_19  and  N_20
REMARK                            x       y       z     vdW  Elec       q    Type
REMARK                         _______ _______ _______ _____ _____    ______ ____
ROOT
ATOM      1  C   UNL     1       4.125   5.924  17.561  0.00  0.00    +0.000 A 
ATOM      2  C   UNL     1       3.683   7.176  17.106  0.00  0.00    +0.000 A 
ATOM      3  C   UNL     1       2.850   7.998  17.880  0.00  0.00    +0.000 A 
ATOM      4  C   UNL     1       2.411   7.589  19.139  0.00  0.00    +0.000 A 
ATOM      5  C   UNL     1       2.840   6.334  19.605  0.00  0.00    +0.000 A 
ATOM      6  C   UNL     1       3.679   5.507  18.832  0.00  0.00    +0.000 A 
ENDROOT
BRANCH   4   7
ATOM      7  C   UNL     1       1.497   8.372  19.991  0.00  0.00    +0.000 A 
ATOM      8  N   UNL     1       0.970   9.511  19.594  0.00  0.00    +0.000 NA
ATOM      9  C   UNL     1       0.236  10.093  20.607  0.00  0.00    +0.000 A 
ATOM     10  C   UNL     1      -0.418  11.333  20.530  0.00  0.00    +0.000 A 
ATOM     11  C   UNL     1      -1.103  11.823  21.645  0.00  0.00    +0.000 A 
ATOM     12  C   UNL     1      -1.149  11.084  22.822  0.00  0.00    +0.000 A 
ATOM     13  C   UNL     1      -0.520   9.837  22.917  0.00  0.00    +0.000 A 
ATOM     14  C   UNL     1       0.177   9.360  21.793  0.00  0.00    +0.000 A 
ATOM     15  S   UNL     1       1.066   7.900  21.589  0.00  0.00    +0.000 S 
ENDBRANCH   4   7
BRANCH   1  19
ATOM     16  C   UNL     1       6.740   4.416  15.280  0.00  0.00    +0.000 C 
ATOM     17  C   UNL     1       6.173   5.470  16.192  0.00  0.00    +0.000 C 
ATOM     18  O   UNL     1       6.789   6.511  16.403  0.00  0.00    +0.000 OA
ATOM     19  N   UNL     1       4.956   5.114  16.742  0.00  0.00    +0.000 N 
ATOM     20  H   UNL     1       4.696   4.128  16.671  0.00  0.00    +0.000 HD
ENDBRANCH   1  19
BRANCH   6  21
ATOM     21  N   UNL     1       4.073   4.214  19.418  0.00  0.00    +0.000 N 
ATOM     22  O   UNL     1       3.181   3.503  19.912  0.00  0.00    +0.000 OA
ATOM     23  O   UNL     1       5.271   3.903  19.396  0.00  0.00    +0.000 OA
ENDBRANCH   6  21
TORSDOF 3
ENDMDL
MODEL 6
REMARK VINA RESULT:      -7.4      1.532      2.538
REMARK  Name = 
REMARK  4 active torsions:
REMARK  status: ('A' for Active; 'I' for Inactive)
REMARK    1  A    between atoms: C_1  and  C_2
REMARK    2  A    between atoms: N_4  and  C_5
REMARK    3  A    between atoms: C_8  and  C_9
REMARK    4  A    between atoms: C_19  and  N_20
REMARK                            x       y       z     vdW  Elec       q    Type
REMARK                         _______ _______ _______ _____ _____    ______ ____
ROOT
ATOM      1  C   UNL     1       0.574  10.315  19.732  0.00  0.00    +0.000 A 
ATOM      2  C   UNL     1       0.975  10.341  18.388  0.00  0.00    +0.000 A 
ATOM      3  C   UNL     1       1.738   9.313  17.818  0.00  0.00    +0.000 A 
ATOM      4  C   UNL     1       2.148   8.219  18.579  0.00  0.00    +0.000 A 
ATOM      5  C   UNL     1       1.761   8.182  19.931  0.00  0.00    +0.000 A 
ATOM      6  C   UNL     1       0.991   9.212  20.506  0.00  0.00    +0.000 A 
ENDROOT
BRANCH   4   7
ATOM      7  C   UNL     1       2.993   7.123  18.068  0.00  0.00    +0.000 A 
ATOM      8  N   UNL     1       4.025   7.342  17.282  0.00  0.00    +0.000 NA
ATOM      9  C   UNL     1       4.585   6.152  16.863  0.00  0.00    +0.000 A 
ATOM     10  C   UNL     1       5.671   6.029  15.981  0.00  0.00    +0.000 A 
ATOM     11  C   UNL     1       6.120   4.759  15.612  0.00  0.00    +0.000 A 
ATOM     12  C   UNL     1       5.505   3.620  16.123  0.00  0.00    +0.000 A 
ATOM     13  C   UNL     1       4.433   3.718  17.018  0.00  0.00    +0.000 A 
ATOM     14  C   UNL     1       3.982   5.001  17.372  0.00  0.00    +0.000 A 
ATOM     15  S   UNL     1       2.691   5.464  18.411  0.00  0.00    +0.000 S 
ENDBRANCH   4   7
BRANCH   1  19
ATOM     16  C   UNL     1      -1.929  13.017  20.596  0.00  0.00    +0.000 C 
ATOM     17  C   UNL     1      -1.455  11.775  19.891  0.00  0.00    +0.000 C 
ATOM     18  O   UNL     1      -2.178  11.201  19.082  0.00  0.00    +0.000 OA
ATOM     19  N   UNL     1      -0.187  11.383  20.277  0.00  0.00    +0.000 N 
ATOM     20  H   UNL     1       0.181  11.810  21.130  0.00  0.00    +0.000 HD
ENDBRANCH   1  19
BRANCH   6  21
ATOM     21  N   UNL     1       0.636   9.071  21.929  0.00  0.00    +0.000 N 
ATOM     22  O   UNL     1       1.508   9.335  22.775  0.00  0.00    +0.000 OA
ATOM     23  O   UNL     1      -0.507   8.690  22.212  0.00  0.00    +0.000 OA
ENDBRANCH   6  21
TORSDOF 3
ENDMDL
MODEL 7
REMARK VINA RESULT:      -7.4      2.631      3.825
REMARK  Name = 
REMARK  4 active torsions:
REMARK  status: ('A' for Active; 'I' for Inactive)
REMARK    1  A    between atoms: C_1  and  C_2
REMARK    2  A    between atoms: N_4  and  C_5
REMARK    3  A    between atoms: C_8  and  C_9
REMARK    4  A    between atoms: C_19  and  N_20
REMARK                            x       y       z     vdW  Elec       q    Type
REMARK                         _______ _______ _______ _____ _____    ______ ____
ROOT
ATOM      1  C   UNL     1       0.503  10.667  20.451  0.00  0.00    +0.000 A 
ATOM      2  C   UNL     1       1.061  10.248  19.234  0.00  0.00    +0.000 A 
ATOM      3  C   UNL     1       1.571   8.954  19.055  0.00  0.00    +0.000 A 
ATOM      4  C   UNL     1       1.558   8.029  20.098  0.00  0.00    +0.000 A 
ATOM      5  C   UNL     1       1.009   8.436  21.327  0.00  0.00    +0.000 A 
ATOM      6  C   UNL     1       0.493   9.735  21.509  0.00  0.00    +0.000 A 
ENDROOT
BRANCH   4   7
ATOM      7  C   UNL     1       2.119   6.667  20.006  0.00  0.00    +0.000 A 
ATOM      8  N   UNL     1       1.724   5.692  20.796  0.00  0.00    +0.000 NA
ATOM      9  C   UNL     1       2.469   4.551  20.578  0.00  0.00    +0.000 A 
ATOM     10  C   UNL     1       2.337   3.344  21.284  0.00  0.00    +0.000 A 
ATOM     11  C   UNL     1       3.181   2.272  20.983  0.00  0.00    +0.000 A 
ATOM     12  C   UNL     1       4.138   2.391  19.982  0.00  0.00    +0.000 A 
ATOM     13  C   UNL     1       4.277   3.577  19.252  0.00  0.00    +0.000 A 
ATOM     14  C   UNL     1       3.431   4.654  19.572  0.00  0.00    +0.000 A 
ATOM     15  S   UNL     1       3.360   6.234  18.895  0.00  0.00    +0.000 S 
ENDBRANCH   4   7
BRANCH   1  19
ATOM     16  C   UNL     1      -0.144  14.315  21.213  0.00  0.00    +0.000 C 
ATOM     17  C   UNL     1       0.708  13.082  21.082  0.00  0.00    +0.000 C 
ATOM     18  O   UNL     1       1.901  13.113  21.369  0.00  0.00    +0.000 OA
ATOM     19  N   UNL     1       0.010  11.991  20.598  0.00  0.00    +0.000 N 
ATOM     20  H   UNL     1      -0.899  12.184  20.173  0.00  0.00    +0.000 HD
ENDBRANCH   1  19
BRANCH   6  21
ATOM     21  N   UNL     1      -0.064  10.056  22.835  0.00  0.00    +0.000 N 
ATOM     22  O   UNL     1       0.566   9.680  23.838  0.00  0.00    +0.000 OA
ATOM     23  O   UNL     1      -1.134  10.677  22.884  0.00  0.00    +0.000 OA
ENDBRANCH   6  21
TORSDOF 3
ENDMDL
MODEL 8
REMARK VINA RESULT:      -7.3      3.228      7.979
REMARK  Name = 
REMARK  4 active torsions:
REMARK  status: ('A' for Active; 'I' for Inactive)
REMARK    1  A    between atoms: C_1  and  C_2
REMARK    2  A    between atoms: N_4  and  C_5
REMARK    3  A    between atoms: C_8  and  C_9
REMARK    4  A    between atoms: C_19  and  N_20
REMARK                            x       y       z     vdW  Elec       q    Type
REMARK                         _______ _______ _______ _____ _____    ______ ____
ROOT
ATOM      1  C   UNL     1       3.615   6.578  17.753  0.00  0.00    +0.000 A 
ATOM      2  C   UNL     1       3.128   7.802  17.270  0.00  0.00    +0.000 A 
ATOM      3  C   UNL     1       2.289   8.624  18.037  0.00  0.00    +0.000 A 
ATOM      4  C   UNL     1       1.890   8.243  19.318  0.00  0.00    +0.000 A 
ATOM      5  C   UNL     1       2.364   7.015  19.812  0.00  0.00    +0.000 A 
ATOM      6  C   UNL     1       3.209   6.188  19.045  0.00  0.00    +0.000 A 
ENDROOT
BRANCH   4   7
ATOM      7  C   UNL     1       0.973   9.026  20.167  0.00  0.00    +0.000 A 
ATOM      8  N   UNL     1       0.223   9.994  19.683  0.00  0.00    +0.000 NA
ATOM      9  C   UNL     1      -0.465  10.634  20.693  0.00  0.00    +0.000 A 
ATOM     10  C   UNL     1      -1.316  11.739  20.525  0.00  0.00    +0.000 A 
ATOM     11  C   UNL     1      -1.929  12.314  21.641  0.00  0.00    +0.000 A 
ATOM     12  C   UNL     1      -1.710  11.790  22.911  0.00  0.00    +0.000 A 
ATOM     13  C   UNL     1      -0.880  10.679  23.101  0.00  0.00    +0.000 A 
ATOM     14  C   UNL     1      -0.259  10.116  21.972  0.00  0.00    +0.000 A 
ATOM     15  S   UNL     1       0.823   8.783  21.864  0.00  0.00    +0.000 S 
ENDBRANCH   4   7
BRANCH   1  19
ATOM     16  C   UNL     1       6.265   5.055  15.522  0.00  0.00    +0.000 C 
ATOM     17  C   UNL     1       5.697   6.100  16.444  0.00  0.00    +0.000 C 
ATOM     18  O   UNL     1       6.336   7.114  16.709  0.00  0.00    +0.000 OA
ATOM     19  N   UNL     1       4.450   5.766  16.939  0.00  0.00    +0.000 N 
ATOM     20  H   UNL     1       4.164   4.791  16.830  0.00  0.00    +0.000 HD
ENDBRANCH   1  19
BRANCH   6  21
ATOM     21  N   UNL     1       3.652   4.925  19.661  0.00  0.00    +0.000 N 
ATOM     22  O   UNL     1       4.826   4.563  19.467  0.00  0.00    +0.000 OA
ATOM     23  O   UNL     1       2.834   4.284  20.333  0.00  0.00    +0.000 OA
ENDBRANCH   6  21
TORSDOF 3
ENDMDL
MODEL 9
REMARK VINA RESULT:      -7.3      3.846      8.023
REMARK  Name = 
REMARK  4 active torsions:
REMARK  status: ('A' for Active; 'I' for Inactive)
REMARK    1  A    between atoms: C_1  and  C_2
REMARK    2  A    between atoms: N_4  and  C_5
REMARK    3  A    between atoms: C_8  and  C_9
REMARK    4  A    between atoms: C_19  and  N_20
REMARK                            x       y       z     vdW  Elec       q    Type
REMARK                         _______ _______ _______ _____ _____    ______ ____
ROOT
ATOM      1  C   UNL     1       2.855   5.053  19.365  0.00  0.00    +0.000 A 
ATOM      2  C   UNL     1       3.075   6.302  18.763  0.00  0.00    +0.000 A 
ATOM      3  C   UNL     1       2.474   7.475  19.242  0.00  0.00    +0.000 A 
ATOM      4  C   UNL     1       1.612   7.442  20.337  0.00  0.00    +0.000 A 
ATOM      5  C   UNL     1       1.375   6.197  20.946  0.00  0.00    +0.000 A 
ATOM      6  C   UNL     1       1.979   5.017  20.469  0.00  0.00    +0.000 A 
ENDROOT
BRANCH   4   7
ATOM      7  C   UNL     1       0.903   8.621  20.870  0.00  0.00    +0.000 A 
ATOM      8  N   UNL     1       1.147   9.840  20.436  0.00  0.00    +0.000 NA
ATOM      9  C   UNL     1       0.431  10.771  21.161  0.00  0.00    +0.000 A 
ATOM     10  C   UNL     1       0.495  12.163  20.986  0.00  0.00    +0.000 A 
ATOM     11  C   UNL     1      -0.260  12.998  21.813  0.00  0.00    +0.000 A 
ATOM     12  C   UNL     1      -1.082  12.457  22.796  0.00  0.00    +0.000 A 
ATOM     13  C   UNL     1      -1.176  11.072  22.977  0.00  0.00    +0.000 A 
ATOM     14  C   UNL     1      -0.402  10.243  22.148  0.00  0.00    +0.000 A 
ATOM     15  S   UNL     1      -0.268   8.527  22.127  0.00  0.00    +0.000 S 
ENDBRANCH   4   7
BRANCH   1  19
ATOM     16  C   UNL     1       3.802   1.818  17.648  0.00  0.00    +0.000 C 
ATOM     17  C   UNL     1       2.937   3.023  17.900  0.00  0.00    +0.000 C 
ATOM     18  O   UNL     1       1.887   3.178  17.284  0.00  0.00    +0.000 OA
ATOM     19  N   UNL     1       3.470   3.885  18.841  0.00  0.00    +0.000 N 
ATOM     20  H   UNL     1       4.455   3.749  19.076  0.00  0.00    +0.000 HD
ENDBRANCH   1  19
BRANCH   6  21
ATOM     21  N   UNL     1       1.667   3.766  21.183  0.00  0.00    +0.000 N 
ATOM     22  O   UNL     1       2.313   3.508  22.214  0.00  0.00    +0.000 OA
ATOM     23  O   UNL     1       0.785   3.033  20.719  0.00  0.00    +0.000 OA
ENDBRANCH   6  21
TORSDOF 3
ENDMDL
