MODEL 1
REMARK VINA RESULT:      -7.3      0.000      0.000
REMARK  Name = 
REMARK  3 active torsions:
REMARK  status: ('A' for Active; 'I' for Inactive)
REMARK    1  A    between atoms: C_5  and  C_7
REMARK    2  A    between atoms: C_9  and  N_10
REMARK    3  A    between atoms: C_11  and  C_13
REMARK                            x       y       z     vdW  Elec       q    Type
REMARK                         _______ _______ _______ _____ _____    ______ ____
ROOT
ATOM      1  C   UNL     1       3.983   4.357  19.123  0.00  0.00    +0.000 A 
ATOM      2  C   UNL     1       3.539   5.539  19.741  0.00  0.00    +0.000 A 
ATOM      3  C   UNL     1       2.256   5.635  20.285  0.00  0.00    +0.000 A 
ATOM      4  C   UNL     1       1.426   4.514  20.265  0.00  0.00    +0.000 A 
ATOM      5  C   UNL     1       1.855   3.330  19.657  0.00  0.00    +0.000 A 
ATOM      6  C   UNL     1       3.128   3.248  19.077  0.00  0.00    +0.000 A 
ATOM      7 BR   UNL     1       3.564   1.611  18.218  0.00  0.00    +0.000 Br
ENDROOT
BRANCH   1  12
ATOM      8  N   UNL     1       7.858   4.342  17.258  0.00  0.00    +0.000 N 
ATOM      9  C   UNL     1       6.711   4.321  16.547  0.00  0.00    +0.000 C 
ATOM     10  O   UNL     1       6.707   4.417  15.325  0.00  0.00    +0.000 OA
ATOM     11  N   UNL     1       5.550   4.192  17.259  0.00  0.00    +0.000 N 
ATOM     12  C   UNL     1       5.385   4.318  18.630  0.00  0.00    +0.000 C 
ATOM     13  O   UNL     1       6.318   4.432  19.423  0.00  0.00    +0.000 OA
ATOM     14  H   UNL     1       8.724   4.545  16.780  0.00  0.00    +0.000 HD
ATOM     15  H   UNL     1       7.812   4.462  18.266  0.00  0.00    +0.000 HD
ATOM     16  H   UNL     1       4.740   4.155  16.654  0.00  0.00    +0.000 HD
ENDBRANCH   1  12
BRANCH   3  17
ATOM     17  N   UNL     1       1.767   6.818  20.876  0.00  0.00    +0.000 N 
ATOM     18  C   UNL     1       1.635   8.048  20.245  0.00  0.00    +0.000 C 
ATOM     19  O   UNL     1       1.901   8.273  19.067  0.00  0.00    +0.000 OA
ATOM     20  H   UNL     1       1.313   6.726  21.780  0.00  0.00    +0.000 HD
BRANCH  18  21
ATOM     21  C   UNL     1       1.166   9.160  21.154  0.00  0.00    +0.000 C 
ATOM     22 BR   UNL     1      -0.282  10.114  20.280  0.00  0.00    +0.000 Br
ENDBRANCH  18  21
ENDBRANCH   3  17
TORSDOF 3
ENDMDL
MODEL 2
REMARK VINA RESULT:      -7.0      1.139      1.333
REMARK  Name = 
REMARK  3 active torsions:
REMARK  status: ('A' for Active; 'I' for Inactive)
REMARK    1  A    between atoms: C_5  and  C_7
REMARK    2  A    between atoms: C_9  and  N_10
REMARK    3  A    between atoms: C_11  and  C_13
REMARK                            x       y       z     vdW  Elec       q    Type
REMARK                         _______ _______ _______ _____ _____    ______ ____
ROOT
ATOM      1  C   UNL     1       3.724   4.919  18.516  0.00  0.00    +0.000 A 
ATOM      2  C   UNL     1       3.334   6.027  19.287  0.00  0.00    +0.000 A 
ATOM      3  C   UNL     1       2.313   5.929  20.235  0.00  0.00    +0.000 A 
ATOM      4  C   UNL     1       1.714   4.688  20.459  0.00  0.00    +0.000 A 
ATOM      5  C   UNL     1       2.094   3.575  19.702  0.00  0.00    +0.000 A 
ATOM      6  C   UNL     1       3.091   3.686  18.724  0.00  0.00    +0.000 A 
ATOM      7 BR   UNL     1       3.463   2.121  17.714  0.00  0.00    +0.000 Br
ENDROOT
BRANCH   1  12
ATOM      8  N   UNL     1       7.272   5.142  16.095  0.00  0.00    +0.000 N 
ATOM      9  C   UNL     1       7.281   4.646  17.351  0.00  0.00    +0.000 C 
ATOM     10  O   UNL     1       8.278   4.120  17.831  0.00  0.00    +0.000 OA
ATOM     11  N   UNL     1       6.117   4.755  18.062  0.00  0.00    +0.000 N 
ATOM     12  C   UNL     1       4.863   5.095  17.577  0.00  0.00    +0.000 C 
ATOM     13  O   UNL     1       4.657   5.488  16.430  0.00  0.00    +0.000 OA
ATOM     14  H   UNL     1       8.074   4.983  15.504  0.00  0.00    +0.000 HD
ATOM     15  H   UNL     1       6.383   5.384  15.667  0.00  0.00    +0.000 HD
ATOM     16  H   UNL     1       6.213   4.388  19.000  0.00  0.00    +0.000 HD
ENDBRANCH   1  12
BRANCH   3  17
ATOM     17  N   UNL     1       1.873   7.030  20.997  0.00  0.00    +0.000 N 
ATOM     18  C   UNL     1       1.513   8.274  20.494  0.00  0.00    +0.000 C 
ATOM     19  O   UNL     1       1.502   8.583  19.305  0.00  0.00    +0.000 OA
ATOM     20  H   UNL     1       1.632   6.852  21.967  0.00  0.00    +0.000 HD
BRANCH  18  21
ATOM     21  C   UNL     1       1.166   9.291  21.556  0.00  0.00    +0.000 C 
ATOM     22 BR   UNL     1      -0.178  10.501  20.849  0.00  0.00    +0.000 Br
ENDBRANCH  18  21
ENDBRANCH   3  17
TORSDOF 3
ENDMDL
MODEL 3
REMARK VINA RESULT:      -6.9      3.893      7.321
REMARK  Name = 
REMARK  3 active torsions:
REMARK  status: ('A' for Active; 'I' for Inactive)
REMARK    1  A    between atoms: C_5  and  C_7
REMARK    2  A    between atoms: C_9  and  N_10
REMARK    3  A    between atoms: C_11  and  C_13
REMARK                            x       y       z     vdW  Elec       q    Type
REMARK                         _______ _______ _______ _____ _____    ______ ____
ROOT
ATOM      1  C   UNL     1       4.435   4.299  16.762  0.00  0.00    +0.000 A 
ATOM      2  C   UNL     1       5.146   3.639  15.745  0.00  0.00    +0.000 A 
ATOM      3  C   UNL     1       5.853   4.352  14.774  0.00  0.00    +0.000 A 
ATOM      4  C   UNL     1       5.900   5.744  14.856  0.00  0.00    +0.000 A 
ATOM      5  C   UNL     1       5.200   6.415  15.865  0.00  0.00    +0.000 A 
ATOM      6  C   UNL     1       4.459   5.699  16.814  0.00  0.00    +0.000 A 
ATOM      7 BR   UNL     1       3.494   6.728  18.086  0.00  0.00    +0.000 Br
ENDROOT
BRANCH   1  12
ATOM      8  N   UNL     1       2.908   1.908  19.995  0.00  0.00    +0.000 N 
ATOM      9  C   UNL     1       4.220   2.199  19.865  0.00  0.00    +0.000 C 
ATOM     10  O   UNL     1       5.036   1.898  20.727  0.00  0.00    +0.000 OA
ATOM     11  N   UNL     1       4.593   2.852  18.723  0.00  0.00    +0.000 N 
ATOM     12  C   UNL     1       3.764   3.463  17.793  0.00  0.00    +0.000 C 
ATOM     13  O   UNL     1       2.538   3.373  17.807  0.00  0.00    +0.000 OA
ATOM     14  H   UNL     1       2.578   1.525  20.869  0.00  0.00    +0.000 HD
ATOM     15  H   UNL     1       2.241   2.344  19.365  0.00  0.00    +0.000 HD
ATOM     16  H   UNL     1       5.592   3.007  18.687  0.00  0.00    +0.000 HD
ENDBRANCH   1  12
BRANCH   3  17
ATOM     17  N   UNL     1       6.543   3.721  13.720  0.00  0.00    +0.000 N 
ATOM     18  C   UNL     1       5.997   3.347  12.498  0.00  0.00    +0.000 C 
ATOM     19  O   UNL     1       4.834   3.540  12.153  0.00  0.00    +0.000 OA
ATOM     20  H   UNL     1       7.556   3.693  13.785  0.00  0.00    +0.000 HD
BRANCH  18  21
ATOM     21  C   UNL     1       6.956   2.609  11.594  0.00  0.00    +0.000 C 
ATOM     22 BR   UNL     1       6.183   0.889  11.134  0.00  0.00    +0.000 Br
ENDBRANCH  18  21
ENDBRANCH   3  17
TORSDOF 3
ENDMDL
MODEL 4
REMARK VINA RESULT:      -6.9      3.783      7.171
REMARK  Name = 
REMARK  3 active torsions:
REMARK  status: ('A' for Active; 'I' for Inactive)
REMARK    1  A    between atoms: C_5  and  C_7
REMARK    2  A    between atoms: C_9  and  N_10
REMARK    3  A    between atoms: C_11  and  C_13
REMARK                            x       y       z     vdW  Elec       q    Type
REMARK                         _______ _______ _______ _____ _____    ______ ____
ROOT
ATOM      1  C   UNL     1       4.171   4.448  17.150  0.00  0.00    +0.000 A 
ATOM      2  C   UNL     1       4.941   3.850  16.137  0.00  0.00    +0.000 A 
ATOM      3  C   UNL     1       5.615   4.620  15.187  0.00  0.00    +0.000 A 
ATOM      4  C   UNL     1       5.568   6.011  15.286  0.00  0.00    +0.000 A 
ATOM      5  C   UNL     1       4.809   6.621  16.290  0.00  0.00    +0.000 A 
ATOM      6  C   UNL     1       4.102   5.846  17.218  0.00  0.00    +0.000 A 
ATOM      7 BR   UNL     1       3.051   6.793  18.486  0.00  0.00    +0.000 Br
ENDROOT
BRANCH   1  12
ATOM      8  N   UNL     1       1.972   1.840  19.768  0.00  0.00    +0.000 N 
ATOM      9  C   UNL     1       1.403   2.450  18.707  0.00  0.00    +0.000 C 
ATOM     10  O   UNL     1       0.255   2.201  18.358  0.00  0.00    +0.000 OA
ATOM     11  N   UNL     1       2.175   3.357  18.034  0.00  0.00    +0.000 N 
ATOM     12  C   UNL     1       3.541   3.557  18.159  0.00  0.00    +0.000 C 
ATOM     13  O   UNL     1       4.235   3.017  19.019  0.00  0.00    +0.000 OA
ATOM     14  H   UNL     1       1.475   1.088  20.222  0.00  0.00    +0.000 HD
ATOM     15  H   UNL     1       2.976   1.920  19.904  0.00  0.00    +0.000 HD
ATOM     16  H   UNL     1       1.669   3.791  17.273  0.00  0.00    +0.000 HD
ENDBRANCH   1  12
BRANCH   3  17
ATOM     17  N   UNL     1       6.363   4.050  14.137  0.00  0.00    +0.000 N 
ATOM     18  C   UNL     1       5.856   3.626  12.915  0.00  0.00    +0.000 C 
ATOM     19  O   UNL     1       4.682   3.714  12.564  0.00  0.00    +0.000 OA
ATOM     20  H   UNL     1       7.374   4.112  14.206  0.00  0.00    +0.000 HD
BRANCH  18  21
ATOM     21  C   UNL     1       6.880   2.972  12.017  0.00  0.00    +0.000 C 
ATOM     22 BR   UNL     1       6.110   1.360  11.258  0.00  0.00    +0.000 Br
ENDBRANCH  18  21
ENDBRANCH   3  17
TORSDOF 3
ENDMDL
MODEL 5
REMARK VINA RESULT:      -6.9      1.289      1.365
REMARK  Name = 
REMARK  3 active torsions:
REMARK  status: ('A' for Active; 'I' for Inactive)
REMARK    1  A    between atoms: C_5  and  C_7
REMARK    2  A    between atoms: C_9  and  N_10
REMARK    3  A    between atoms: C_11  and  C_13
REMARK                            x       y       z     vdW  Elec       q    Type
REMARK                         _______ _______ _______ _____ _____    ______ ____
ROOT
ATOM      1  C   UNL     1       4.227   5.045  19.194  0.00  0.00    +0.000 A 
ATOM      2  C   UNL     1       3.708   6.346  19.067  0.00  0.00    +0.000 A 
ATOM      3  C   UNL     1       2.472   6.691  19.619  0.00  0.00    +0.000 A 
ATOM      4  C   UNL     1       1.773   5.738  20.361  0.00  0.00    +0.000 A 
ATOM      5  C   UNL     1       2.278   4.441  20.499  0.00  0.00    +0.000 A 
ATOM      6  C   UNL     1       3.499   4.087  19.910  0.00  0.00    +0.000 A 
ATOM      7 BR   UNL     1       4.039   2.276  20.108  0.00  0.00    +0.000 Br
ENDROOT
BRANCH   1  12
ATOM      8  N   UNL     1       7.940   4.353  17.136  0.00  0.00    +0.000 N 
ATOM      9  C   UNL     1       6.752   4.397  16.495  0.00  0.00    +0.000 C 
ATOM     10  O   UNL     1       6.677   4.360  15.272  0.00  0.00    +0.000 OA
ATOM     11  N   UNL     1       5.635   4.489  17.279  0.00  0.00    +0.000 N 
ATOM     12  C   UNL     1       5.579   4.781  18.633  0.00  0.00    +0.000 C 
ATOM     13  O   UNL     1       6.570   4.864  19.357  0.00  0.00    +0.000 OA
ATOM     14  H   UNL     1       8.789   4.394  16.591  0.00  0.00    +0.000 HD
ATOM     15  H   UNL     1       7.976   4.585  18.124  0.00  0.00    +0.000 HD
ATOM     16  H   UNL     1       4.787   4.487  16.727  0.00  0.00    +0.000 HD
ENDBRANCH   1  12
BRANCH   3  17
ATOM     17  N   UNL     1       1.907   7.974  19.477  0.00  0.00    +0.000 N 
ATOM     18  C   UNL     1       1.946   8.757  18.330  0.00  0.00    +0.000 C 
ATOM     19  O   UNL     1       2.459   8.428  17.263  0.00  0.00    +0.000 OA
ATOM     20  H   UNL     1       1.272   8.281  20.208  0.00  0.00    +0.000 HD
BRANCH  18  21
ATOM     21  C   UNL     1       1.332  10.127  18.498  0.00  0.00    +0.000 C 
ATOM     22 BR   UNL     1       0.653  10.291  20.309  0.00  0.00    +0.000 Br
ENDBRANCH  18  21
ENDBRANCH   3  17
TORSDOF 3
ENDMDL
MODEL 6
REMARK VINA RESULT:      -6.8      1.225      1.279
REMARK  Name = 
REMARK  3 active torsions:
REMARK  status: ('A' for Active; 'I' for Inactive)
REMARK    1  A    between atoms: C_5  and  C_7
REMARK    2  A    between atoms: C_9  and  N_10
REMARK    3  A    between atoms: C_11  and  C_13
REMARK                            x       y       z     vdW  Elec       q    Type
REMARK                         _______ _______ _______ _____ _____    ______ ____
ROOT
ATOM      1  C   UNL     1       4.240   4.946  19.227  0.00  0.00    +0.000 A 
ATOM      2  C   UNL     1       3.700   6.240  19.125  0.00  0.00    +0.000 A 
ATOM      3  C   UNL     1       2.462   6.556  19.689  0.00  0.00    +0.000 A 
ATOM      4  C   UNL     1       1.781   5.580  20.419  0.00  0.00    +0.000 A 
ATOM      5  C   UNL     1       2.308   4.289  20.531  0.00  0.00    +0.000 A 
ATOM      6  C   UNL     1       3.531   3.964  19.931  0.00  0.00    +0.000 A 
ATOM      7 BR   UNL     1       4.101   2.160  20.094  0.00  0.00    +0.000 Br
ENDROOT
BRANCH   1  12
ATOM      8  N   UNL     1       7.952   4.347  17.138  0.00  0.00    +0.000 N 
ATOM      9  C   UNL     1       6.760   4.383  16.504  0.00  0.00    +0.000 C 
ATOM     10  O   UNL     1       6.679   4.365  15.282  0.00  0.00    +0.000 OA
ATOM     11  N   UNL     1       5.646   4.445  17.295  0.00  0.00    +0.000 N 
ATOM     12  C   UNL     1       5.593   4.713  18.654  0.00  0.00    +0.000 C 
ATOM     13  O   UNL     1       6.586   4.800  19.374  0.00  0.00    +0.000 OA
ATOM     14  H   UNL     1       8.797   4.412  16.590  0.00  0.00    +0.000 HD
ATOM     15  H   UNL     1       7.990   4.564  18.130  0.00  0.00    +0.000 HD
ATOM     16  H   UNL     1       4.795   4.438  16.748  0.00  0.00    +0.000 HD
ENDBRANCH   1  12
BRANCH   3  17
ATOM     17  N   UNL     1       1.876   7.833  19.572  0.00  0.00    +0.000 N 
ATOM     18  C   UNL     1       1.368   8.593  20.617  0.00  0.00    +0.000 C 
ATOM     19  O   UNL     1       1.382   8.270  21.802  0.00  0.00    +0.000 OA
ATOM     20  H   UNL     1       1.990   8.311  18.683  0.00  0.00    +0.000 HD
BRANCH  18  21
ATOM     21  C   UNL     1       0.719   9.886  20.180  0.00  0.00    +0.000 C 
ATOM     22 BR   UNL     1       0.604   9.905  18.243  0.00  0.00    +0.000 Br
ENDBRANCH  18  21
ENDBRANCH   3  17
TORSDOF 3
ENDMDL
MODEL 7
REMARK VINA RESULT:      -6.8      3.230      6.551
REMARK  Name = 
REMARK  3 active torsions:
REMARK  status: ('A' for Active; 'I' for Inactive)
REMARK    1  A    between atoms: C_5  and  C_7
REMARK    2  A    between atoms: C_9  and  N_10
REMARK    3  A    between atoms: C_11  and  C_13
REMARK                            x       y       z     vdW  Elec       q    Type
REMARK                         _______ _______ _______ _____ _____    ______ ____
ROOT
ATOM      1  C   UNL     1       3.172   5.088  18.009  0.00  0.00    +0.000 A 
ATOM      2  C   UNL     1       3.948   4.654  16.920  0.00  0.00    +0.000 A 
ATOM      3  C   UNL     1       4.756   5.542  16.206  0.00  0.00    +0.000 A 
ATOM      4  C   UNL     1       4.837   6.871  16.625  0.00  0.00    +0.000 A 
ATOM      5  C   UNL     1       4.073   7.316  17.709  0.00  0.00    +0.000 A 
ATOM      6  C   UNL     1       3.233   6.432  18.398  0.00  0.00    +0.000 A 
ATOM      7 BR   UNL     1       2.193   7.175  19.803  0.00  0.00    +0.000 Br
ENDROOT
BRANCH   1  12
ATOM      8  N   UNL     1       1.196   2.228  20.542  0.00  0.00    +0.000 N 
ATOM      9  C   UNL     1       2.371   2.803  20.876  0.00  0.00    +0.000 C 
ATOM     10  O   UNL     1       2.883   2.633  21.976  0.00  0.00    +0.000 OA
ATOM     11  N   UNL     1       2.960   3.591  19.926  0.00  0.00    +0.000 N 
ATOM     12  C   UNL     1       2.391   4.064  18.754  0.00  0.00    +0.000 C 
ATOM     13  O   UNL     1       1.289   3.711  18.337  0.00  0.00    +0.000 OA
ATOM     14  H   UNL     1       0.679   1.730  21.251  0.00  0.00    +0.000 HD
ATOM     15  H   UNL     1       0.709   2.548  19.709  0.00  0.00    +0.000 HD
ATOM     16  H   UNL     1       3.848   3.960  20.241  0.00  0.00    +0.000 HD
ENDBRANCH   1  12
BRANCH   3  17
ATOM     17  N   UNL     1       5.516   5.147  15.087  0.00  0.00    +0.000 N 
ATOM     18  C   UNL     1       6.863   4.804  15.098  0.00  0.00    +0.000 C 
ATOM     19  O   UNL     1       7.578   4.770  16.096  0.00  0.00    +0.000 OA
ATOM     20  H   UNL     1       5.004   4.926  14.238  0.00  0.00    +0.000 HD
BRANCH  18  21
ATOM     21  C   UNL     1       7.434   4.507  13.731  0.00  0.00    +0.000 C 
ATOM     22 BR   UNL     1       6.097   3.568  12.684  0.00  0.00    +0.000 Br
ENDBRANCH  18  21
ENDBRANCH   3  17
TORSDOF 3
ENDMDL
MODEL 8
REMARK VINA RESULT:      -6.8      1.410      1.628
REMARK  Name = 
REMARK  3 active torsions:
REMARK  status: ('A' for Active; 'I' for Inactive)
REMARK    1  A    between atoms: C_5  and  C_7
REMARK    2  A    between atoms: C_9  and  N_10
REMARK    3  A    between atoms: C_11  and  C_13
REMARK                            x       y       z     vdW  Elec       q    Type
REMARK                         _______ _______ _______ _____ _____    ______ ____
ROOT
ATOM      1  C   UNL     1       3.860   5.073  18.406  0.00  0.00    +0.000 A 
ATOM      2  C   UNL     1       3.397   6.368  18.698  0.00  0.00    +0.000 A 
ATOM      3  C   UNL     1       2.401   6.584  19.653  0.00  0.00    +0.000 A 
ATOM      4  C   UNL     1       1.904   5.496  20.372  0.00  0.00    +0.000 A 
ATOM      5  C   UNL     1       2.358   4.202  20.095  0.00  0.00    +0.000 A 
ATOM      6  C   UNL     1       3.328   3.984  19.108  0.00  0.00    +0.000 A 
ATOM      7 BR   UNL     1       3.806   2.175  18.777  0.00  0.00    +0.000 Br
ENDROOT
BRANCH   1  12
ATOM      8  N   UNL     1       7.332   4.517  15.929  0.00  0.00    +0.000 N 
ATOM      9  C   UNL     1       7.387   4.468  17.277  0.00  0.00    +0.000 C 
ATOM     10  O   UNL     1       8.410   4.144  17.870  0.00  0.00    +0.000 OA
ATOM     11  N   UNL     1       6.242   4.794  17.950  0.00  0.00    +0.000 N 
ATOM     12  C   UNL     1       4.968   4.939  17.423  0.00  0.00    +0.000 C 
ATOM     13  O   UNL     1       4.721   4.925  16.219  0.00  0.00    +0.000 OA
ATOM     14  H   UNL     1       8.120   4.179  15.397  0.00  0.00    +0.000 HD
ATOM     15  H   UNL     1       6.426   4.593  15.475  0.00  0.00    +0.000 HD
ATOM     16  H   UNL     1       6.373   4.763  18.953  0.00  0.00    +0.000 HD
ENDBRANCH   1  12
BRANCH   3  17
ATOM     17  N   UNL     1       1.889   7.865  19.941  0.00  0.00    +0.000 N 
ATOM     18  C   UNL     1       1.512   8.819  19.004  0.00  0.00    +0.000 C 
ATOM     19  O   UNL     1       1.547   8.670  17.785  0.00  0.00    +0.000 OA
ATOM     20  H   UNL     1       1.608   8.043  20.900  0.00  0.00    +0.000 HD
BRANCH  18  21
ATOM     21  C   UNL     1       1.080  10.137  19.605  0.00  0.00    +0.000 C 
ATOM     22 BR   UNL     1      -0.798  10.421  19.206  0.00  0.00    +0.000 Br
ENDBRANCH  18  21
ENDBRANCH   3  17
TORSDOF 3
ENDMDL
MODEL 9
REMARK VINA RESULT:      -6.7      2.807      3.586
REMARK  Name = 
REMARK  3 active torsions:
REMARK  status: ('A' for Active; 'I' for Inactive)
REMARK    1  A    between atoms: C_5  and  C_7
REMARK    2  A    between atoms: C_9  and  N_10
REMARK    3  A    between atoms: C_11  and  C_13
REMARK                            x       y       z     vdW  Elec       q    Type
REMARK                         _______ _______ _______ _____ _____    ______ ____
ROOT
ATOM      1  C   UNL     1       3.208   6.449  19.229  0.00  0.00    +0.000 A 
ATOM      2  C   UNL     1       2.269   6.857  20.192  0.00  0.00    +0.000 A 
ATOM      3  C   UNL     1       1.511   8.017  20.020  0.00  0.00    +0.000 A 
ATOM      4  C   UNL     1       1.648   8.747  18.839  0.00  0.00    +0.000 A 
ATOM      5  C   UNL     1       2.576   8.352  17.870  0.00  0.00    +0.000 A 
ATOM      6  C   UNL     1       3.364   7.210  18.063  0.00  0.00    +0.000 A 
ATOM      7 BR   UNL     1       4.637   6.821  16.708  0.00  0.00    +0.000 Br
ENDROOT
BRANCH   1  12
ATOM      8  N   UNL     1       4.928   2.529  19.648  0.00  0.00    +0.000 N 
ATOM      9  C   UNL     1       3.666   2.724  19.210  0.00  0.00    +0.000 C 
ATOM     10  O   UNL     1       2.978   1.801  18.792  0.00  0.00    +0.000 OA
ATOM     11  N   UNL     1       3.194   4.007  19.250  0.00  0.00    +0.000 N 
ATOM     12  C   UNL     1       3.926   5.167  19.460  0.00  0.00    +0.000 C 
ATOM     13  O   UNL     1       5.112   5.178  19.784  0.00  0.00    +0.000 OA
ATOM     14  H   UNL     1       5.348   1.618  19.532  0.00  0.00    +0.000 HD
ATOM     15  H   UNL     1       5.530   3.335  19.795  0.00  0.00    +0.000 HD
ATOM     16  H   UNL     1       2.235   4.066  18.934  0.00  0.00    +0.000 HD
ENDBRANCH   1  12
BRANCH   3  17
ATOM     17  N   UNL     1       0.589   8.473  20.985  0.00  0.00    +0.000 N 
ATOM     18  C   UNL     1       0.905   9.161  22.149  0.00  0.00    +0.000 C 
ATOM     19  O   UNL     1       2.037   9.495  22.491  0.00  0.00    +0.000 OA
ATOM     20  H   UNL     1      -0.393   8.453  20.728  0.00  0.00    +0.000 HD
BRANCH  18  21
ATOM     21  C   UNL     1      -0.282   9.446  23.039  0.00  0.00    +0.000 C 
ATOM     22 BR   UNL     1      -0.926  11.240  22.668  0.00  0.00    +0.000 Br
ENDBRANCH  18  21
ENDBRANCH   3  17
TORSDOF 3
ENDMDL
