MODEL 1
REMARK VINA RESULT:      -9.0      0.000      0.000
REMARK  Name = 
REMARK  7 active torsions:
REMARK  status: ('A' for Active; 'I' for Inactive)
REMARK    1  A    between atoms: C_1  and  N_2
REMARK    2  A    between atoms: N_2  and  C_3
REMARK    3  A    between atoms: N_2  and  C_18
REMARK    4  A    between atoms: C_3  and  C_4
REMARK    5  A    between atoms: C_5  and  C_6
REMARK    6  A    between atoms: C_9  and  C_10
REMARK    7  A    between atoms: C_18  and  C_19
REMARK                            x       y       z     vdW  Elec       q    Type
REMARK                         _______ _______ _______ _____ _____    ______ ____
ROOT
ATOM      1  C   UNL     1       4.610   6.776  17.829  0.00  0.00    +0.000 C 
ATOM      2  C   UNL     1       3.361   7.055  17.437  0.00  0.00    +0.000 C 
ENDROOT
BRANCH   2   3
ATOM      3  C   UNL     1       2.467   7.784  18.361  0.00  0.00    +0.000 A 
ATOM      4  C   UNL     1       1.809   8.953  17.931  0.00  0.00    +0.000 A 
ATOM      5  C   UNL     1       0.999   9.669  18.788  0.00  0.00    +0.000 A 
ATOM      6  C   UNL     1       0.836   9.260  20.120  0.00  0.00    +0.000 A 
ATOM      7  C   UNL     1       1.468   8.070  20.545  0.00  0.00    +0.000 A 
ATOM      8  C   UNL     1       2.257   7.323  19.663  0.00  0.00    +0.000 A 
BRANCH   6   9
ATOM      9  C   UNL     1       0.051  10.115  21.047  0.00  0.00    +0.000 A 
ATOM     10  C   UNL     1      -0.170   9.728  22.387  0.00  0.00    +0.000 A 
ATOM     11  C   UNL     1      -0.957  10.510  23.233  0.00  0.00    +0.000 A 
ATOM     12  C   UNL     1      -1.548  11.678  22.753  0.00  0.00    +0.000 A 
ATOM     13  C   UNL     1      -1.341  12.073  21.430  0.00  0.00    +0.000 A 
ATOM     14  C   UNL     1      -0.540  11.306  20.585  0.00  0.00    +0.000 A 
ENDBRANCH   6   9
ENDBRANCH   2   3
BRANCH   1  15
ATOM     15  C   UNL     1       5.664   6.215  16.942  0.00  0.00    +0.000 C 
BRANCH  15  17
ATOM     16  C   UNL     1       7.399   4.553  17.193  0.00  0.00    +0.000 C 
ATOM     17  N   UNL     1       5.976   4.848  17.404  0.00  0.00    +0.000 NA
BRANCH  17  18
ATOM     18  C   UNL     1       5.103   3.788  16.831  0.00  0.00    +0.000 C 
BRANCH  18  19
ATOM     19  C   UNL     1       3.933   3.560  17.733  0.00  0.00    +0.000 A 
ATOM     20  C   UNL     1       2.610   3.503  17.224  0.00  0.00    +0.000 A 
ATOM     21  C   UNL     1       1.532   3.233  18.086  0.00  0.00    +0.000 A 
ATOM     22  C   UNL     1       1.815   3.022  19.429  0.00  0.00    +0.000 A 
ATOM     23  C   UNL     1       3.074   3.092  19.922  0.00  0.00    +0.000 A 
ATOM     24  C   UNL     1       4.166   3.372  19.112  0.00  0.00    +0.000 A 
ATOM     25  O   UNL     1       3.058   2.836  21.225  0.00  0.00    +0.000 OA
ATOM     26  C   UNL     1       1.741   2.565  21.580  0.00  0.00    +0.000 C 
ATOM     27  O   UNL     1       0.981   2.711  20.421  0.00  0.00    +0.000 OA
ENDBRANCH  18  19
ENDBRANCH  17  18
ENDBRANCH  15  17
ENDBRANCH   1  15
TORSDOF 6
ENDMDL
MODEL 2
REMARK VINA RESULT:      -8.4      0.726      1.226
REMARK  Name = 
REMARK  7 active torsions:
REMARK  status: ('A' for Active; 'I' for Inactive)
REMARK    1  A    between atoms: C_1  and  N_2
REMARK    2  A    between atoms: N_2  and  C_3
REMARK    3  A    between atoms: N_2  and  C_18
REMARK    4  A    between atoms: C_3  and  C_4
REMARK    5  A    between atoms: C_5  and  C_6
REMARK    6  A    between atoms: C_9  and  C_10
REMARK    7  A    between atoms: C_18  and  C_19
REMARK                            x       y       z     vdW  Elec       q    Type
REMARK                         _______ _______ _______ _____ _____    ______ ____
ROOT
ATOM      1  C   UNL     1       4.312   6.999  16.907  0.00  0.00    +0.000 C 
ATOM      2  C   UNL     1       3.716   6.717  18.071  0.00  0.00    +0.000 C 
ENDROOT
BRANCH   2   3
ATOM      3  C   UNL     1       2.673   7.632  18.581  0.00  0.00    +0.000 A 
ATOM      4  C   UNL     1       2.156   8.645  17.751  0.00  0.00    +0.000 A 
ATOM      5  C   UNL     1       1.209   9.533  18.220  0.00  0.00    +0.000 A 
ATOM      6  C   UNL     1       0.762   9.461  19.548  0.00  0.00    +0.000 A 
ATOM      7  C   UNL     1       1.255   8.426  20.373  0.00  0.00    +0.000 A 
ATOM      8  C   UNL     1       2.185   7.502  19.884  0.00  0.00    +0.000 A 
BRANCH   6   9
ATOM      9  C   UNL     1      -0.170  10.501  20.054  0.00  0.00    +0.000 A 
ATOM     10  C   UNL     1      -1.086  11.143  19.193  0.00  0.00    +0.000 A 
ATOM     11  C   UNL     1      -1.916  12.160  19.667  0.00  0.00    +0.000 A 
ATOM     12  C   UNL     1      -1.834  12.562  20.999  0.00  0.00    +0.000 A 
ATOM     13  C   UNL     1      -0.931  11.940  21.863  0.00  0.00    +0.000 A 
ATOM     14  C   UNL     1      -0.112  10.910  21.400  0.00  0.00    +0.000 A 
ENDBRANCH   6   9
ENDBRANCH   2   3
BRANCH   1  15
ATOM     15  C   UNL     1       5.238   6.079  16.193  0.00  0.00    +0.000 C 
BRANCH  15  17
ATOM     16  C   UNL     1       7.021   4.770  17.165  0.00  0.00    +0.000 C 
ATOM     17  N   UNL     1       5.566   4.960  17.099  0.00  0.00    +0.000 NA
BRANCH  17  18
ATOM     18  C   UNL     1       4.858   3.689  16.792  0.00  0.00    +0.000 C 
BRANCH  18  19
ATOM     19  C   UNL     1       3.738   3.492  17.762  0.00  0.00    +0.000 A 
ATOM     20  C   UNL     1       2.384   3.512  17.339  0.00  0.00    +0.000 A 
ATOM     21  C   UNL     1       1.351   3.270  18.263  0.00  0.00    +0.000 A 
ATOM     22  C   UNL     1       1.709   3.006  19.578  0.00  0.00    +0.000 A 
ATOM     23  C   UNL     1       2.999   3.002  19.990  0.00  0.00    +0.000 A 
ATOM     24  C   UNL     1       4.049   3.252  19.118  0.00  0.00    +0.000 A 
ATOM     25  O   UNL     1       3.054   2.710  21.285  0.00  0.00    +0.000 OA
ATOM     26  C   UNL     1       1.750   2.492  21.718  0.00  0.00    +0.000 C 
ATOM     27  O   UNL     1       0.925   2.707  20.615  0.00  0.00    +0.000 OA
ENDBRANCH  18  19
ENDBRANCH  17  18
ENDBRANCH  15  17
ENDBRANCH   1  15
TORSDOF 6
ENDMDL
MODEL 3
REMARK VINA RESULT:      -8.4      0.784      1.161
REMARK  Name = 
REMARK  7 active torsions:
REMARK  status: ('A' for Active; 'I' for Inactive)
REMARK    1  A    between atoms: C_1  and  N_2
REMARK    2  A    between atoms: N_2  and  C_3
REMARK    3  A    between atoms: N_2  and  C_18
REMARK    4  A    between atoms: C_3  and  C_4
REMARK    5  A    between atoms: C_5  and  C_6
REMARK    6  A    between atoms: C_9  and  C_10
REMARK    7  A    between atoms: C_18  and  C_19
REMARK                            x       y       z     vdW  Elec       q    Type
REMARK                         _______ _______ _______ _____ _____    ______ ____
ROOT
ATOM      1  C   UNL     1       4.051   7.264  17.504  0.00  0.00    +0.000 C 
ATOM      2  C   UNL     1       2.857   6.933  18.008  0.00  0.00    +0.000 C 
ENDROOT
BRANCH   2   3
ATOM      3  C   UNL     1       2.117   7.929  18.811  0.00  0.00    +0.000 A 
ATOM      4  C   UNL     1       1.675   9.126  18.217  0.00  0.00    +0.000 A 
ATOM      5  C   UNL     1       1.015  10.086  18.959  0.00  0.00    +0.000 A 
ATOM      6  C   UNL     1       0.796   9.897  20.331  0.00  0.00    +0.000 A 
ATOM      7  C   UNL     1       1.209   8.683  20.923  0.00  0.00    +0.000 A 
ATOM      8  C   UNL     1       1.842   7.694  20.161  0.00  0.00    +0.000 A 
BRANCH   6   9
ATOM      9  C   UNL     1       0.187  10.997  21.123  0.00  0.00    +0.000 A 
ATOM     10  C   UNL     1       0.513  12.347  20.870  0.00  0.00    +0.000 A 
ATOM     11  C   UNL     1      -0.021  13.367  21.658  0.00  0.00    +0.000 A 
ATOM     12  C   UNL     1      -0.872  13.057  22.718  0.00  0.00    +0.000 A 
ATOM     13  C   UNL     1      -1.202  11.726  22.983  0.00  0.00    +0.000 A 
ATOM     14  C   UNL     1      -0.687  10.703  22.188  0.00  0.00    +0.000 A 
ENDBRANCH   6   9
ENDBRANCH   2   3
BRANCH   1  15
ATOM     15  C   UNL     1       4.815   6.433  16.535  0.00  0.00    +0.000 C 
BRANCH  15  17
ATOM     16  C   UNL     1       7.009   5.592  17.098  0.00  0.00    +0.000 C 
ATOM     17  N   UNL     1       5.565   5.411  17.294  0.00  0.00    +0.000 NA
BRANCH  17  18
ATOM     18  C   UNL     1       5.143   4.010  17.028  0.00  0.00    +0.000 C 
BRANCH  18  19
ATOM     19  C   UNL     1       3.951   3.677  17.867  0.00  0.00    +0.000 A 
ATOM     20  C   UNL     1       2.687   3.417  17.280  0.00  0.00    +0.000 A 
ATOM     21  C   UNL     1       1.594   3.052  18.087  0.00  0.00    +0.000 A 
ATOM     22  C   UNL     1       1.807   2.952  19.456  0.00  0.00    +0.000 A 
ATOM     23  C   UNL     1       3.008   3.215  20.022  0.00  0.00    +0.000 A 
ATOM     24  C   UNL     1       4.109   3.594  19.267  0.00  0.00    +0.000 A 
ATOM     25  O   UNL     1       2.934   3.029  21.335  0.00  0.00    +0.000 OA
ATOM     26  C   UNL     1       1.641   2.604  21.623  0.00  0.00    +0.000 C 
ATOM     27  O   UNL     1       0.952   2.585  20.411  0.00  0.00    +0.000 OA
ENDBRANCH  18  19
ENDBRANCH  17  18
ENDBRANCH  15  17
ENDBRANCH   1  15
TORSDOF 6
ENDMDL
MODEL 4
REMARK VINA RESULT:      -8.3      0.676      1.566
REMARK  Name = 
REMARK  7 active torsions:
REMARK  status: ('A' for Active; 'I' for Inactive)
REMARK    1  A    between atoms: C_1  and  N_2
REMARK    2  A    between atoms: N_2  and  C_3
REMARK    3  A    between atoms: N_2  and  C_18
REMARK    4  A    between atoms: C_3  and  C_4
REMARK    5  A    between atoms: C_5  and  C_6
REMARK    6  A    between atoms: C_9  and  C_10
REMARK    7  A    between atoms: C_18  and  C_19
REMARK                            x       y       z     vdW  Elec       q    Type
REMARK                         _______ _______ _______ _____ _____    ______ ____
ROOT
ATOM      1  C   UNL     1       4.580   6.729  17.634  0.00  0.00    +0.000 C 
ATOM      2  C   UNL     1       3.409   7.223  17.216  0.00  0.00    +0.000 C 
ENDROOT
BRANCH   2   3
ATOM      3  C   UNL     1       2.527   7.897  18.192  0.00  0.00    +0.000 A 
ATOM      4  C   UNL     1       1.872   9.094  17.842  0.00  0.00    +0.000 A 
ATOM      5  C   UNL     1       1.074   9.759  18.750  0.00  0.00    +0.000 A 
ATOM      6  C   UNL     1       0.921   9.269  20.055  0.00  0.00    +0.000 A 
ATOM      7  C   UNL     1       1.550   8.052  20.400  0.00  0.00    +0.000 A 
ATOM      8  C   UNL     1       2.327   7.357  19.465  0.00  0.00    +0.000 A 
BRANCH   6   9
ATOM      9  C   UNL     1       0.150  10.068  21.042  0.00  0.00    +0.000 A 
ATOM     10  C   UNL     1      -0.165  11.423  20.798  0.00  0.00    +0.000 A 
ATOM     11  C   UNL     1      -0.839  12.180  21.757  0.00  0.00    +0.000 A 
ATOM     12  C   UNL     1      -1.194  11.605  22.976  0.00  0.00    +0.000 A 
ATOM     13  C   UNL     1      -0.886  10.267  23.234  0.00  0.00    +0.000 A 
ATOM     14  C   UNL     1      -0.230   9.500  22.272  0.00  0.00    +0.000 A 
ENDBRANCH   6   9
ENDBRANCH   2   3
BRANCH   1  15
ATOM     15  C   UNL     1       5.636   6.193  16.733  0.00  0.00    +0.000 C 
BRANCH  15  17
ATOM     16  C   UNL     1       6.521   4.136  15.824  0.00  0.00    +0.000 C 
ATOM     17  N   UNL     1       5.609   4.718  16.818  0.00  0.00    +0.000 NA
BRANCH  17  18
ATOM     18  C   UNL     1       4.250   4.119  16.739  0.00  0.00    +0.000 C 
BRANCH  18  19
ATOM     19  C   UNL     1       3.858   3.584  18.078  0.00  0.00    +0.000 A 
ATOM     20  C   UNL     1       4.796   2.920  18.910  0.00  0.00    +0.000 A 
ATOM     21  C   UNL     1       4.416   2.475  20.189  0.00  0.00    +0.000 A 
ATOM     22  C   UNL     1       3.110   2.717  20.595  0.00  0.00    +0.000 A 
ATOM     23  C   UNL     1       2.207   3.335  19.798  0.00  0.00    +0.000 A 
ATOM     24  C   UNL     1       2.533   3.777  18.524  0.00  0.00    +0.000 A 
ATOM     25  O   UNL     1       1.049   3.448  20.439  0.00  0.00    +0.000 OA
ATOM     26  C   UNL     1       1.220   2.904  21.707  0.00  0.00    +0.000 C 
ATOM     27  O   UNL     1       2.531   2.434  21.763  0.00  0.00    +0.000 OA
ENDBRANCH  18  19
ENDBRANCH  17  18
ENDBRANCH  15  17
ENDBRANCH   1  15
TORSDOF 6
ENDMDL
MODEL 5
REMARK VINA RESULT:      -8.2      0.895      1.735
REMARK  Name = 
REMARK  7 active torsions:
REMARK  status: ('A' for Active; 'I' for Inactive)
REMARK    1  A    between atoms: C_1  and  N_2
REMARK    2  A    between atoms: N_2  and  C_3
REMARK    3  A    between atoms: N_2  and  C_18
REMARK    4  A    between atoms: C_3  and  C_4
REMARK    5  A    between atoms: C_5  and  C_6
REMARK    6  A    between atoms: C_9  and  C_10
REMARK    7  A    between atoms: C_18  and  C_19
REMARK                            x       y       z     vdW  Elec       q    Type
REMARK                         _______ _______ _______ _____ _____    ______ ____
ROOT
ATOM      1  C   UNL     1       4.148   7.411  17.145  0.00  0.00    +0.000 C 
ATOM      2  C   UNL     1       3.194   6.932  17.953  0.00  0.00    +0.000 C 
ENDROOT
BRANCH   2   3
ATOM      3  C   UNL     1       2.382   7.881  18.743  0.00  0.00    +0.000 A 
ATOM      4  C   UNL     1       2.018   7.568  20.067  0.00  0.00    +0.000 A 
ATOM      5  C   UNL     1       1.229   8.423  20.809  0.00  0.00    +0.000 A 
ATOM      6  C   UNL     1       0.748   9.614  20.246  0.00  0.00    +0.000 A 
ATOM      7  C   UNL     1       1.138   9.948  18.930  0.00  0.00    +0.000 A 
ATOM      8  C   UNL     1       1.971   9.098  18.193  0.00  0.00    +0.000 A 
BRANCH   6   9
ATOM      9  C   UNL     1      -0.192  10.456  21.031  0.00  0.00    +0.000 A 
ATOM     10  C   UNL     1      -0.382  10.244  22.414  0.00  0.00    +0.000 A 
ATOM     11  C   UNL     1      -1.310  11.002  23.129  0.00  0.00    +0.000 A 
ATOM     12  C   UNL     1      -2.072  11.968  22.474  0.00  0.00    +0.000 A 
ATOM     13  C   UNL     1      -1.899  12.187  21.106  0.00  0.00    +0.000 A 
ATOM     14  C   UNL     1      -0.960  11.446  20.390  0.00  0.00    +0.000 A 
ENDBRANCH   6   9
ENDBRANCH   2   3
BRANCH   1  15
ATOM     15  C   UNL     1       4.910   6.590  16.166  0.00  0.00    +0.000 C 
BRANCH  15  17
ATOM     16  C   UNL     1       7.178   5.969  16.722  0.00  0.00    +0.000 C 
ATOM     17  N   UNL     1       5.759   5.645  16.918  0.00  0.00    +0.000 NA
BRANCH  17  18
ATOM     18  C   UNL     1       5.478   4.210  16.645  0.00  0.00    +0.000 C 
BRANCH  18  19
ATOM     19  C   UNL     1       4.489   3.693  17.639  0.00  0.00    +0.000 A 
ATOM     20  C   UNL     1       4.836   3.523  19.003  0.00  0.00    +0.000 A 
ATOM     21  C   UNL     1       3.870   3.087  19.929  0.00  0.00    +0.000 A 
ATOM     22  C   UNL     1       2.587   2.843  19.458  0.00  0.00    +0.000 A 
ATOM     23  C   UNL     1       2.256   2.988  18.153  0.00  0.00    +0.000 A 
ATOM     24  C   UNL     1       3.179   3.400  17.202  0.00  0.00    +0.000 A 
ATOM     25  O   UNL     1       0.969   2.705  17.984  0.00  0.00    +0.000 OA
ATOM     26  C   UNL     1       0.445   2.390  19.233  0.00  0.00    +0.000 C 
ATOM     27  O   UNL     1       1.503   2.469  20.138  0.00  0.00    +0.000 OA
ENDBRANCH  18  19
ENDBRANCH  17  18
ENDBRANCH  15  17
ENDBRANCH   1  15
TORSDOF 6
ENDMDL
MODEL 6
REMARK VINA RESULT:      -8.1      2.609      4.245
REMARK  Name = 
REMARK  7 active torsions:
REMARK  status: ('A' for Active; 'I' for Inactive)
REMARK    1  A    between atoms: C_1  and  N_2
REMARK    2  A    between atoms: N_2  and  C_3
REMARK    3  A    between atoms: N_2  and  C_18
REMARK    4  A    between atoms: C_3  and  C_4
REMARK    5  A    between atoms: C_5  and  C_6
REMARK    6  A    between atoms: C_9  and  C_10
REMARK    7  A    between atoms: C_18  and  C_19
REMARK                            x       y       z     vdW  Elec       q    Type
REMARK                         _______ _______ _______ _____ _____    ______ ____
ROOT
ATOM      1  C   UNL     1       1.776   5.130  20.135  0.00  0.00    +0.000 C 
ATOM      2  C   UNL     1       2.589   6.185  20.008  0.00  0.00    +0.000 C 
ENDROOT
BRANCH   2   3
ATOM      3  C   UNL     1       1.998   7.530  19.842  0.00  0.00    +0.000 A 
ATOM      4  C   UNL     1       2.115   8.205  18.612  0.00  0.00    +0.000 A 
ATOM      5  C   UNL     1       1.602   9.476  18.448  0.00  0.00    +0.000 A 
ATOM      6  C   UNL     1       0.976  10.134  19.517  0.00  0.00    +0.000 A 
ATOM      7  C   UNL     1       0.828   9.447  20.742  0.00  0.00    +0.000 A 
ATOM      8  C   UNL     1       1.313   8.142  20.894  0.00  0.00    +0.000 A 
BRANCH   6   9
ATOM      9  C   UNL     1       0.539  11.543  19.342  0.00  0.00    +0.000 A 
ATOM     10  C   UNL     1      -0.762  11.955  19.707  0.00  0.00    +0.000 A 
ATOM     11  C   UNL     1      -1.181  13.267  19.484  0.00  0.00    +0.000 A 
ATOM     12  C   UNL     1      -0.319  14.181  18.881  0.00  0.00    +0.000 A 
ATOM     13  C   UNL     1       0.969  13.789  18.512  0.00  0.00    +0.000 A 
ATOM     14  C   UNL     1       1.401  12.484  18.749  0.00  0.00    +0.000 A 
ENDBRANCH   6   9
ENDBRANCH   2   3
BRANCH   1  15
ATOM     15  C   UNL     1       2.229   3.758  20.488  0.00  0.00    +0.000 C 
BRANCH  15  17
ATOM     16  C   UNL     1       2.149   1.852  19.004  0.00  0.00    +0.000 C 
ATOM     17  N   UNL     1       2.805   3.137  19.277  0.00  0.00    +0.000 NA
BRANCH  17  18
ATOM     18  C   UNL     1       4.287   3.007  19.296  0.00  0.00    +0.000 C 
BRANCH  18  19
ATOM     19  C   UNL     1       4.897   4.105  18.485  0.00  0.00    +0.000 A 
ATOM     20  C   UNL     1       4.333   4.508  17.248  0.00  0.00    +0.000 A 
ATOM     21  C   UNL     1       4.895   5.581  16.531  0.00  0.00    +0.000 A 
ATOM     22  C   UNL     1       5.998   6.219  17.082  0.00  0.00    +0.000 A 
ATOM     23  C   UNL     1       6.549   5.827  18.256  0.00  0.00    +0.000 A 
ATOM     24  C   UNL     1       6.039   4.765  18.988  0.00  0.00    +0.000 A 
ATOM     25  O   UNL     1       7.577   6.615  18.552  0.00  0.00    +0.000 OA
ATOM     26  C   UNL     1       7.675   7.568  17.544  0.00  0.00    +0.000 C 
ATOM     27  O   UNL     1       6.672   7.273  16.622  0.00  0.00    +0.000 OA
ENDBRANCH  18  19
ENDBRANCH  17  18
ENDBRANCH  15  17
ENDBRANCH   1  15
TORSDOF 6
ENDMDL
MODEL 7
REMARK VINA RESULT:      -7.9      2.762      4.404
REMARK  Name = 
REMARK  7 active torsions:
REMARK  status: ('A' for Active; 'I' for Inactive)
REMARK    1  A    between atoms: C_1  and  N_2
REMARK    2  A    between atoms: N_2  and  C_3
REMARK    3  A    between atoms: N_2  and  C_18
REMARK    4  A    between atoms: C_3  and  C_4
REMARK    5  A    between atoms: C_5  and  C_6
REMARK    6  A    between atoms: C_9  and  C_10
REMARK    7  A    between atoms: C_18  and  C_19
REMARK                            x       y       z     vdW  Elec       q    Type
REMARK                         _______ _______ _______ _____ _____    ______ ____
ROOT
ATOM      1  C   UNL     1       2.048   4.738  18.867  0.00  0.00    +0.000 C 
ATOM      2  C   UNL     1       2.553   5.679  19.674  0.00  0.00    +0.000 C 
ENDROOT
BRANCH   2   3
ATOM      3  C   UNL     1       2.136   7.084  19.485  0.00  0.00    +0.000 A 
ATOM      4  C   UNL     1       1.560   7.799  20.552  0.00  0.00    +0.000 A 
ATOM      5  C   UNL     1       1.130   9.101  20.386  0.00  0.00    +0.000 A 
ATOM      6  C   UNL     1       1.234   9.729  19.137  0.00  0.00    +0.000 A 
ATOM      7  C   UNL     1       1.841   9.026  18.073  0.00  0.00    +0.000 A 
ATOM      8  C   UNL     1       2.313   7.721  18.254  0.00  0.00    +0.000 A 
BRANCH   6   9
ATOM      9  C   UNL     1       0.658  11.087  18.961  0.00  0.00    +0.000 A 
ATOM     10  C   UNL     1      -0.739  11.285  18.893  0.00  0.00    +0.000 A 
ATOM     11  C   UNL     1      -1.267  12.557  18.670  0.00  0.00    +0.000 A 
ATOM     12  C   UNL     1      -0.413  13.645  18.495  0.00  0.00    +0.000 A 
ATOM     13  C   UNL     1       0.970  13.466  18.556  0.00  0.00    +0.000 A 
ATOM     14  C   UNL     1       1.504  12.201  18.798  0.00  0.00    +0.000 A 
ENDBRANCH   6   9
ENDBRANCH   2   3
BRANCH   1  15
ATOM     15  C   UNL     1       2.237   3.275  19.060  0.00  0.00    +0.000 C 
BRANCH  15  17
ATOM     16  C   UNL     1       3.449   1.440  18.059  0.00  0.00    +0.000 C 
ATOM     17  N   UNL     1       3.479   2.876  18.367  0.00  0.00    +0.000 NA
BRANCH  17  18
ATOM     18  C   UNL     1       4.731   3.264  19.070  0.00  0.00    +0.000 C 
BRANCH  18  19
ATOM     19  C   UNL     1       5.378   4.404  18.351  0.00  0.00    +0.000 A 
ATOM     20  C   UNL     1       4.932   4.814  17.068  0.00  0.00    +0.000 A 
ATOM     21  C   UNL     1       5.521   5.925  16.437  0.00  0.00    +0.000 A 
ATOM     22  C   UNL     1       6.532   6.592  17.115  0.00  0.00    +0.000 A 
ATOM     23  C   UNL     1       6.972   6.193  18.332  0.00  0.00    +0.000 A 
ATOM     24  C   UNL     1       6.432   5.095  18.985  0.00  0.00    +0.000 A 
ATOM     25  O   UNL     1       7.929   7.014  18.752  0.00  0.00    +0.000 OA
ATOM     26  C   UNL     1       8.094   7.994  17.779  0.00  0.00    +0.000 C 
ATOM     27  O   UNL     1       7.207   7.683  16.750  0.00  0.00    +0.000 OA
ENDBRANCH  18  19
ENDBRANCH  17  18
ENDBRANCH  15  17
ENDBRANCH   1  15
TORSDOF 6
ENDMDL
MODEL 8
REMARK VINA RESULT:      -7.8      0.922      1.516
REMARK  Name = 
REMARK  7 active torsions:
REMARK  status: ('A' for Active; 'I' for Inactive)
REMARK    1  A    between atoms: C_1  and  N_2
REMARK    2  A    between atoms: N_2  and  C_3
REMARK    3  A    between atoms: N_2  and  C_18
REMARK    4  A    between atoms: C_3  and  C_4
REMARK    5  A    between atoms: C_5  and  C_6
REMARK    6  A    between atoms: C_9  and  C_10
REMARK    7  A    between atoms: C_18  and  C_19
REMARK                            x       y       z     vdW  Elec       q    Type
REMARK                         _______ _______ _______ _____ _____    ______ ____
ROOT
ATOM      1  C   UNL     1       4.416   7.015  16.493  0.00  0.00    +0.000 C 
ATOM      2  C   UNL     1       4.003   6.718  17.731  0.00  0.00    +0.000 C 
ENDROOT
BRANCH   2   3
ATOM      3  C   UNL     1       2.967   7.562  18.362  0.00  0.00    +0.000 A 
ATOM      4  C   UNL     1       2.484   8.704  17.694  0.00  0.00    +0.000 A 
ATOM      5  C   UNL     1       1.544   9.526  18.282  0.00  0.00    +0.000 A 
ATOM      6  C   UNL     1       1.069   9.254  19.573  0.00  0.00    +0.000 A 
ATOM      7  C   UNL     1       1.527   8.092  20.232  0.00  0.00    +0.000 A 
ATOM      8  C   UNL     1       2.451   7.237  19.618  0.00  0.00    +0.000 A 
BRANCH   6   9
ATOM      9  C   UNL     1       0.146  10.220  20.222  0.00  0.00    +0.000 A 
ATOM     10  C   UNL     1       0.035  10.293  21.628  0.00  0.00    +0.000 A 
ATOM     11  C   UNL     1      -0.878  11.164  22.225  0.00  0.00    +0.000 A 
ATOM     12  C   UNL     1      -1.703  11.960  21.432  0.00  0.00    +0.000 A 
ATOM     13  C   UNL     1      -1.608  11.897  20.041  0.00  0.00    +0.000 A 
ATOM     14  C   UNL     1      -0.684  11.043  19.438  0.00  0.00    +0.000 A 
ENDBRANCH   6   9
ENDBRANCH   2   3
BRANCH   1  15
ATOM     15  C   UNL     1       5.310   6.152  15.675  0.00  0.00    +0.000 C 
BRANCH  15  17
ATOM     16  C   UNL     1       7.235   4.913  16.451  0.00  0.00    +0.000 C 
ATOM     17  N   UNL     1       5.773   5.034  16.523  0.00  0.00    +0.000 NA
BRANCH  17  18
ATOM     18  C   UNL     1       5.099   3.735  16.254  0.00  0.00    +0.000 C 
BRANCH  18  19
ATOM     19  C   UNL     1       4.222   3.376  17.410  0.00  0.00    +0.000 A 
ATOM     20  C   UNL     1       4.743   3.273  18.726  0.00  0.00    +0.000 A 
ATOM     21  C   UNL     1       3.886   2.987  19.805  0.00  0.00    +0.000 A 
ATOM     22  C   UNL     1       2.535   2.822  19.531  0.00  0.00    +0.000 A 
ATOM     23  C   UNL     1       2.036   2.903  18.274  0.00  0.00    +0.000 A 
ATOM     24  C   UNL     1       2.846   3.166  17.179  0.00  0.00    +0.000 A 
ATOM     25  O   UNL     1       0.721   2.719  18.303  0.00  0.00    +0.000 OA
ATOM     26  C   UNL     1       0.355   2.539  19.632  0.00  0.00    +0.000 C 
ATOM     27  O   UNL     1       1.532   2.591  20.378  0.00  0.00    +0.000 OA
ENDBRANCH  18  19
ENDBRANCH  17  18
ENDBRANCH  15  17
ENDBRANCH   1  15
TORSDOF 6
ENDMDL
MODEL 9
REMARK VINA RESULT:      -7.8      7.325     10.637
REMARK  Name = 
REMARK  7 active torsions:
REMARK  status: ('A' for Active; 'I' for Inactive)
REMARK    1  A    between atoms: C_1  and  N_2
REMARK    2  A    between atoms: N_2  and  C_3
REMARK    3  A    between atoms: N_2  and  C_18
REMARK    4  A    between atoms: C_3  and  C_4
REMARK    5  A    between atoms: C_5  and  C_6
REMARK    6  A    between atoms: C_9  and  C_10
REMARK    7  A    between atoms: C_18  and  C_19
REMARK                            x       y       z     vdW  Elec       q    Type
REMARK                         _______ _______ _______ _____ _____    ______ ____
ROOT
ATOM      1  C   UNL     1       8.655   9.340  18.629  0.00  0.00    +0.000 C 
ATOM      2  C   UNL     1       8.099   8.779  17.548  0.00  0.00    +0.000 C 
ENDROOT
BRANCH   2   3
ATOM      3  C   UNL     1       7.333   7.525  17.705  0.00  0.00    +0.000 A 
ATOM      4  C   UNL     1       6.097   7.366  17.050  0.00  0.00    +0.000 A 
ATOM      5  C   UNL     1       5.348   6.218  17.213  0.00  0.00    +0.000 A 
ATOM      6  C   UNL     1       5.794   5.193  18.061  0.00  0.00    +0.000 A 
ATOM      7  C   UNL     1       7.049   5.335  18.694  0.00  0.00    +0.000 A 
ATOM      8  C   UNL     1       7.825   6.483  18.495  0.00  0.00    +0.000 A 
BRANCH   6   9
ATOM      9  C   UNL     1       4.913   4.022  18.304  0.00  0.00    +0.000 A 
ATOM     10  C   UNL     1       4.154   3.449  17.261  0.00  0.00    +0.000 A 
ATOM     11  C   UNL     1       3.286   2.387  17.513  0.00  0.00    +0.000 A 
ATOM     12  C   UNL     1       3.148   1.892  18.809  0.00  0.00    +0.000 A 
ATOM     13  C   UNL     1       3.888   2.450  19.853  0.00  0.00    +0.000 A 
ATOM     14  C   UNL     1       4.773   3.499  19.604  0.00  0.00    +0.000 A 
ENDBRANCH   6   9
ENDBRANCH   2   3
BRANCH   1  15
ATOM     15  C   UNL     1       9.291  10.684  18.645  0.00  0.00    +0.000 C 
BRANCH  15  17
ATOM     16  C   UNL     1       9.101  11.585  20.879  0.00  0.00    +0.000 C 
ATOM     17  N   UNL     1       9.970  10.857  19.945  0.00  0.00    +0.000 NA
BRANCH  17  18
ATOM     18  C   UNL     1      11.323  11.470  19.860  0.00  0.00    +0.000 C 
BRANCH  18  19
ATOM     19  C   UNL     1      11.295  12.616  18.901  0.00  0.00    +0.000 A 
ATOM     20  C   UNL     1      11.542  12.425  17.517  0.00  0.00    +0.000 A 
ATOM     21  C   UNL     1      11.456  13.512  16.627  0.00  0.00    +0.000 A 
ATOM     22  C   UNL     1      11.118  14.752  17.153  0.00  0.00    +0.000 A 
ATOM     23  C   UNL     1      10.898  14.942  18.475  0.00  0.00    +0.000 A 
ATOM     24  C   UNL     1      10.988  13.903  19.391  0.00  0.00    +0.000 A 
ATOM     25  O   UNL     1      10.580  16.212  18.698  0.00  0.00    +0.000 OA
ATOM     26  C   UNL     1      10.570  16.860  17.467  0.00  0.00    +0.000 C 
ATOM     27  O   UNL     1      10.934  15.909  16.516  0.00  0.00    +0.000 OA
ENDBRANCH  18  19
ENDBRANCH  17  18
ENDBRANCH  15  17
ENDBRANCH   1  15
TORSDOF 6
ENDMDL
