MODEL 1
REMARK VINA RESULT:      -8.0      0.000      0.000
REMARK  Name = 
REMARK  6 active torsions:
REMARK  status: ('A' for Active; 'I' for Inactive)
REMARK    1  A    between atoms: C_1  and  C_2
REMARK    2  A    between atoms: C_8  and  N_9
REMARK    3  A    between atoms: C_13  and  C_15
REMARK    4  A    between atoms: C_15  and  C_16
REMARK    5  A    between atoms: C_16  and  S_17
REMARK    6  A    between atoms: S_17  and  C_20
REMARK                            x       y       z     vdW  Elec       q    Type
REMARK                         _______ _______ _______ _____ _____    ______ ____
ROOT
ATOM      1  N   UNL     1       0.370  10.192  19.593  0.00  0.00    +0.000 N 
ATOM      2  C   UNL     1       0.830   9.632  18.308  0.00  0.00    +0.000 C 
ATOM      3  C   UNL     1       2.116   8.805  18.540  0.00  0.00    +0.000 C 
ATOM      4  N   UNL     1       1.958   7.828  19.635  0.00  0.00    +0.000 N 
ATOM      5  C   UNL     1       2.309   6.491  19.592  0.00  0.00    +0.000 C 
ATOM      6  O   UNL     1       2.186   5.742  20.557  0.00  0.00    +0.000 OA
ATOM      7  C   UNL     1       1.409   8.393  20.878  0.00  0.00    +0.000 C 
ATOM      8  C   UNL     1       0.090   9.139  20.593  0.00  0.00    +0.000 C 
ENDROOT
BRANCH   1  16
ATOM      9  C   UNL     1       1.779  12.445  20.827  0.00  0.00    +0.000 C 
ATOM     10  C   UNL     1       0.363  12.509  20.315  0.00  0.00    +0.000 A 
ATOM     11  C   UNL     1      -0.295  13.738  20.410  0.00  0.00    +0.000 A 
ATOM     12  N   UNL     1      -1.520  13.993  19.917  0.00  0.00    +0.000 NA
ATOM     13  C   UNL     1      -2.128  12.958  19.303  0.00  0.00    +0.000 A 
ATOM     14  C   UNL     1      -1.586  11.678  19.175  0.00  0.00    +0.000 A 
ATOM     15 CL   UNL     1      -2.609  10.500  18.425  0.00  0.00    +0.000 Cl
ATOM     16  C   UNL     1      -0.299  11.412  19.694  0.00  0.00    +0.000 A 
ENDBRANCH   1  16
BRANCH   5  17
ATOM     17  C   UNL     1       2.838   5.975  18.271  0.00  0.00    +0.000 C 
BRANCH  17  18
ATOM     18  C   UNL     1       2.448   4.522  18.037  0.00  0.00    +0.000 C 
BRANCH  18  19
ATOM     19  S   UNL     1       3.810   3.469  18.470  0.00  0.00    +0.000 S 
ATOM     20  O   UNL     1       3.704   3.210  19.895  0.00  0.00    +0.000 OA
ATOM     21  O   UNL     1       3.860   2.363  17.532  0.00  0.00    +0.000 OA
BRANCH  19  22
ATOM     22  C   UNL     1       5.281   4.434  18.215  0.00  0.00    +0.000 A 
ATOM     23  C   UNL     1       5.913   4.976  19.352  0.00  0.00    +0.000 A 
ATOM     24  C   UNL     1       7.082   5.717  19.243  0.00  0.00    +0.000 A 
ATOM     25  C   UNL     1       7.653   5.941  17.989  0.00  0.00    +0.000 A 
ATOM     26  C   UNL     1       7.050   5.408  16.834  0.00  0.00    +0.000 A 
ATOM     27  N   UNL     1       7.530   5.570  15.544  0.00  0.00    +0.000 NA
ATOM     28  C   UNL     1       6.752   4.936  14.701  0.00  0.00    +0.000 A 
ATOM     29  S   UNL     1       5.419   4.113  15.378  0.00  0.00    +0.000 S 
ATOM     30  C   UNL     1       5.875   4.652  16.957  0.00  0.00    +0.000 A 
ENDBRANCH  19  22
ENDBRANCH  18  19
ENDBRANCH  17  18
ENDBRANCH   5  17
TORSDOF 5
ENDMDL
MODEL 2
REMARK VINA RESULT:      -7.7      0.942      1.741
REMARK  Name = 
REMARK  6 active torsions:
REMARK  status: ('A' for Active; 'I' for Inactive)
REMARK    1  A    between atoms: C_1  and  C_2
REMARK    2  A    between atoms: C_8  and  N_9
REMARK    3  A    between atoms: C_13  and  C_15
REMARK    4  A    between atoms: C_15  and  C_16
REMARK    5  A    between atoms: C_16  and  S_17
REMARK    6  A    between atoms: S_17  and  C_20
REMARK                            x       y       z     vdW  Elec       q    Type
REMARK                         _______ _______ _______ _____ _____    ______ ____
ROOT
ATOM      1  N   UNL     1       0.512  10.004  19.473  0.00  0.00    +0.000 N 
ATOM      2  C   UNL     1       0.951   9.340  18.231  0.00  0.00    +0.000 C 
ATOM      3  C   UNL     1       2.196   8.471  18.526  0.00  0.00    +0.000 C 
ATOM      4  N   UNL     1       1.988   7.577  19.682  0.00  0.00    +0.000 N 
ATOM      5  C   UNL     1       2.278   6.226  19.729  0.00  0.00    +0.000 C 
ATOM      6  O   UNL     1       2.116   5.548  20.741  0.00  0.00    +0.000 OA
ATOM      7  C   UNL     1       1.461   8.247  20.881  0.00  0.00    +0.000 C 
ATOM      8  C   UNL     1       0.179   9.033  20.538  0.00  0.00    +0.000 C 
ENDROOT
BRANCH   1  16
ATOM      9  C   UNL     1       2.012  12.263  20.582  0.00  0.00    +0.000 C 
ATOM     10  C   UNL     1       0.606  12.359  20.048  0.00  0.00    +0.000 A 
ATOM     11  C   UNL     1       0.005  13.621  20.058  0.00  0.00    +0.000 A 
ATOM     12  N   UNL     1      -1.202  13.900  19.534  0.00  0.00    +0.000 NA
ATOM     13  C   UNL     1      -1.851  12.857  18.979  0.00  0.00    +0.000 A 
ATOM     14  C   UNL     1      -1.369  11.549  18.937  0.00  0.00    +0.000 A 
ATOM     15 CL   UNL     1      -2.438  10.374  18.250  0.00  0.00    +0.000 Cl
ATOM     16  C   UNL     1      -0.100  11.257  19.489  0.00  0.00    +0.000 A 
ENDBRANCH   1  16
BRANCH   5  17
ATOM     17  C   UNL     1       2.787   5.600  18.449  0.00  0.00    +0.000 C 
BRANCH  17  18
ATOM     18  C   UNL     1       2.474   4.112  18.385  0.00  0.00    +0.000 C 
BRANCH  18  19
ATOM     19  S   UNL     1       3.990   3.192  18.312  0.00  0.00    +0.000 S 
ATOM     20  O   UNL     1       4.632   3.337  19.607  0.00  0.00    +0.000 OA
ATOM     21  O   UNL     1       3.709   1.870  17.785  0.00  0.00    +0.000 OA
BRANCH  19  22
ATOM     22  C   UNL     1       5.014   4.021  17.118  0.00  0.00    +0.000 A 
ATOM     23  C   UNL     1       4.793   3.736  15.756  0.00  0.00    +0.000 A 
ATOM     24  C   UNL     1       5.529   4.363  14.759  0.00  0.00    +0.000 A 
ATOM     25  C   UNL     1       6.512   5.294  15.098  0.00  0.00    +0.000 A 
ATOM     26  C   UNL     1       6.753   5.607  16.449  0.00  0.00    +0.000 A 
ATOM     27  N   UNL     1       7.703   6.512  16.895  0.00  0.00    +0.000 NA
ATOM     28  C   UNL     1       7.661   6.588  18.203  0.00  0.00    +0.000 A 
ATOM     29  S   UNL     1       6.502   5.602  18.978  0.00  0.00    +0.000 S 
ATOM     30  C   UNL     1       5.996   4.975  17.447  0.00  0.00    +0.000 A 
ENDBRANCH  19  22
ENDBRANCH  18  19
ENDBRANCH  17  18
ENDBRANCH   5  17
TORSDOF 5
ENDMDL
MODEL 3
REMARK VINA RESULT:      -7.6      4.399      9.736
REMARK  Name = 
REMARK  6 active torsions:
REMARK  status: ('A' for Active; 'I' for Inactive)
REMARK    1  A    between atoms: C_1  and  C_2
REMARK    2  A    between atoms: C_8  and  N_9
REMARK    3  A    between atoms: C_13  and  C_15
REMARK    4  A    between atoms: C_15  and  C_16
REMARK    5  A    between atoms: C_16  and  S_17
REMARK    6  A    between atoms: S_17  and  C_20
REMARK                            x       y       z     vdW  Elec       q    Type
REMARK                         _______ _______ _______ _____ _____    ______ ____
ROOT
ATOM      1  N   UNL     1       4.092   6.299  17.974  0.00  0.00    +0.000 N 
ATOM      2  C   UNL     1       3.671   7.668  17.618  0.00  0.00    +0.000 C 
ATOM      3  C   UNL     1       2.221   7.901  18.104  0.00  0.00    +0.000 C 
ATOM      4  N   UNL     1       2.046   7.534  19.523  0.00  0.00    +0.000 N 
ATOM      5  C   UNL     1       1.426   8.301  20.492  0.00  0.00    +0.000 C 
ATOM      6  O   UNL     1       1.280   7.915  21.649  0.00  0.00    +0.000 OA
ATOM      7  C   UNL     1       2.559   6.200  19.873  0.00  0.00    +0.000 C 
ATOM      8  C   UNL     1       4.029   6.056  19.431  0.00  0.00    +0.000 C 
ENDROOT
BRANCH   1  16
ATOM      9  C   UNL     1       3.191   3.728  16.897  0.00  0.00    +0.000 C 
ATOM     10  C   UNL     1       4.574   4.293  16.697  0.00  0.00    +0.000 A 
ATOM     11  C   UNL     1       5.461   3.546  15.916  0.00  0.00    +0.000 A 
ATOM     12  N   UNL     1       6.694   3.948  15.561  0.00  0.00    +0.000 NA
ATOM     13  C   UNL     1       7.068   5.159  16.021  0.00  0.00    +0.000 A 
ATOM     14  C   UNL     1       6.284   5.980  16.832  0.00  0.00    +0.000 A 
ATOM     15 CL   UNL     1       7.032   7.447  17.364  0.00  0.00    +0.000 Cl
ATOM     16  C   UNL     1       4.989   5.556  17.205  0.00  0.00    +0.000 A 
ENDBRANCH   1  16
BRANCH   5  17
ATOM     17  C   UNL     1       0.952   9.674  20.066  0.00  0.00    +0.000 C 
BRANCH  17  18
ATOM     18  C   UNL     1      -0.567   9.758  20.026  0.00  0.00    +0.000 C 
BRANCH  18  19
ATOM     19  S   UNL     1      -1.054  11.388  19.518  0.00  0.00    +0.000 S 
ATOM     20  O   UNL     1      -1.764  11.982  20.637  0.00  0.00    +0.000 OA
ATOM     21  O   UNL     1       0.097  12.061  18.947  0.00  0.00    +0.000 OA
BRANCH  19  22
ATOM     22  C   UNL     1      -2.231  11.164  18.204  0.00  0.00    +0.000 A 
ATOM     23  C   UNL     1      -1.806  10.463  17.057  0.00  0.00    +0.000 A 
ATOM     24  C   UNL     1      -2.672  10.220  15.999  0.00  0.00    +0.000 A 
ATOM     25  C   UNL     1      -3.990  10.674  16.057  0.00  0.00    +0.000 A 
ATOM     26  C   UNL     1      -4.448  11.372  17.191  0.00  0.00    +0.000 A 
ATOM     27  N   UNL     1      -5.732  11.866  17.351  0.00  0.00    +0.000 NA
ATOM     28  C   UNL     1      -5.840  12.445  18.522  0.00  0.00    +0.000 A 
ATOM     29  S   UNL     1      -4.440  12.436  19.498  0.00  0.00    +0.000 S 
ATOM     30  C   UNL     1      -3.568  11.603  18.258  0.00  0.00    +0.000 A 
ENDBRANCH  19  22
ENDBRANCH  18  19
ENDBRANCH  17  18
ENDBRANCH   5  17
TORSDOF 5
ENDMDL
MODEL 4
REMARK VINA RESULT:      -7.6      1.068      1.648
REMARK  Name = 
REMARK  6 active torsions:
REMARK  status: ('A' for Active; 'I' for Inactive)
REMARK    1  A    between atoms: C_1  and  C_2
REMARK    2  A    between atoms: C_8  and  N_9
REMARK    3  A    between atoms: C_13  and  C_15
REMARK    4  A    between atoms: C_15  and  C_16
REMARK    5  A    between atoms: C_16  and  S_17
REMARK    6  A    between atoms: S_17  and  C_20
REMARK                            x       y       z     vdW  Elec       q    Type
REMARK                         _______ _______ _______ _____ _____    ______ ____
ROOT
ATOM      1  N   UNL     1       0.171  10.155  19.513  0.00  0.00    +0.000 N 
ATOM      2  C   UNL     1       0.617   9.579  18.230  0.00  0.00    +0.000 C 
ATOM      3  C   UNL     1       1.962   8.843  18.437  0.00  0.00    +0.000 C 
ATOM      4  N   UNL     1       1.908   7.898  19.570  0.00  0.00    +0.000 N 
ATOM      5  C   UNL     1       2.344   6.586  19.558  0.00  0.00    +0.000 C 
ATOM      6  O   UNL     1       2.305   5.866  20.552  0.00  0.00    +0.000 OA
ATOM      7  C   UNL     1       1.372   8.472  20.815  0.00  0.00    +0.000 C 
ATOM      8  C   UNL     1      -0.002   9.123  20.558  0.00  0.00    +0.000 C 
ENDROOT
BRANCH   1  16
ATOM      9  C   UNL     1      -2.507  10.195  18.326  0.00  0.00    +0.000 C 
ATOM     10  C   UNL     1      -1.863  11.376  19.005  0.00  0.00    +0.000 A 
ATOM     11  C   UNL     1      -2.619  12.549  19.097  0.00  0.00    +0.000 A 
ATOM     12  N   UNL     1      -2.234  13.658  19.752  0.00  0.00    +0.000 NA
ATOM     13  C   UNL     1      -1.022  13.599  20.339  0.00  0.00    +0.000 A 
ATOM     14  C   UNL     1      -0.166  12.499  20.289  0.00  0.00    +0.000 A 
ATOM     15 CL   UNL     1       1.376  12.710  21.046  0.00  0.00    +0.000 Cl
ATOM     16  C   UNL     1      -0.571  11.333  19.600  0.00  0.00    +0.000 A 
ENDBRANCH   1  16
BRANCH   5  17
ATOM     17  C   UNL     1       2.853   6.056  18.235  0.00  0.00    +0.000 C 
BRANCH  17  18
ATOM     18  C   UNL     1       2.413   4.619  17.995  0.00  0.00    +0.000 C 
BRANCH  18  19
ATOM     19  S   UNL     1       3.753   3.519  18.382  0.00  0.00    +0.000 S 
ATOM     20  O   UNL     1       3.647   3.210  19.797  0.00  0.00    +0.000 OA
ATOM     21  O   UNL     1       3.774   2.449  17.403  0.00  0.00    +0.000 OA
BRANCH  19  22
ATOM     22  C   UNL     1       5.244   4.461  18.157  0.00  0.00    +0.000 A 
ATOM     23  C   UNL     1       5.870   4.981  19.307  0.00  0.00    +0.000 A 
ATOM     24  C   UNL     1       7.053   5.702  19.221  0.00  0.00    +0.000 A 
ATOM     25  C   UNL     1       7.645   5.927  17.977  0.00  0.00    +0.000 A 
ATOM     26  C   UNL     1       7.050   5.414  16.809  0.00  0.00    +0.000 A 
ATOM     27  N   UNL     1       7.551   5.578  15.528  0.00  0.00    +0.000 NA
ATOM     28  C   UNL     1       6.775   4.965  14.668  0.00  0.00    +0.000 A 
ATOM     29  S   UNL     1       5.417   4.161  15.319  0.00  0.00    +0.000 S 
ATOM     30  C   UNL     1       5.860   4.678  16.909  0.00  0.00    +0.000 A 
ENDBRANCH  19  22
ENDBRANCH  18  19
ENDBRANCH  17  18
ENDBRANCH   5  17
TORSDOF 5
ENDMDL
MODEL 5
REMARK VINA RESULT:      -7.5      1.433      2.385
REMARK  Name = 
REMARK  6 active torsions:
REMARK  status: ('A' for Active; 'I' for Inactive)
REMARK    1  A    between atoms: C_1  and  C_2
REMARK    2  A    between atoms: C_8  and  N_9
REMARK    3  A    between atoms: C_13  and  C_15
REMARK    4  A    between atoms: C_15  and  C_16
REMARK    5  A    between atoms: C_16  and  S_17
REMARK    6  A    between atoms: S_17  and  C_20
REMARK                            x       y       z     vdW  Elec       q    Type
REMARK                         _______ _______ _______ _____ _____    ______ ____
ROOT
ATOM      1  N   UNL     1       0.652  10.102  19.436  0.00  0.00    +0.000 N 
ATOM      2  C   UNL     1       1.017   9.425  18.177  0.00  0.00    +0.000 C 
ATOM      3  C   UNL     1       2.247   8.518  18.419  0.00  0.00    +0.000 C 
ATOM      4  N   UNL     1       2.062   7.630  19.583  0.00  0.00    +0.000 N 
ATOM      5  C   UNL     1       2.312   6.271  19.618  0.00  0.00    +0.000 C 
ATOM      6  O   UNL     1       2.172   5.598  20.636  0.00  0.00    +0.000 OA
ATOM      7  C   UNL     1       1.607   8.315  20.803  0.00  0.00    +0.000 C 
ATOM      8  C   UNL     1       0.337   9.140  20.515  0.00  0.00    +0.000 C 
ENDROOT
BRANCH   1  16
ATOM      9  C   UNL     1      -2.074  10.426  18.415  0.00  0.00    +0.000 C 
ATOM     10  C   UNL     1      -1.234  11.552  18.962  0.00  0.00    +0.000 A 
ATOM     11  C   UNL     1      -1.820  12.820  19.009  0.00  0.00    +0.000 A 
ATOM     12  N   UNL     1      -1.248  13.908  19.553  0.00  0.00    +0.000 NA
ATOM     13  C   UNL     1      -0.015  13.724  20.068  0.00  0.00    +0.000 A 
ATOM     14  C   UNL     1       0.683  12.517  20.050  0.00  0.00    +0.000 A 
ATOM     15 CL   UNL     1       2.289  12.566  20.693  0.00  0.00    +0.000 Cl
ATOM     16  C   UNL     1       0.080  11.373  19.478  0.00  0.00    +0.000 A 
ENDBRANCH   1  16
BRANCH   5  17
ATOM     17  C   UNL     1       2.746   5.630  18.318  0.00  0.00    +0.000 C 
BRANCH  17  18
ATOM     18  C   UNL     1       2.435   4.141  18.291  0.00  0.00    +0.000 C 
BRANCH  18  19
ATOM     19  S   UNL     1       3.953   3.220  18.278  0.00  0.00    +0.000 S 
ATOM     20  O   UNL     1       4.563   3.397  19.584  0.00  0.00    +0.000 OA
ATOM     21  O   UNL     1       3.685   1.887  17.775  0.00  0.00    +0.000 OA
BRANCH  19  22
ATOM     22  C   UNL     1       5.006   4.022  17.090  0.00  0.00    +0.000 A 
ATOM     23  C   UNL     1       4.807   3.718  15.728  0.00  0.00    +0.000 A 
ATOM     24  C   UNL     1       5.567   4.323  14.736  0.00  0.00    +0.000 A 
ATOM     25  C   UNL     1       6.552   5.250  15.078  0.00  0.00    +0.000 A 
ATOM     26  C   UNL     1       6.772   5.581  16.429  0.00  0.00    +0.000 A 
ATOM     27  N   UNL     1       7.721   6.485  16.878  0.00  0.00    +0.000 NA
ATOM     28  C   UNL     1       7.656   6.581  18.183  0.00  0.00    +0.000 A 
ATOM     29  S   UNL     1       6.474   5.618  18.952  0.00  0.00    +0.000 S 
ATOM     30  C   UNL     1       5.991   4.972  17.422  0.00  0.00    +0.000 A 
ENDBRANCH  19  22
ENDBRANCH  18  19
ENDBRANCH  17  18
ENDBRANCH   5  17
TORSDOF 5
ENDMDL
MODEL 6
REMARK VINA RESULT:      -7.5      1.374      1.728
REMARK  Name = 
REMARK  6 active torsions:
REMARK  status: ('A' for Active; 'I' for Inactive)
REMARK    1  A    between atoms: C_1  and  C_2
REMARK    2  A    between atoms: C_8  and  N_9
REMARK    3  A    between atoms: C_13  and  C_15
REMARK    4  A    between atoms: C_15  and  C_16
REMARK    5  A    between atoms: C_16  and  S_17
REMARK    6  A    between atoms: S_17  and  C_20
REMARK                            x       y       z     vdW  Elec       q    Type
REMARK                         _______ _______ _______ _____ _____    ______ ____
ROOT
ATOM      1  N   UNL     1       1.053  10.374  18.940  0.00  0.00    +0.000 N 
ATOM      2  C   UNL     1       1.443   9.638  17.723  0.00  0.00    +0.000 C 
ATOM      3  C   UNL     1       2.566   8.631  18.070  0.00  0.00    +0.000 C 
ATOM      4  N   UNL     1       2.219   7.791  19.233  0.00  0.00    +0.000 N 
ATOM      5  C   UNL     1       2.342   6.416  19.310  0.00  0.00    +0.000 C 
ATOM      6  O   UNL     1       2.071   5.783  20.327  0.00  0.00    +0.000 OA
ATOM      7  C   UNL     1       1.743   8.544  20.404  0.00  0.00    +0.000 C 
ATOM      8  C   UNL     1       0.576   9.471  20.011  0.00  0.00    +0.000 C 
ENDROOT
BRANCH   1  16
ATOM      9  C   UNL     1      -1.793  10.862  19.436  0.00  0.00    +0.000 C 
ATOM     10  C   UNL     1      -0.788  11.943  19.131  0.00  0.00    +0.000 A 
ATOM     11  C   UNL     1      -1.253  13.261  19.122  0.00  0.00    +0.000 A 
ATOM     12  N   UNL     1      -0.475  14.346  18.963  0.00  0.00    +0.000 NA
ATOM     13  C   UNL     1       0.840  14.102  18.793  0.00  0.00    +0.000 A 
ATOM     14  C   UNL     1       1.415  12.832  18.751  0.00  0.00    +0.000 A 
ATOM     15 CL   UNL     1       3.115  12.786  18.427  0.00  0.00    +0.000 Cl
ATOM     16  C   UNL     1       0.596  11.692  18.918  0.00  0.00    +0.000 A 
ENDBRANCH   1  16
BRANCH   5  17
ATOM     17  C   UNL     1       2.808   5.709  18.057  0.00  0.00    +0.000 C 
BRANCH  17  18
ATOM     18  C   UNL     1       2.429   4.235  18.067  0.00  0.00    +0.000 C 
BRANCH  18  19
ATOM     19  S   UNL     1       3.846   3.265  18.521  0.00  0.00    +0.000 S 
ATOM     20  O   UNL     1       3.757   3.036  19.952  0.00  0.00    +0.000 OA
ATOM     21  O   UNL     1       3.952   2.141  17.610  0.00  0.00    +0.000 OA
BRANCH  19  22
ATOM     22  C   UNL     1       5.263   4.300  18.238  0.00  0.00    +0.000 A 
ATOM     23  C   UNL     1       5.878   4.889  19.360  0.00  0.00    +0.000 A 
ATOM     24  C   UNL     1       7.007   5.687  19.228  0.00  0.00    +0.000 A 
ATOM     25  C   UNL     1       7.553   5.921  17.966  0.00  0.00    +0.000 A 
ATOM     26  C   UNL     1       6.967   5.341  16.824  0.00  0.00    +0.000 A 
ATOM     27  N   UNL     1       7.427   5.508  15.528  0.00  0.00    +0.000 NA
ATOM     28  C   UNL     1       6.675   4.823  14.701  0.00  0.00    +0.000 A 
ATOM     29  S   UNL     1       5.391   3.944  15.404  0.00  0.00    +0.000 S 
ATOM     30  C   UNL     1       5.834   4.529  16.970  0.00  0.00    +0.000 A 
ENDBRANCH  19  22
ENDBRANCH  18  19
ENDBRANCH  17  18
ENDBRANCH   5  17
TORSDOF 5
ENDMDL
MODEL 7
REMARK VINA RESULT:      -7.4      4.124      9.966
REMARK  Name = 
REMARK  6 active torsions:
REMARK  status: ('A' for Active; 'I' for Inactive)
REMARK    1  A    between atoms: C_1  and  C_2
REMARK    2  A    between atoms: C_8  and  N_9
REMARK    3  A    between atoms: C_13  and  C_15
REMARK    4  A    between atoms: C_15  and  C_16
REMARK    5  A    between atoms: C_16  and  S_17
REMARK    6  A    between atoms: S_17  and  C_20
REMARK                            x       y       z     vdW  Elec       q    Type
REMARK                         _______ _______ _______ _____ _____    ______ ____
ROOT
ATOM      1  N   UNL     1       3.985   6.336  17.998  0.00  0.00    +0.000 N 
ATOM      2  C   UNL     1       3.674   7.737  17.655  0.00  0.00    +0.000 C 
ATOM      3  C   UNL     1       2.218   8.056  18.068  0.00  0.00    +0.000 C 
ATOM      4  N   UNL     1       1.940   7.670  19.466  0.00  0.00    +0.000 N 
ATOM      5  C   UNL     1       1.319   8.456  20.419  0.00  0.00    +0.000 C 
ATOM      6  O   UNL     1       1.084   8.055  21.556  0.00  0.00    +0.000 OA
ATOM      7  C   UNL     1       2.345   6.298  19.809  0.00  0.00    +0.000 C 
ATOM      8  C   UNL     1       3.825   6.066  19.443  0.00  0.00    +0.000 C 
ENDROOT
BRANCH   1  16
ATOM      9  C   UNL     1       3.048   3.740  17.014  0.00  0.00    +0.000 C 
ATOM     10  C   UNL     1       4.440   4.277  16.798  0.00  0.00    +0.000 A 
ATOM     11  C   UNL     1       5.317   3.489  16.048  0.00  0.00    +0.000 A 
ATOM     12  N   UNL     1       6.557   3.859  15.682  0.00  0.00    +0.000 NA
ATOM     13  C   UNL     1       6.948   5.080  16.098  0.00  0.00    +0.000 A 
ATOM     14  C   UNL     1       6.175   5.942  16.876  0.00  0.00    +0.000 A 
ATOM     15 CL   UNL     1       6.943   7.417  17.356  0.00  0.00    +0.000 Cl
ATOM     16  C   UNL     1       4.872   5.552  17.260  0.00  0.00    +0.000 A 
ENDBRANCH   1  16
BRANCH   5  17
ATOM     17  C   UNL     1       0.960   9.866  20.003  0.00  0.00    +0.000 C 
BRANCH  17  18
ATOM     18  C   UNL     1      -0.546  10.084  19.990  0.00  0.00    +0.000 C 
BRANCH  18  19
ATOM     19  S   UNL     1      -1.011  10.899  18.483  0.00  0.00    +0.000 S 
ATOM     20  O   UNL     1      -0.230  12.121  18.408  0.00  0.00    +0.000 OA
ATOM     21  O   UNL     1      -0.962   9.937  17.398  0.00  0.00    +0.000 OA
BRANCH  19  22
ATOM     22  C   UNL     1      -2.713  11.371  18.683  0.00  0.00    +0.000 A 
ATOM     23  C   UNL     1      -3.662  10.783  17.822  0.00  0.00    +0.000 A 
ATOM     24  C   UNL     1      -5.015  11.076  17.932  0.00  0.00    +0.000 A 
ATOM     25  C   UNL     1      -5.459  11.970  18.907  0.00  0.00    +0.000 A 
ATOM     26  C   UNL     1      -4.538  12.570  19.787  0.00  0.00    +0.000 A 
ATOM     27  N   UNL     1      -4.871  13.469  20.787  0.00  0.00    +0.000 NA
ATOM     28  C   UNL     1      -3.790  13.824  21.439  0.00  0.00    +0.000 A 
ATOM     29  S   UNL     1      -2.327  13.117  20.914  0.00  0.00    +0.000 S 
ATOM     30  C   UNL     1      -3.175  12.259  19.674  0.00  0.00    +0.000 A 
ENDBRANCH  19  22
ENDBRANCH  18  19
ENDBRANCH  17  18
ENDBRANCH   5  17
TORSDOF 5
ENDMDL
MODEL 8
REMARK VINA RESULT:      -7.3      4.235      9.834
REMARK  Name = 
REMARK  6 active torsions:
REMARK  status: ('A' for Active; 'I' for Inactive)
REMARK    1  A    between atoms: C_1  and  C_2
REMARK    2  A    between atoms: C_8  and  N_9
REMARK    3  A    between atoms: C_13  and  C_15
REMARK    4  A    between atoms: C_15  and  C_16
REMARK    5  A    between atoms: C_16  and  S_17
REMARK    6  A    between atoms: S_17  and  C_20
REMARK                            x       y       z     vdW  Elec       q    Type
REMARK                         _______ _______ _______ _____ _____    ______ ____
ROOT
ATOM      1  N   UNL     1       3.762   6.387  18.054  0.00  0.00    +0.000 N 
ATOM      2  C   UNL     1       3.497   7.791  17.686  0.00  0.00    +0.000 C 
ATOM      3  C   UNL     1       2.072   8.182  18.144  0.00  0.00    +0.000 C 
ATOM      4  N   UNL     1       1.832   7.843  19.560  0.00  0.00    +0.000 N 
ATOM      5  C   UNL     1       1.281   8.678  20.515  0.00  0.00    +0.000 C 
ATOM      6  O   UNL     1       1.072   8.316  21.670  0.00  0.00    +0.000 OA
ATOM      7  C   UNL     1       2.192   6.464  19.924  0.00  0.00    +0.000 C 
ATOM      8  C   UNL     1       3.646   6.160  19.511  0.00  0.00    +0.000 C 
ENDROOT
BRANCH   1  16
ATOM      9  C   UNL     1       2.692   3.796  17.203  0.00  0.00    +0.000 C 
ATOM     10  C   UNL     1       4.090   4.275  16.906  0.00  0.00    +0.000 A 
ATOM     11  C   UNL     1       4.905   3.431  16.146  0.00  0.00    +0.000 A 
ATOM     12  N   UNL     1       6.139   3.744  15.713  0.00  0.00    +0.000 NA
ATOM     13  C   UNL     1       6.590   4.964  16.068  0.00  0.00    +0.000 A 
ATOM     14  C   UNL     1       5.883   5.878  16.850  0.00  0.00    +0.000 A 
ATOM     15 CL   UNL     1       6.723   7.339  17.244  0.00  0.00    +0.000 Cl
ATOM     16  C   UNL     1       4.587   5.547  17.305  0.00  0.00    +0.000 A 
ENDBRANCH   1  16
BRANCH   5  17
ATOM     17  C   UNL     1       0.966  10.091  20.075  0.00  0.00    +0.000 C 
BRANCH  17  18
ATOM     18  C   UNL     1      -0.523  10.286  19.828  0.00  0.00    +0.000 C 
BRANCH  18  19
ATOM     19  S   UNL     1      -0.925  12.010  19.970  0.00  0.00    +0.000 S 
ATOM     20  O   UNL     1      -0.625  12.399  21.337  0.00  0.00    +0.000 OA
ATOM     21  O   UNL     1      -0.319  12.722  18.862  0.00  0.00    +0.000 OA
BRANCH  19  22
ATOM     22  C   UNL     1      -2.687  12.124  19.762  0.00  0.00    +0.000 A 
ATOM     23  C   UNL     1      -3.442  12.626  20.841  0.00  0.00    +0.000 A 
ATOM     24  C   UNL     1      -4.820  12.774  20.750  0.00  0.00    +0.000 A 
ATOM     25  C   UNL     1      -5.484  12.422  19.574  0.00  0.00    +0.000 A 
ATOM     26  C   UNL     1      -4.758  11.925  18.475  0.00  0.00    +0.000 A 
ATOM     27  N   UNL     1      -5.315  11.546  17.264  0.00  0.00    +0.000 NA
ATOM     28  C   UNL     1      -4.370  11.148  16.448  0.00  0.00    +0.000 A 
ATOM     29  S   UNL     1      -2.776  11.201  17.058  0.00  0.00    +0.000 S 
ATOM     30  C   UNL     1      -3.365  11.789  18.575  0.00  0.00    +0.000 A 
ENDBRANCH  19  22
ENDBRANCH  18  19
ENDBRANCH  17  18
ENDBRANCH   5  17
TORSDOF 5
ENDMDL
MODEL 9
REMARK VINA RESULT:      -7.2      4.905     10.551
REMARK  Name = 
REMARK  6 active torsions:
REMARK  status: ('A' for Active; 'I' for Inactive)
REMARK    1  A    between atoms: C_1  and  C_2
REMARK    2  A    between atoms: C_8  and  N_9
REMARK    3  A    between atoms: C_13  and  C_15
REMARK    4  A    between atoms: C_15  and  C_16
REMARK    5  A    between atoms: C_16  and  S_17
REMARK    6  A    between atoms: S_17  and  C_20
REMARK                            x       y       z     vdW  Elec       q    Type
REMARK                         _______ _______ _______ _____ _____    ______ ____
ROOT
ATOM      1  N   UNL     1       2.440   6.052  19.615  0.00  0.00    +0.000 N 
ATOM      2  C   UNL     1       1.611   6.519  20.743  0.00  0.00    +0.000 C 
ATOM      3  C   UNL     1       1.764   8.051  20.892  0.00  0.00    +0.000 C 
ATOM      4  N   UNL     1       1.549   8.758  19.614  0.00  0.00    +0.000 N 
ATOM      5  C   UNL     1       0.746   9.867  19.422  0.00  0.00    +0.000 C 
ATOM      6  O   UNL     1       0.644  10.430  18.335  0.00  0.00    +0.000 OA
ATOM      7  C   UNL     1       2.317   8.214  18.483  0.00  0.00    +0.000 C 
ATOM      8  C   UNL     1       2.063   6.699  18.339  0.00  0.00    +0.000 C 
ENDROOT
BRANCH   1  16
ATOM      9  C   UNL     1       0.752   3.711  20.121  0.00  0.00    +0.000 C 
ATOM     10  C   UNL     1       2.233   3.646  19.850  0.00  0.00    +0.000 A 
ATOM     11  C   UNL     1       2.818   2.377  19.807  0.00  0.00    +0.000 A 
ATOM     12  N   UNL     1       4.101   2.135  19.484  0.00  0.00    +0.000 NA
ATOM     13  C   UNL     1       4.846   3.223  19.200  0.00  0.00    +0.000 A 
ATOM     14  C   UNL     1       4.383   4.538  19.241  0.00  0.00    +0.000 A 
ATOM     15 CL   UNL     1       5.565   5.762  18.923  0.00  0.00    +0.000 Cl
ATOM     16  C   UNL     1       3.035   4.791  19.581  0.00  0.00    +0.000 A 
ENDBRANCH   1  16
BRANCH   5  17
ATOM     17  C   UNL     1      -0.036  10.351  20.623  0.00  0.00    +0.000 C 
BRANCH  17  18
ATOM     18  C   UNL     1       0.036  11.864  20.771  0.00  0.00    +0.000 C 
BRANCH  18  19
ATOM     19  S   UNL     1      -0.908  12.364  22.189  0.00  0.00    +0.000 S 
ATOM     20  O   UNL     1      -0.861  11.262  23.134  0.00  0.00    +0.000 OA
ATOM     21  O   UNL     1      -0.475  13.687  22.594  0.00  0.00    +0.000 OA
BRANCH  19  22
ATOM     22  C   UNL     1      -2.590  12.513  21.634  0.00  0.00    +0.000 A 
ATOM     23  C   UNL     1      -2.826  12.486  20.245  0.00  0.00    +0.000 A 
ATOM     24  C   UNL     1      -4.113  12.567  19.730  0.00  0.00    +0.000 A 
ATOM     25  C   UNL     1      -5.204  12.681  20.593  0.00  0.00    +0.000 A 
ATOM     26  C   UNL     1      -5.004  12.704  21.986  0.00  0.00    +0.000 A 
ATOM     27  N   UNL     1      -6.013  12.814  22.929  0.00  0.00    +0.000 NA
ATOM     28  C   UNL     1      -5.497  12.786  24.134  0.00  0.00    +0.000 A 
ATOM     29  S   UNL     1      -3.799  12.624  24.222  0.00  0.00    +0.000 S 
ATOM     30  C   UNL     1      -3.700  12.610  22.495  0.00  0.00    +0.000 A 
ENDBRANCH  19  22
ENDBRANCH  18  19
ENDBRANCH  17  18
ENDBRANCH   5  17
TORSDOF 5
ENDMDL
