MODEL 1
REMARK VINA RESULT:      -7.9      0.000      0.000
REMARK  Name = 
REMARK  3 active torsions:
REMARK  status: ('A' for Active; 'I' for Inactive)
REMARK    1  A    between atoms: C_1  and  C_2
REMARK    2  A    between atoms: C_7  and  C_8
REMARK    3  A    between atoms: C_12  and  C_13
REMARK                            x       y       z     vdW  Elec       q    Type
REMARK                         _______ _______ _______ _____ _____    ______ ____
ROOT
ATOM      1  C   UNL     1       4.807   6.517  16.337  0.00  0.00    +0.000 C 
ATOM      2  C   UNL     1       3.908   6.335  17.536  0.00  0.00    +0.000 A 
ATOM      3  C   UNL     1       3.787   5.112  18.279  0.00  0.00    +0.000 A 
ATOM      4  C   UNL     1       4.549   3.981  17.905  0.00  0.00    +0.000 A 
ATOM      5  C   UNL     1       4.490   2.800  18.621  0.00  0.00    +0.000 A 
ATOM      6  N   UNL     1       3.699   2.628  19.675  0.00  0.00    +0.000 NA
ATOM      7  C   UNL     1       2.898   3.684  20.018  0.00  0.00    +0.000 A 
ATOM      8  C   UNL     1       2.914   4.996  19.412  0.00  0.00    +0.000 A 
ATOM      9  C   UNL     1       2.195   6.187  19.829  0.00  0.00    +0.000 A 
ATOM     10  C   UNL     1       1.352   6.245  21.074  0.00  0.00    +0.000 C 
ATOM     11  C   UNL     1       2.291   7.390  19.067  0.00  0.00    +0.000 A 
ATOM     12  C   UNL     1       3.136   7.429  17.970  0.00  0.00    +0.000 A 
ATOM     13  N   UNL     1       3.065   8.710  17.451  0.00  0.00    +0.000 N 
ATOM     14  C   UNL     1       2.205   9.501  18.171  0.00  0.00    +0.000 A 
ATOM     15  C   UNL     1       1.847  10.849  18.004  0.00  0.00    +0.000 A 
ATOM     16  C   UNL     1       0.928  11.398  18.904  0.00  0.00    +0.000 A 
ATOM     17  C   UNL     1       0.381  10.627  19.922  0.00  0.00    +0.000 A 
ATOM     18  C   UNL     1       0.746   9.286  20.064  0.00  0.00    +0.000 A 
ATOM     19  C   UNL     1       1.687   8.700  19.185  0.00  0.00    +0.000 A 
ATOM     20  H   UNL     1       3.586   9.031  16.649  0.00  0.00    +0.000 HD
ENDROOT
BRANCH   7  21
ATOM     21  C   UNL     1       1.924   3.228  21.076  0.00  0.00    +0.000 C 
ATOM     22  N   UNL     1       0.652   2.954  20.628  0.00  0.00    +0.000 N 
ATOM     23  O   UNL     1       2.191   3.168  22.268  0.00  0.00    +0.000 OA
ATOM     24  H   UNL     1       0.381   3.332  19.729  0.00  0.00    +0.000 HD
ATOM     25  H   UNL     1      -0.063   2.826  21.331  0.00  0.00    +0.000 HD
ENDBRANCH   7  21
TORSDOF 1
ENDMDL
MODEL 2
REMARK VINA RESULT:      -7.5      2.446      4.081
REMARK  Name = 
REMARK  3 active torsions:
REMARK  status: ('A' for Active; 'I' for Inactive)
REMARK    1  A    between atoms: C_1  and  C_2
REMARK    2  A    between atoms: C_7  and  C_8
REMARK    3  A    between atoms: C_12  and  C_13
REMARK                            x       y       z     vdW  Elec       q    Type
REMARK                         _______ _______ _______ _____ _____    ______ ____
ROOT
ATOM      1  C   UNL     1       1.973   3.994  21.202  0.00  0.00    +0.000 C 
ATOM      2  C   UNL     1       2.390   5.076  20.236  0.00  0.00    +0.000 A 
ATOM      3  C   UNL     1       3.306   4.880  19.147  0.00  0.00    +0.000 A 
ATOM      4  C   UNL     1       3.870   3.603  18.921  0.00  0.00    +0.000 A 
ATOM      5  C   UNL     1       4.722   3.366  17.858  0.00  0.00    +0.000 A 
ATOM      6  N   UNL     1       5.099   4.312  17.005  0.00  0.00    +0.000 NA
ATOM      7  C   UNL     1       4.624   5.574  17.240  0.00  0.00    +0.000 A 
ATOM      8  C   UNL     1       3.668   5.947  18.259  0.00  0.00    +0.000 A 
ATOM      9  C   UNL     1       3.024   7.233  18.458  0.00  0.00    +0.000 A 
ATOM     10  C   UNL     1       3.207   8.399  17.524  0.00  0.00    +0.000 C 
ATOM     11  C   UNL     1       2.142   7.433  19.562  0.00  0.00    +0.000 A 
ATOM     12  C   UNL     1       1.850   6.366  20.396  0.00  0.00    +0.000 A 
ATOM     13  N   UNL     1       0.952   6.827  21.342  0.00  0.00    +0.000 N 
ATOM     14  C   UNL     1       0.651   8.153  21.152  0.00  0.00    +0.000 A 
ATOM     15  C   UNL     1      -0.209   9.005  21.863  0.00  0.00    +0.000 A 
ATOM     16  C   UNL     1      -0.315  10.333  21.434  0.00  0.00    +0.000 A 
ATOM     17  C   UNL     1       0.418  10.791  20.348  0.00  0.00    +0.000 A 
ATOM     18  C   UNL     1       1.274   9.926  19.661  0.00  0.00    +0.000 A 
ATOM     19  C   UNL     1       1.394   8.572  20.052  0.00  0.00    +0.000 A 
ATOM     20  H   UNL     1       0.556   6.261  22.077  0.00  0.00    +0.000 HD
ENDROOT
BRANCH   7  21
ATOM     21  C   UNL     1       5.332   6.537  16.319  0.00  0.00    +0.000 C 
ATOM     22  N   UNL     1       6.424   7.177  16.861  0.00  0.00    +0.000 N 
ATOM     23  O   UNL     1       4.946   6.811  15.192  0.00  0.00    +0.000 OA
ATOM     24  H   UNL     1       6.506   7.188  17.870  0.00  0.00    +0.000 HD
ATOM     25  H   UNL     1       6.803   7.955  16.340  0.00  0.00    +0.000 HD
ENDBRANCH   7  21
TORSDOF 1
ENDMDL
MODEL 3
REMARK VINA RESULT:      -7.1      2.545      6.162
REMARK  Name = 
REMARK  3 active torsions:
REMARK  status: ('A' for Active; 'I' for Inactive)
REMARK    1  A    between atoms: C_1  and  C_2
REMARK    2  A    between atoms: C_7  and  C_8
REMARK    3  A    between atoms: C_12  and  C_13
REMARK                            x       y       z     vdW  Elec       q    Type
REMARK                         _______ _______ _______ _____ _____    ______ ____
ROOT
ATOM      1  C   UNL     1       2.110   4.591  21.188  0.00  0.00    +0.000 C 
ATOM      2  C   UNL     1       2.276   5.730  20.211  0.00  0.00    +0.000 A 
ATOM      3  C   UNL     1       1.647   7.013  20.349  0.00  0.00    +0.000 A 
ATOM      4  C   UNL     1       0.816   7.275  21.463  0.00  0.00    +0.000 A 
ATOM      5  C   UNL     1       0.227   8.512  21.651  0.00  0.00    +0.000 A 
ATOM      6  N   UNL     1       0.364   9.519  20.795  0.00  0.00    +0.000 NA
ATOM      7  C   UNL     1       1.106   9.272  19.672  0.00  0.00    +0.000 A 
ATOM      8  C   UNL     1       1.841   8.060  19.388  0.00  0.00    +0.000 A 
ATOM      9  C   UNL     1       2.755   7.801  18.289  0.00  0.00    +0.000 A 
ATOM     10  C   UNL     1       3.154   8.850  17.286  0.00  0.00    +0.000 C 
ATOM     11  C   UNL     1       3.351   6.513  18.137  0.00  0.00    +0.000 A 
ATOM     12  C   UNL     1       3.105   5.538  19.090  0.00  0.00    +0.000 A 
ATOM     13  N   UNL     1       3.830   4.419  18.719  0.00  0.00    +0.000 N 
ATOM     14  C   UNL     1       4.536   4.634  17.561  0.00  0.00    +0.000 A 
ATOM     15  C   UNL     1       5.397   3.786  16.846  0.00  0.00    +0.000 A 
ATOM     16  C   UNL     1       5.983   4.284  15.678  0.00  0.00    +0.000 A 
ATOM     17  C   UNL     1       5.710   5.572  15.237  0.00  0.00    +0.000 A 
ATOM     18  C   UNL     1       4.842   6.395  15.961  0.00  0.00    +0.000 A 
ATOM     19  C   UNL     1       4.246   5.934  17.158  0.00  0.00    +0.000 A 
ATOM     20  H   UNL     1       3.849   3.553  19.237  0.00  0.00    +0.000 HD
ENDROOT
BRANCH   7  21
ATOM     21  C   UNL     1       0.959  10.440  18.729  0.00  0.00    +0.000 C 
ATOM     22  N   UNL     1       0.018  10.282  17.736  0.00  0.00    +0.000 N 
ATOM     23  O   UNL     1       1.662  11.440  18.768  0.00  0.00    +0.000 OA
ATOM     24  H   UNL     1      -0.290   9.340  17.530  0.00  0.00    +0.000 HD
ATOM     25  H   UNL     1       0.025  10.960  16.988  0.00  0.00    +0.000 HD
ENDBRANCH   7  21
TORSDOF 1
ENDMDL
MODEL 4
REMARK VINA RESULT:      -7.0      3.619      7.627
REMARK  Name = 
REMARK  3 active torsions:
REMARK  status: ('A' for Active; 'I' for Inactive)
REMARK    1  A    between atoms: C_1  and  C_2
REMARK    2  A    between atoms: C_7  and  C_8
REMARK    3  A    between atoms: C_12  and  C_13
REMARK                            x       y       z     vdW  Elec       q    Type
REMARK                         _______ _______ _______ _____ _____    ______ ____
ROOT
ATOM      1  C   UNL     1      -0.245   8.870  23.156  0.00  0.00    +0.000 C 
ATOM      2  C   UNL     1       0.192   9.459  21.837  0.00  0.00    +0.000 A 
ATOM      3  C   UNL     1      -0.109  10.796  21.408  0.00  0.00    +0.000 A 
ATOM      4  C   UNL     1      -0.854  11.655  22.248  0.00  0.00    +0.000 A 
ATOM      5  C   UNL     1      -1.128  12.962  21.887  0.00  0.00    +0.000 A 
ATOM      6  N   UNL     1      -0.751  13.489  20.727  0.00  0.00    +0.000 NA
ATOM      7  C   UNL     1      -0.089  12.659  19.864  0.00  0.00    +0.000 A 
ATOM      8  C   UNL     1       0.333  11.304  20.141  0.00  0.00    +0.000 A 
ATOM      9  C   UNL     1       1.159  10.435  19.321  0.00  0.00    +0.000 A 
ATOM     10  C   UNL     1       1.800  10.882  18.035  0.00  0.00    +0.000 C 
ATOM     11  C   UNL     1       1.427   9.095  19.735  0.00  0.00    +0.000 A 
ATOM     12  C   UNL     1       0.952   8.660  20.962  0.00  0.00    +0.000 A 
ATOM     13  N   UNL     1       1.387   7.356  21.123  0.00  0.00    +0.000 N 
ATOM     14  C   UNL     1       2.125   6.931  20.046  0.00  0.00    +0.000 A 
ATOM     15  C   UNL     1       2.757   5.702  19.800  0.00  0.00    +0.000 A 
ATOM     16  C   UNL     1       3.448   5.552  18.593  0.00  0.00    +0.000 A 
ATOM     17  C   UNL     1       3.493   6.584  17.665  0.00  0.00    +0.000 A 
ATOM     18  C   UNL     1       2.849   7.796  17.929  0.00  0.00    +0.000 A 
ATOM     19  C   UNL     1       2.157   7.993  19.147  0.00  0.00    +0.000 A 
ATOM     20  H   UNL     1       1.196   6.786  21.933  0.00  0.00    +0.000 HD
ENDROOT
BRANCH   7  21
ATOM     21  C   UNL     1       0.051  13.357  18.534  0.00  0.00    +0.000 C 
ATOM     22  N   UNL     1      -0.886  13.012  17.585  0.00  0.00    +0.000 N 
ATOM     23  O   UNL     1       0.964  14.122  18.258  0.00  0.00    +0.000 OA
ATOM     24  H   UNL     1      -1.399  12.151  17.726  0.00  0.00    +0.000 HD
ATOM     25  H   UNL     1      -0.711  13.318  16.638  0.00  0.00    +0.000 HD
ENDBRANCH   7  21
TORSDOF 1
ENDMDL
MODEL 5
REMARK VINA RESULT:      -6.9      5.657      8.226
REMARK  Name = 
REMARK  3 active torsions:
REMARK  status: ('A' for Active; 'I' for Inactive)
REMARK    1  A    between atoms: C_1  and  C_2
REMARK    2  A    between atoms: C_7  and  C_8
REMARK    3  A    between atoms: C_12  and  C_13
REMARK                            x       y       z     vdW  Elec       q    Type
REMARK                         _______ _______ _______ _____ _____    ______ ____
ROOT
ATOM      1  C   UNL     1      -2.692   9.762  15.967  0.00  0.00    +0.000 C 
ATOM      2  C   UNL     1      -2.655  10.510  17.278  0.00  0.00    +0.000 A 
ATOM      3  C   UNL     1      -1.517  10.552  18.153  0.00  0.00    +0.000 A 
ATOM      4  C   UNL     1      -0.329   9.872  17.799  0.00  0.00    +0.000 A 
ATOM      5  C   UNL     1       0.800   9.925  18.596  0.00  0.00    +0.000 A 
ATOM      6  N   UNL     1       0.842  10.576  19.753  0.00  0.00    +0.000 NA
ATOM      7  C   UNL     1      -0.315  11.186  20.155  0.00  0.00    +0.000 A 
ATOM      8  C   UNL     1      -1.538  11.280  19.389  0.00  0.00    +0.000 A 
ATOM      9  C   UNL     1      -2.739  12.034  19.704  0.00  0.00    +0.000 A 
ATOM     10  C   UNL     1      -2.850  12.945  20.896  0.00  0.00    +0.000 C 
ATOM     11  C   UNL     1      -3.879  11.960  18.848  0.00  0.00    +0.000 A 
ATOM     12  C   UNL     1      -3.800  11.222  17.679  0.00  0.00    +0.000 A 
ATOM     13  N   UNL     1      -5.017  11.357  17.034  0.00  0.00    +0.000 N 
ATOM     14  C   UNL     1      -5.881  12.154  17.742  0.00  0.00    +0.000 A 
ATOM     15  C   UNL     1      -7.194  12.559  17.455  0.00  0.00    +0.000 A 
ATOM     16  C   UNL     1      -7.841  13.386  18.379  0.00  0.00    +0.000 A 
ATOM     17  C   UNL     1      -7.204  13.782  19.548  0.00  0.00    +0.000 A 
ATOM     18  C   UNL     1      -5.899  13.359  19.817  0.00  0.00    +0.000 A 
ATOM     19  C   UNL     1      -5.206  12.539  18.897  0.00  0.00    +0.000 A 
ATOM     20  H   UNL     1      -5.244  10.931  16.147  0.00  0.00    +0.000 HD
ENDROOT
BRANCH   7  21
ATOM     21  C   UNL     1      -0.140  11.669  21.573  0.00  0.00    +0.000 C 
ATOM     22  N   UNL     1      -0.650  10.840  22.547  0.00  0.00    +0.000 N 
ATOM     23  O   UNL     1       0.347  12.751  21.870  0.00  0.00    +0.000 OA
ATOM     24  H   UNL     1      -1.330  10.146  22.261  0.00  0.00    +0.000 HD
ATOM     25  H   UNL     1      -0.713  11.217  23.482  0.00  0.00    +0.000 HD
ENDBRANCH   7  21
TORSDOF 1
ENDMDL
MODEL 6
REMARK VINA RESULT:      -6.6      3.586      7.546
REMARK  Name = 
REMARK  3 active torsions:
REMARK  status: ('A' for Active; 'I' for Inactive)
REMARK    1  A    between atoms: C_1  and  C_2
REMARK    2  A    between atoms: C_7  and  C_8
REMARK    3  A    between atoms: C_12  and  C_13
REMARK                            x       y       z     vdW  Elec       q    Type
REMARK                         _______ _______ _______ _____ _____    ______ ____
ROOT
ATOM      1  C   UNL     1       0.231   9.183  23.522  0.00  0.00    +0.000 C 
ATOM      2  C   UNL     1       0.249   9.479  22.042  0.00  0.00    +0.000 A 
ATOM      3  C   UNL     1      -0.411  10.600  21.432  0.00  0.00    +0.000 A 
ATOM      4  C   UNL     1      -1.128  11.518  22.235  0.00  0.00    +0.000 A 
ATOM      5  C   UNL     1      -1.740  12.631  21.689  0.00  0.00    +0.000 A 
ATOM      6  N   UNL     1      -1.734  12.898  20.388  0.00  0.00    +0.000 NA
ATOM      7  C   UNL     1      -1.107  11.990  19.579  0.00  0.00    +0.000 A 
ATOM      8  C   UNL     1      -0.361  10.832  20.018  0.00  0.00    +0.000 A 
ATOM      9  C   UNL     1       0.440   9.923  19.217  0.00  0.00    +0.000 A 
ATOM     10  C   UNL     1       0.689  10.124  17.746  0.00  0.00    +0.000 C 
ATOM     11  C   UNL     1       1.065   8.791  19.821  0.00  0.00    +0.000 A 
ATOM     12  C   UNL     1       0.960   8.612  21.191  0.00  0.00    +0.000 A 
ATOM     13  N   UNL     1       1.683   7.476  21.506  0.00  0.00    +0.000 N 
ATOM     14  C   UNL     1       2.253   6.912  20.391  0.00  0.00    +0.000 A 
ATOM     15  C   UNL     1       3.064   5.774  20.256  0.00  0.00    +0.000 A 
ATOM     16  C   UNL     1       3.503   5.432  18.973  0.00  0.00    +0.000 A 
ATOM     17  C   UNL     1       3.135   6.190  17.869  0.00  0.00    +0.000 A 
ATOM     18  C   UNL     1       2.319   7.313  18.027  0.00  0.00    +0.000 A 
ATOM     19  C   UNL     1       1.872   7.702  19.311  0.00  0.00    +0.000 A 
ATOM     20  H   UNL     1       1.791   7.108  22.439  0.00  0.00    +0.000 HD
ENDROOT
BRANCH   7  21
ATOM     21  C   UNL     1      -1.399  12.341  18.141  0.00  0.00    +0.000 C 
ATOM     22  N   UNL     1      -0.660  13.383  17.626  0.00  0.00    +0.000 N 
ATOM     23  O   UNL     1      -2.275  11.810  17.474  0.00  0.00    +0.000 OA
ATOM     24  H   UNL     1      -0.207  14.004  18.285  0.00  0.00    +0.000 HD
ATOM     25  H   UNL     1      -0.957  13.759  16.737  0.00  0.00    +0.000 HD
ENDBRANCH   7  21
TORSDOF 1
ENDMDL
MODEL 7
REMARK VINA RESULT:      -6.6      3.724      6.210
REMARK  Name = 
REMARK  3 active torsions:
REMARK  status: ('A' for Active; 'I' for Inactive)
REMARK    1  A    between atoms: C_1  and  C_2
REMARK    2  A    between atoms: C_7  and  C_8
REMARK    3  A    between atoms: C_12  and  C_13
REMARK                            x       y       z     vdW  Elec       q    Type
REMARK                         _______ _______ _______ _____ _____    ______ ____
ROOT
ATOM      1  C   UNL     1       7.203   6.618  18.108  0.00  0.00    +0.000 C 
ATOM      2  C   UNL     1       6.177   5.667  17.543  0.00  0.00    +0.000 A 
ATOM      3  C   UNL     1       5.042   5.173  18.271  0.00  0.00    +0.000 A 
ATOM      4  C   UNL     1       4.826   5.587  19.606  0.00  0.00    +0.000 A 
ATOM      5  C   UNL     1       3.723   5.166  20.325  0.00  0.00    +0.000 A 
ATOM      6  N   UNL     1       2.816   4.326  19.837  0.00  0.00    +0.000 NA
ATOM      7  C   UNL     1       3.036   3.854  18.572  0.00  0.00    +0.000 A 
ATOM      8  C   UNL     1       4.097   4.269  17.682  0.00  0.00    +0.000 A 
ATOM      9  C   UNL     1       4.291   3.912  16.287  0.00  0.00    +0.000 A 
ATOM     10  C   UNL     1       3.307   3.082  15.506  0.00  0.00    +0.000 C 
ATOM     11  C   UNL     1       5.439   4.376  15.577  0.00  0.00    +0.000 A 
ATOM     12  C   UNL     1       6.325   5.231  16.212  0.00  0.00    +0.000 A 
ATOM     13  N   UNL     1       7.307   5.550  15.292  0.00  0.00    +0.000 N 
ATOM     14  C   UNL     1       7.091   4.933  14.085  0.00  0.00    +0.000 A 
ATOM     15  C   UNL     1       7.822   4.986  12.887  0.00  0.00    +0.000 A 
ATOM     16  C   UNL     1       7.355   4.237  11.802  0.00  0.00    +0.000 A 
ATOM     17  C   UNL     1       6.211   3.458  11.914  0.00  0.00    +0.000 A 
ATOM     18  C   UNL     1       5.504   3.415  13.119  0.00  0.00    +0.000 A 
ATOM     19  C   UNL     1       5.934   4.174  14.232  0.00  0.00    +0.000 A 
ATOM     20  H   UNL     1       8.084   6.167  15.476  0.00  0.00    +0.000 HD
ENDROOT
BRANCH   7  21
ATOM     21  C   UNL     1       2.041   2.757  18.285  0.00  0.00    +0.000 C 
ATOM     22  N   UNL     1       2.530   1.474  18.393  0.00  0.00    +0.000 N 
ATOM     23  O   UNL     1       0.896   2.957  17.907  0.00  0.00    +0.000 OA
ATOM     24  H   UNL     1       3.535   1.353  18.369  0.00  0.00    +0.000 HD
ATOM     25  H   UNL     1       1.948   0.731  18.032  0.00  0.00    +0.000 HD
ENDBRANCH   7  21
TORSDOF 1
ENDMDL
MODEL 8
REMARK VINA RESULT:      -6.6      1.041      1.137
REMARK  Name = 
REMARK  3 active torsions:
REMARK  status: ('A' for Active; 'I' for Inactive)
REMARK    1  A    between atoms: C_1  and  C_2
REMARK    2  A    between atoms: C_7  and  C_8
REMARK    3  A    between atoms: C_12  and  C_13
REMARK                            x       y       z     vdW  Elec       q    Type
REMARK                         _______ _______ _______ _____ _____    ______ ____
ROOT
ATOM      1  C   UNL     1       4.434   7.395  16.125  0.00  0.00    +0.000 C 
ATOM      2  C   UNL     1       3.716   6.764  17.294  0.00  0.00    +0.000 A 
ATOM      3  C   UNL     1       3.818   5.378  17.655  0.00  0.00    +0.000 A 
ATOM      4  C   UNL     1       4.642   4.512  16.900  0.00  0.00    +0.000 A 
ATOM      5  C   UNL     1       4.798   3.181  17.241  0.00  0.00    +0.000 A 
ATOM      6  N   UNL     1       4.167   2.616  18.265  0.00  0.00    +0.000 NA
ATOM      7  C   UNL     1       3.309   3.413  18.972  0.00  0.00    +0.000 A 
ATOM      8  C   UNL     1       3.111   4.832  18.777  0.00  0.00    +0.000 A 
ATOM      9  C   UNL     1       2.328   5.749  19.587  0.00  0.00    +0.000 A 
ATOM     10  C   UNL     1       1.646   5.341  20.865  0.00  0.00    +0.000 C 
ATOM     11  C   UNL     1       2.201   7.119  19.205  0.00  0.00    +0.000 A 
ATOM     12  C   UNL     1       2.893   7.577  18.096  0.00  0.00    +0.000 A 
ATOM     13  N   UNL     1       2.623   8.930  17.983  0.00  0.00    +0.000 N 
ATOM     14  C   UNL     1       1.781   9.363  18.976  0.00  0.00    +0.000 A 
ATOM     15  C   UNL     1       1.265  10.641  19.244  0.00  0.00    +0.000 A 
ATOM     16  C   UNL     1       0.413  10.786  20.343  0.00  0.00    +0.000 A 
ATOM     17  C   UNL     1       0.082   9.695  21.136  0.00  0.00    +0.000 A 
ATOM     18  C   UNL     1       0.602   8.431  20.846  0.00  0.00    +0.000 A 
ATOM     19  C   UNL     1       1.482   8.248  19.754  0.00  0.00    +0.000 A 
ATOM     20  H   UNL     1       3.002   9.530  17.266  0.00  0.00    +0.000 HD
ENDROOT
BRANCH   7  21
ATOM     21  C   UNL     1       2.529   2.552  19.933  0.00  0.00    +0.000 C 
ATOM     22  N   UNL     1       1.450   1.891  19.391  0.00  0.00    +0.000 N 
ATOM     23  O   UNL     1       2.764   2.482  21.131  0.00  0.00    +0.000 OA
ATOM     24  H   UNL     1       1.089   2.230  18.508  0.00  0.00    +0.000 HD
ATOM     25  H   UNL     1       0.806   1.458  20.038  0.00  0.00    +0.000 HD
ENDBRANCH   7  21
TORSDOF 1
ENDMDL
MODEL 9
REMARK VINA RESULT:      -6.5      9.748     11.616
REMARK  Name = 
REMARK  3 active torsions:
REMARK  status: ('A' for Active; 'I' for Inactive)
REMARK    1  A    between atoms: C_1  and  C_2
REMARK    2  A    between atoms: C_7  and  C_8
REMARK    3  A    between atoms: C_12  and  C_13
REMARK                            x       y       z     vdW  Elec       q    Type
REMARK                         _______ _______ _______ _____ _____    ______ ____
ROOT
ATOM      1  C   UNL     1       9.708  10.302  19.460  0.00  0.00    +0.000 C 
ATOM      2  C   UNL     1       9.781  11.764  19.826  0.00  0.00    +0.000 A 
ATOM      3  C   UNL     1      10.255  12.796  18.947  0.00  0.00    +0.000 A 
ATOM      4  C   UNL     1      10.682  12.468  17.640  0.00  0.00    +0.000 A 
ATOM      5  C   UNL     1      11.105  13.439  16.752  0.00  0.00    +0.000 A 
ATOM      6  N   UNL     1      11.177  14.728  17.065  0.00  0.00    +0.000 NA
ATOM      7  C   UNL     1      10.835  15.067  18.347  0.00  0.00    +0.000 A 
ATOM      8  C   UNL     1      10.302  14.172  19.350  0.00  0.00    +0.000 A 
ATOM      9  C   UNL     1       9.791  14.504  20.668  0.00  0.00    +0.000 A 
ATOM     10  C   UNL     1       9.657  15.917  21.167  0.00  0.00    +0.000 C 
ATOM     11  C   UNL     1       9.354  13.471  21.551  0.00  0.00    +0.000 A 
ATOM     12  C   UNL     1       9.354  12.159  21.108  0.00  0.00    +0.000 A 
ATOM     13  N   UNL     1       8.851  11.385  22.139  0.00  0.00    +0.000 N 
ATOM     14  C   UNL     1       8.526  12.148  23.234  0.00  0.00    +0.000 A 
ATOM     15  C   UNL     1       7.983  11.780  24.475  0.00  0.00    +0.000 A 
ATOM     16  C   UNL     1       7.758  12.790  25.416  0.00  0.00    +0.000 A 
ATOM     17  C   UNL     1       8.073  14.112  25.130  0.00  0.00    +0.000 A 
ATOM     18  C   UNL     1       8.620  14.453  23.890  0.00  0.00    +0.000 A 
ATOM     19  C   UNL     1       8.844  13.462  22.906  0.00  0.00    +0.000 A 
ATOM     20  H   UNL     1       8.727  10.384  22.095  0.00  0.00    +0.000 HD
ENDROOT
BRANCH   7  21
ATOM     21  C   UNL     1      11.193  16.514  18.576  0.00  0.00    +0.000 C 
ATOM     22  N   UNL     1      12.333  16.730  19.318  0.00  0.00    +0.000 N 
ATOM     23  O   UNL     1      10.502  17.454  18.209  0.00  0.00    +0.000 OA
ATOM     24  H   UNL     1      12.678  15.961  19.879  0.00  0.00    +0.000 HD
ATOM     25  H   UNL     1      12.497  17.673  19.642  0.00  0.00    +0.000 HD
ENDBRANCH   7  21
TORSDOF 1
ENDMDL
