MODEL 1
REMARK VINA RESULT:      -8.0      0.000      0.000
REMARK  Name = 
REMARK  9 active torsions:
REMARK  status: ('A' for Active; 'I' for Inactive)
REMARK    1  A    between atoms: C_1  and  C_2
REMARK    2  A    between atoms: C_5  and  C_6
REMARK    3  A    between atoms: N_9  and  C_10
REMARK    4  A    between atoms: C_10  and  C_11
REMARK    5  A    between atoms: C_16  and  C_17
REMARK    6  A    between atoms: N_19  and  C_20
REMARK    7  A    between atoms: N_19  and  C_21
REMARK    8  A    between atoms: C_21  and  C_22
REMARK    9  A    between atoms: C_21  and  C_23
REMARK                            x       y       z     vdW  Elec       q    Type
REMARK                         _______ _______ _______ _____ _____    ______ ____
ROOT
ATOM      1  C   UNL     1       1.981   7.126  19.601  0.00  0.00    +0.000 C 
ATOM      2  O   UNL     1       2.035   6.243  20.465  0.00  0.00    +0.000 OA
ATOM      3  N   UNL     1       1.572   8.419  19.897  0.00  0.00    +0.000 N 
ATOM      4  C   UNL     1       1.462   8.838  21.290  0.00  0.00    +0.000 C 
ATOM      5  C   UNL     1       0.058   9.349  21.589  0.00  0.00    +0.000 C 
ATOM      6  C   UNL     1      -0.412  10.420  20.592  0.00  0.00    +0.000 C 
ATOM      7  C   UNL     1      -0.156   9.982  19.141  0.00  0.00    +0.000 C 
ATOM      8  C   UNL     1       1.263   9.453  18.912  0.00  0.00    +0.000 C 
ENDROOT
BRANCH   6   9
ATOM      9  C   UNL     1       0.266  11.768  20.866  0.00  0.00    +0.000 C 
ATOM     10  O   UNL     1       1.447  11.785  21.226  0.00  0.00    +0.000 OA
ATOM     11  N   UNL     1      -0.442  12.959  20.726  0.00  0.00    +0.000 N 
ATOM     12  C   UNL     1      -1.789  13.085  20.177  0.00  0.00    +0.000 C 
BRANCH  11  13
ATOM     13  C   UNL     1       0.287  14.212  21.038  0.00  0.00    +0.000 C 
ATOM     14  C   UNL     1       0.323  15.142  19.821  0.00  0.00    +0.000 C 
ATOM     15  C   UNL     1      -0.251  14.952  22.265  0.00  0.00    +0.000 C 
ENDBRANCH  11  13
ENDBRANCH   6   9
BRANCH   1  16
ATOM     16  C   UNL     1       2.399   6.799  18.158  0.00  0.00    +0.000 C 
BRANCH  16  20
ATOM     17  C   UNL     1       6.156   4.793  17.261  0.00  0.00    +0.000 C 
ATOM     18  C   UNL     1       4.894   4.010  17.640  0.00  0.00    +0.000 C 
ATOM     19  C   UNL     1       3.598   4.795  17.448  0.00  0.00    +0.000 C 
ATOM     20  N   UNL     1       3.703   6.096  18.126  0.00  0.00    +0.000 NA
ATOM     21  C   UNL     1       4.723   6.910  17.460  0.00  0.00    +0.000 C 
ATOM     22  C   UNL     1       6.095   6.270  17.672  0.00  0.00    +0.000 C 
BRANCH  17  27
ATOM     23  C   UNL     1       6.489   3.638  12.452  0.00  0.00    +0.000 C 
ATOM     24  C   UNL     1       6.703   4.242  13.779  0.00  0.00    +0.000 A 
ATOM     25  N   UNL     1       7.586   5.226  13.983  0.00  0.00    +0.000 NA
ATOM     26  O   UNL     1       7.452   5.496  15.341  0.00  0.00    +0.000 OA
ATOM     27  C   UNL     1       6.493   4.645  15.818  0.00  0.00    +0.000 A 
ATOM     28  N   UNL     1       6.001   3.849  14.894  0.00  0.00    +0.000 NA
ENDBRANCH  17  27
ENDBRANCH  16  20
ENDBRANCH   1  16
TORSDOF 5
ENDMDL
MODEL 2
REMARK VINA RESULT:      -7.5      1.061      1.124
REMARK  Name = 
REMARK  9 active torsions:
REMARK  status: ('A' for Active; 'I' for Inactive)
REMARK    1  A    between atoms: C_1  and  C_2
REMARK    2  A    between atoms: C_5  and  C_6
REMARK    3  A    between atoms: N_9  and  C_10
REMARK    4  A    between atoms: C_10  and  C_11
REMARK    5  A    between atoms: C_16  and  C_17
REMARK    6  A    between atoms: N_19  and  C_20
REMARK    7  A    between atoms: N_19  and  C_21
REMARK    8  A    between atoms: C_21  and  C_22
REMARK    9  A    between atoms: C_21  and  C_23
REMARK                            x       y       z     vdW  Elec       q    Type
REMARK                         _______ _______ _______ _____ _____    ______ ____
ROOT
ATOM      1  C   UNL     1       2.075   6.794  19.297  0.00  0.00    +0.000 C 
ATOM      2  O   UNL     1       2.040   6.173  20.365  0.00  0.00    +0.000 OA
ATOM      3  N   UNL     1       1.831   8.160  19.232  0.00  0.00    +0.000 N 
ATOM      4  C   UNL     1       1.802   8.944  20.461  0.00  0.00    +0.000 C 
ATOM      5  C   UNL     1       0.477   9.683  20.596  0.00  0.00    +0.000 C 
ATOM      6  C   UNL     1       0.119  10.500  19.345  0.00  0.00    +0.000 C 
ATOM      7  C   UNL     1       0.290   9.664  18.066  0.00  0.00    +0.000 C 
ATOM      8  C   UNL     1       1.629   8.924  18.003  0.00  0.00    +0.000 C 
ENDROOT
BRANCH   6   9
ATOM      9  C   UNL     1       0.961  11.779  19.258  0.00  0.00    +0.000 C 
ATOM     10  O   UNL     1       2.002  11.770  18.595  0.00  0.00    +0.000 OA
ATOM     11  N   UNL     1       0.566  12.934  19.929  0.00  0.00    +0.000 N 
ATOM     12  C   UNL     1      -0.703  13.117  20.626  0.00  0.00    +0.000 C 
BRANCH  11  13
ATOM     13  C   UNL     1       1.455  14.114  19.810  0.00  0.00    +0.000 C 
ATOM     14  C   UNL     1       0.678  15.338  19.315  0.00  0.00    +0.000 C 
ATOM     15  C   UNL     1       2.220  14.445  21.095  0.00  0.00    +0.000 C 
ENDBRANCH  11  13
ENDBRANCH   6   9
BRANCH   1  16
ATOM     16  C   UNL     1       2.420   6.047  17.997  0.00  0.00    +0.000 C 
BRANCH  16  20
ATOM     17  C   UNL     1       6.544   5.069  17.009  0.00  0.00    +0.000 C 
ATOM     18  C   UNL     1       5.570   4.011  17.538  0.00  0.00    +0.000 C 
ATOM     19  C   UNL     1       4.098   4.388  17.373  0.00  0.00    +0.000 C 
ATOM     20  N   UNL     1       3.865   5.728  17.932  0.00  0.00    +0.000 NA
ATOM     21  C   UNL     1       4.587   6.721  17.132  0.00  0.00    +0.000 C 
ATOM     22  C   UNL     1       6.091   6.506  17.300  0.00  0.00    +0.000 C 
BRANCH  17  27
ATOM     23  C   UNL     1       6.784   3.740  12.239  0.00  0.00    +0.000 C 
ATOM     24  C   UNL     1       7.012   4.403  13.535  0.00  0.00    +0.000 A 
ATOM     25  N   UNL     1       7.859   5.429  13.674  0.00  0.00    +0.000 NA
ATOM     26  O   UNL     1       7.754   5.747  15.024  0.00  0.00    +0.000 OA
ATOM     27  C   UNL     1       6.845   4.878  15.562  0.00  0.00    +0.000 A 
ATOM     28  N   UNL     1       6.360   4.027  14.685  0.00  0.00    +0.000 NA
ENDBRANCH  17  27
ENDBRANCH  16  20
ENDBRANCH   1  16
TORSDOF 5
ENDMDL
MODEL 3
REMARK VINA RESULT:      -7.2      0.853      1.107
REMARK  Name = 
REMARK  9 active torsions:
REMARK  status: ('A' for Active; 'I' for Inactive)
REMARK    1  A    between atoms: C_1  and  C_2
REMARK    2  A    between atoms: C_5  and  C_6
REMARK    3  A    between atoms: N_9  and  C_10
REMARK    4  A    between atoms: C_10  and  C_11
REMARK    5  A    between atoms: C_16  and  C_17
REMARK    6  A    between atoms: N_19  and  C_20
REMARK    7  A    between atoms: N_19  and  C_21
REMARK    8  A    between atoms: C_21  and  C_22
REMARK    9  A    between atoms: C_21  and  C_23
REMARK                            x       y       z     vdW  Elec       q    Type
REMARK                         _______ _______ _______ _____ _____    ______ ____
ROOT
ATOM      1  C   UNL     1       2.084   7.689  19.333  0.00  0.00    +0.000 C 
ATOM      2  O   UNL     1       2.288   6.910  20.271  0.00  0.00    +0.000 OA
ATOM      3  N   UNL     1       1.487   8.929  19.524  0.00  0.00    +0.000 N 
ATOM      4  C   UNL     1       1.340   9.455  20.876  0.00  0.00    +0.000 C 
ATOM      5  C   UNL     1      -0.120   9.774  21.173  0.00  0.00    +0.000 C 
ATOM      6  C   UNL     1      -0.767  10.664  20.100  0.00  0.00    +0.000 C 
ATOM      7  C   UNL     1      -0.473  10.136  18.686  0.00  0.00    +0.000 C 
ATOM      8  C   UNL     1       1.005   9.807  18.460  0.00  0.00    +0.000 C 
ENDROOT
BRANCH   6   9
ATOM      9  C   UNL     1      -0.298  12.118  20.229  0.00  0.00    +0.000 C 
ATOM     10  O   UNL     1       0.125  12.705  19.229  0.00  0.00    +0.000 OA
ATOM     11  N   UNL     1      -0.334  12.768  21.461  0.00  0.00    +0.000 N 
ATOM     12  C   UNL     1      -0.937  12.238  22.681  0.00  0.00    +0.000 C 
BRANCH  11  13
ATOM     13  C   UNL     1       0.164  14.163  21.497  0.00  0.00    +0.000 C 
ATOM     14  C   UNL     1      -0.447  14.933  22.673  0.00  0.00    +0.000 C 
ATOM     15  C   UNL     1       1.690  14.276  21.514  0.00  0.00    +0.000 C 
ENDBRANCH  11  13
ENDBRANCH   6   9
BRANCH   1  16
ATOM     16  C   UNL     1       2.521   7.295  17.912  0.00  0.00    +0.000 C 
BRANCH  16  20
ATOM     17  C   UNL     1       6.177   5.052  17.179  0.00  0.00    +0.000 C 
ATOM     18  C   UNL     1       4.877   4.359  17.598  0.00  0.00    +0.000 C 
ATOM     19  C   UNL     1       3.622   5.193  17.345  0.00  0.00    +0.000 C 
ATOM     20  N   UNL     1       3.788   6.528  17.937  0.00  0.00    +0.000 NA
ATOM     21  C   UNL     1       4.851   7.245  17.228  0.00  0.00    +0.000 C 
ATOM     22  C   UNL     1       6.188   6.554  17.493  0.00  0.00    +0.000 C 
BRANCH  17  27
ATOM     23  C   UNL     1       6.510   3.529  12.474  0.00  0.00    +0.000 C 
ATOM     24  C   UNL     1       6.725   4.234  13.750  0.00  0.00    +0.000 A 
ATOM     25  N   UNL     1       7.605   5.233  13.876  0.00  0.00    +0.000 NA
ATOM     26  O   UNL     1       7.471   5.607  15.210  0.00  0.00    +0.000 OA
ATOM     27  C   UNL     1       6.515   4.793  15.751  0.00  0.00    +0.000 A 
ATOM     28  N   UNL     1       6.024   3.927  14.893  0.00  0.00    +0.000 NA
ENDBRANCH  17  27
ENDBRANCH  16  20
ENDBRANCH   1  16
TORSDOF 5
ENDMDL
MODEL 4
REMARK VINA RESULT:      -7.2      1.113      1.219
REMARK  Name = 
REMARK  9 active torsions:
REMARK  status: ('A' for Active; 'I' for Inactive)
REMARK    1  A    between atoms: C_1  and  C_2
REMARK    2  A    between atoms: C_5  and  C_6
REMARK    3  A    between atoms: N_9  and  C_10
REMARK    4  A    between atoms: C_10  and  C_11
REMARK    5  A    between atoms: C_16  and  C_17
REMARK    6  A    between atoms: N_19  and  C_20
REMARK    7  A    between atoms: N_19  and  C_21
REMARK    8  A    between atoms: C_21  and  C_22
REMARK    9  A    between atoms: C_21  and  C_23
REMARK                            x       y       z     vdW  Elec       q    Type
REMARK                         _______ _______ _______ _____ _____    ______ ____
ROOT
ATOM      1  C   UNL     1       1.791   7.398  20.266  0.00  0.00    +0.000 C 
ATOM      2  O   UNL     1       1.822   6.445  21.052  0.00  0.00    +0.000 OA
ATOM      3  N   UNL     1       1.263   8.631  20.626  0.00  0.00    +0.000 N 
ATOM      4  C   UNL     1       0.989   8.913  22.030  0.00  0.00    +0.000 C 
ATOM      5  C   UNL     1      -0.470   9.306  22.225  0.00  0.00    +0.000 C 
ATOM      6  C   UNL     1      -0.916  10.433  21.280  0.00  0.00    +0.000 C 
ATOM      7  C   UNL     1      -0.489  10.147  19.831  0.00  0.00    +0.000 C 
ATOM      8  C   UNL     1       0.979   9.730  19.706  0.00  0.00    +0.000 C 
ENDROOT
BRANCH   6   9
ATOM      9  C   UNL     1      -0.365  11.790  21.736  0.00  0.00    +0.000 C 
ATOM     10  O   UNL     1       0.845  12.012  21.634  0.00  0.00    +0.000 OA
ATOM     11  N   UNL     1      -1.214  12.756  22.271  0.00  0.00    +0.000 N 
ATOM     12  C   UNL     1      -2.670  12.673  22.315  0.00  0.00    +0.000 C 
BRANCH  11  13
ATOM     13  C   UNL     1      -0.589  14.026  22.709  0.00  0.00    +0.000 C 
ATOM     14  C   UNL     1      -0.643  15.077  21.595  0.00  0.00    +0.000 C 
ATOM     15  C   UNL     1      -1.175  14.588  24.008  0.00  0.00    +0.000 C 
ENDBRANCH  11  13
ENDBRANCH   6   9
BRANCH   1  16
ATOM     16  C   UNL     1       2.369   7.231  18.850  0.00  0.00    +0.000 C 
BRANCH  16  20
ATOM     17  C   UNL     1       5.283   4.136  17.921  0.00  0.00    +0.000 C 
ATOM     18  C   UNL     1       3.776   3.861  17.885  0.00  0.00    +0.000 C 
ATOM     19  C   UNL     1       2.921   5.120  17.757  0.00  0.00    +0.000 C 
ATOM     20  N   UNL     1       3.312   6.091  18.790  0.00  0.00    +0.000 NA
ATOM     21  C   UNL     1       4.679   6.551  18.532  0.00  0.00    +0.000 C 
ATOM     22  C   UNL     1       5.649   5.386  18.731  0.00  0.00    +0.000 C 
BRANCH  17  27
ATOM     23  C   UNL     1       6.373   3.837  13.094  0.00  0.00    +0.000 C 
ATOM     24  C   UNL     1       6.421   4.120  14.540  0.00  0.00    +0.000 A 
ATOM     25  N   UNL     1       7.416   4.818  15.099  0.00  0.00    +0.000 NA
ATOM     26  O   UNL     1       7.059   4.857  16.443  0.00  0.00    +0.000 OA
ATOM     27  C   UNL     1       5.877   4.180  16.555  0.00  0.00    +0.000 A 
ATOM     28  N   UNL     1       5.442   3.704  15.410  0.00  0.00    +0.000 NA
ENDBRANCH  17  27
ENDBRANCH  16  20
ENDBRANCH   1  16
TORSDOF 5
ENDMDL
MODEL 5
REMARK VINA RESULT:      -6.9      2.437      3.362
REMARK  Name = 
REMARK  9 active torsions:
REMARK  status: ('A' for Active; 'I' for Inactive)
REMARK    1  A    between atoms: C_1  and  C_2
REMARK    2  A    between atoms: C_5  and  C_6
REMARK    3  A    between atoms: N_9  and  C_10
REMARK    4  A    between atoms: C_10  and  C_11
REMARK    5  A    between atoms: C_16  and  C_17
REMARK    6  A    between atoms: N_19  and  C_20
REMARK    7  A    between atoms: N_19  and  C_21
REMARK    8  A    between atoms: C_21  and  C_22
REMARK    9  A    between atoms: C_21  and  C_23
REMARK                            x       y       z     vdW  Elec       q    Type
REMARK                         _______ _______ _______ _____ _____    ______ ____
ROOT
ATOM      1  C   UNL     1       2.336   6.062  19.119  0.00  0.00    +0.000 C 
ATOM      2  O   UNL     1       2.154   5.485  20.197  0.00  0.00    +0.000 OA
ATOM      3  N   UNL     1       2.187   7.437  18.988  0.00  0.00    +0.000 N 
ATOM      4  C   UNL     1       2.084   8.266  20.183  0.00  0.00    +0.000 C 
ATOM      5  C   UNL     1       0.801   9.088  20.158  0.00  0.00    +0.000 C 
ATOM      6  C   UNL     1       0.624   9.878  18.852  0.00  0.00    +0.000 C 
ATOM      7  C   UNL     1       0.870   8.987  17.624  0.00  0.00    +0.000 C 
ATOM      8  C   UNL     1       2.158   8.166  17.722  0.00  0.00    +0.000 C 
ENDROOT
BRANCH   6   9
ATOM      9  C   UNL     1       1.549  11.100  18.813  0.00  0.00    +0.000 C 
ATOM     10  O   UNL     1       2.453  11.144  17.973  0.00  0.00    +0.000 OA
ATOM     11  N   UNL     1       1.384  12.143  19.721  0.00  0.00    +0.000 N 
ATOM     12  C   UNL     1       0.278  12.279  20.664  0.00  0.00    +0.000 C 
BRANCH  11  13
ATOM     13  C   UNL     1       2.341  13.271  19.627  0.00  0.00    +0.000 C 
ATOM     14  C   UNL     1       1.766  14.409  18.776  0.00  0.00    +0.000 C 
ATOM     15  C   UNL     1       2.813  13.799  20.984  0.00  0.00    +0.000 C 
ENDBRANCH  11  13
ENDBRANCH   6   9
BRANCH   1  16
ATOM     16  C   UNL     1       2.762   5.248  17.886  0.00  0.00    +0.000 C 
BRANCH  16  20
ATOM     17  C   UNL     1       7.088   5.711  17.764  0.00  0.00    +0.000 C 
ATOM     18  C   UNL     1       6.257   5.561  16.485  0.00  0.00    +0.000 C 
ATOM     19  C   UNL     1       4.776   5.891  16.667  0.00  0.00    +0.000 C 
ATOM     20  N   UNL     1       4.237   5.133  17.806  0.00  0.00    +0.000 NA
ATOM     21  C   UNL     1       4.869   5.599  19.043  0.00  0.00    +0.000 C 
ATOM     22  C   UNL     1       6.352   5.230  19.021  0.00  0.00    +0.000 C 
BRANCH  17  27
ATOM     23  C   UNL     1       9.347   9.913  19.111  0.00  0.00    +0.000 C 
ATOM     24  C   UNL     1       8.521   8.914  18.410  0.00  0.00    +0.000 A 
ATOM     25  N   UNL     1       7.850   9.200  17.289  0.00  0.00    +0.000 NA
ATOM     26  O   UNL     1       7.235   7.993  16.970  0.00  0.00    +0.000 OA
ATOM     27  C   UNL     1       7.605   7.097  17.935  0.00  0.00    +0.000 A 
ATOM     28  N   UNL     1       8.397   7.617  18.848  0.00  0.00    +0.000 NA
ENDBRANCH  17  27
ENDBRANCH  16  20
ENDBRANCH   1  16
TORSDOF 5
ENDMDL
MODEL 6
REMARK VINA RESULT:      -6.4      1.831      2.494
REMARK  Name = 
REMARK  9 active torsions:
REMARK  status: ('A' for Active; 'I' for Inactive)
REMARK    1  A    between atoms: C_1  and  C_2
REMARK    2  A    between atoms: C_5  and  C_6
REMARK    3  A    between atoms: N_9  and  C_10
REMARK    4  A    between atoms: C_10  and  C_11
REMARK    5  A    between atoms: C_16  and  C_17
REMARK    6  A    between atoms: N_19  and  C_20
REMARK    7  A    between atoms: N_19  and  C_21
REMARK    8  A    between atoms: C_21  and  C_22
REMARK    9  A    between atoms: C_21  and  C_23
REMARK                            x       y       z     vdW  Elec       q    Type
REMARK                         _______ _______ _______ _____ _____    ______ ____
ROOT
ATOM      1  C   UNL     1       2.128   7.811  19.293  0.00  0.00    +0.000 C 
ATOM      2  O   UNL     1       2.826   7.865  18.275  0.00  0.00    +0.000 OA
ATOM      3  N   UNL     1       1.262   8.838  19.646  0.00  0.00    +0.000 N 
ATOM      4  C   UNL     1       0.951   9.881  18.676  0.00  0.00    +0.000 C 
ATOM      5  C   UNL     1       1.283  11.257  19.239  0.00  0.00    +0.000 C 
ATOM      6  C   UNL     1       0.656  11.504  20.620  0.00  0.00    +0.000 C 
ATOM      7  C   UNL     1       0.905  10.317  21.565  0.00  0.00    +0.000 C 
ATOM      8  C   UNL     1       0.579   8.962  20.931  0.00  0.00    +0.000 C 
ENDROOT
BRANCH   6   9
ATOM      9  C   UNL     1      -0.848  11.782  20.504  0.00  0.00    +0.000 C 
ATOM     10  O   UNL     1      -1.480  11.291  19.565  0.00  0.00    +0.000 OA
ATOM     11  N   UNL     1      -1.492  12.591  21.438  0.00  0.00    +0.000 N 
ATOM     12  C   UNL     1      -0.895  13.114  22.662  0.00  0.00    +0.000 C 
BRANCH  11  13
ATOM     13  C   UNL     1      -2.941  12.827  21.231  0.00  0.00    +0.000 C 
ATOM     14  C   UNL     1      -3.735  12.511  22.503  0.00  0.00    +0.000 C 
ATOM     15  C   UNL     1      -3.273  14.233  20.724  0.00  0.00    +0.000 C 
ENDBRANCH  11  13
ENDBRANCH   6   9
BRANCH   1  16
ATOM     16  C   UNL     1       2.196   6.565  20.193  0.00  0.00    +0.000 C 
BRANCH  16  20
ATOM     17  C   UNL     1       4.189   3.729  17.563  0.00  0.00    +0.000 C 
ATOM     18  C   UNL     1       2.695   4.038  17.429  0.00  0.00    +0.000 C 
ATOM     19  C   UNL     1       2.277   5.359  18.073  0.00  0.00    +0.000 C 
ATOM     20  N   UNL     1       2.761   5.408  19.460  0.00  0.00    +0.000 NA
ATOM     21  C   UNL     1       4.226   5.450  19.462  0.00  0.00    +0.000 C 
ATOM     22  C   UNL     1       4.768   4.125  18.927  0.00  0.00    +0.000 C 
BRANCH  17  27
ATOM     23  C   UNL     1       7.068   4.694  13.644  0.00  0.00    +0.000 C 
ATOM     24  C   UNL     1       6.159   4.823  14.797  0.00  0.00    +0.000 A 
ATOM     25  N   UNL     1       5.615   5.993  15.150  0.00  0.00    +0.000 NA
ATOM     26  O   UNL     1       4.833   5.659  16.252  0.00  0.00    +0.000 OA
ATOM     27  C   UNL     1       4.983   4.314  16.446  0.00  0.00    +0.000 A 
ATOM     28  N   UNL     1       5.792   3.752  15.576  0.00  0.00    +0.000 NA
ENDBRANCH  17  27
ENDBRANCH  16  20
ENDBRANCH   1  16
TORSDOF 5
ENDMDL
MODEL 7
REMARK VINA RESULT:      -6.4      1.524      2.159
REMARK  Name = 
REMARK  9 active torsions:
REMARK  status: ('A' for Active; 'I' for Inactive)
REMARK    1  A    between atoms: C_1  and  C_2
REMARK    2  A    between atoms: C_5  and  C_6
REMARK    3  A    between atoms: N_9  and  C_10
REMARK    4  A    between atoms: C_10  and  C_11
REMARK    5  A    between atoms: C_16  and  C_17
REMARK    6  A    between atoms: N_19  and  C_20
REMARK    7  A    between atoms: N_19  and  C_21
REMARK    8  A    between atoms: C_21  and  C_22
REMARK    9  A    between atoms: C_21  and  C_23
REMARK                            x       y       z     vdW  Elec       q    Type
REMARK                         _______ _______ _______ _____ _____    ______ ____
ROOT
ATOM      1  C   UNL     1       2.054   8.138  18.319  0.00  0.00    +0.000 C 
ATOM      2  O   UNL     1       2.432   8.684  17.276  0.00  0.00    +0.000 OA
ATOM      3  N   UNL     1       1.355   8.830  19.299  0.00  0.00    +0.000 N 
ATOM      4  C   UNL     1       0.807  10.147  18.997  0.00  0.00    +0.000 C 
ATOM      5  C   UNL     1       1.326  11.184  19.986  0.00  0.00    +0.000 C 
ATOM      6  C   UNL     1       1.128  10.763  21.450  0.00  0.00    +0.000 C 
ATOM      7  C   UNL     1       1.603   9.321  21.685  0.00  0.00    +0.000 C 
ATOM      8  C   UNL     1       1.072   8.333  20.644  0.00  0.00    +0.000 C 
ENDROOT
BRANCH   6   9
ATOM      9  C   UNL     1      -0.338  10.914  21.877  0.00  0.00    +0.000 C 
ATOM     10  O   UNL     1      -0.959   9.916  22.256  0.00  0.00    +0.000 OA
ATOM     11  N   UNL     1      -0.967  12.156  21.827  0.00  0.00    +0.000 N 
ATOM     12  C   UNL     1      -0.311  13.427  21.535  0.00  0.00    +0.000 C 
BRANCH  11  13
ATOM     13  C   UNL     1      -2.392  12.201  22.233  0.00  0.00    +0.000 C 
ATOM     14  C   UNL     1      -2.561  12.955  23.556  0.00  0.00    +0.000 C 
ATOM     15  C   UNL     1      -3.322  12.777  21.162  0.00  0.00    +0.000 C 
ENDBRANCH  11  13
ENDBRANCH   6   9
BRANCH   1  16
ATOM     16  C   UNL     1       2.342   6.643  18.537  0.00  0.00    +0.000 C 
BRANCH  16  20
ATOM     17  C   UNL     1       6.404   5.594  17.381  0.00  0.00    +0.000 C 
ATOM     18  C   UNL     1       5.521   4.633  18.185  0.00  0.00    +0.000 C 
ATOM     19  C   UNL     1       4.027   4.937  18.087  0.00  0.00    +0.000 C 
ATOM     20  N   UNL     1       3.788   6.353  18.403  0.00  0.00    +0.000 NA
ATOM     21  C   UNL     1       4.399   7.191  17.368  0.00  0.00    +0.000 C 
ATOM     22  C   UNL     1       5.919   7.048  17.436  0.00  0.00    +0.000 C 
BRANCH  17  27
ATOM     23  C   UNL     1       6.156   3.542  12.875  0.00  0.00    +0.000 C 
ATOM     24  C   UNL     1       6.564   4.341  14.044  0.00  0.00    +0.000 A 
ATOM     25  N   UNL     1       7.580   5.209  13.997  0.00  0.00    +0.000 NA
ATOM     26  O   UNL     1       7.604   5.740  15.283  0.00  0.00    +0.000 OA
ATOM     27  C   UNL     1       6.589   5.137  15.975  0.00  0.00    +0.000 A 
ATOM     28  N   UNL     1       5.919   4.264  15.256  0.00  0.00    +0.000 NA
ENDBRANCH  17  27
ENDBRANCH  16  20
ENDBRANCH   1  16
TORSDOF 5
ENDMDL
MODEL 8
REMARK VINA RESULT:      -6.4      2.976      4.167
REMARK  Name = 
REMARK  9 active torsions:
REMARK  status: ('A' for Active; 'I' for Inactive)
REMARK    1  A    between atoms: C_1  and  C_2
REMARK    2  A    between atoms: C_5  and  C_6
REMARK    3  A    between atoms: N_9  and  C_10
REMARK    4  A    between atoms: C_10  and  C_11
REMARK    5  A    between atoms: C_16  and  C_17
REMARK    6  A    between atoms: N_19  and  C_20
REMARK    7  A    between atoms: N_19  and  C_21
REMARK    8  A    between atoms: C_21  and  C_22
REMARK    9  A    between atoms: C_21  and  C_23
REMARK                            x       y       z     vdW  Elec       q    Type
REMARK                         _______ _______ _______ _____ _____    ______ ____
ROOT
ATOM      1  C   UNL     1       1.593   9.063  18.563  0.00  0.00    +0.000 C 
ATOM      2  O   UNL     1       1.926   9.230  17.384  0.00  0.00    +0.000 OA
ATOM      3  N   UNL     1       0.704   9.916  19.203  0.00  0.00    +0.000 N 
ATOM      4  C   UNL     1      -0.072  10.868  18.417  0.00  0.00    +0.000 C 
ATOM      5  C   UNL     1       0.160  12.290  18.911  0.00  0.00    +0.000 C 
ATOM      6  C   UNL     1      -0.051  12.437  20.426  0.00  0.00    +0.000 C 
ATOM      7  C   UNL     1       0.685  11.333  21.201  0.00  0.00    +0.000 C 
ATOM      8  C   UNL     1       0.434   9.931  20.639  0.00  0.00    +0.000 C 
ENDROOT
BRANCH   6   9
ATOM      9  C   UNL     1      -1.543  12.430  20.782  0.00  0.00    +0.000 C 
ATOM     10  O   UNL     1      -2.344  11.906  20.002  0.00  0.00    +0.000 OA
ATOM     11  N   UNL     1      -1.993  13.016  21.962  0.00  0.00    +0.000 N 
ATOM     12  C   UNL     1      -1.143  13.539  23.027  0.00  0.00    +0.000 C 
BRANCH  11  13
ATOM     13  C   UNL     1      -3.454  12.985  22.210  0.00  0.00    +0.000 C 
ATOM     14  C   UNL     1      -3.756  12.585  23.658  0.00  0.00    +0.000 C 
ATOM     15  C   UNL     1      -4.171  14.289  21.851  0.00  0.00    +0.000 C 
ENDBRANCH  11  13
ENDBRANCH   6   9
BRANCH   1  16
ATOM     16  C   UNL     1       2.157   7.866  19.346  0.00  0.00    +0.000 C 
BRANCH  16  20
ATOM     17  C   UNL     1       3.268   4.152  17.368  0.00  0.00    +0.000 C 
ATOM     18  C   UNL     1       4.208   5.362  17.397  0.00  0.00    +0.000 C 
ATOM     19  C   UNL     1       3.888   6.367  18.503  0.00  0.00    +0.000 C 
ATOM     20  N   UNL     1       2.466   6.734  18.442  0.00  0.00    +0.000 NA
ATOM     21  C   UNL     1       1.648   5.563  18.767  0.00  0.00    +0.000 C 
ATOM     22  C   UNL     1       1.808   4.515  17.665  0.00  0.00    +0.000 C 
BRANCH  17  27
ATOM     23  C   UNL     1       5.200   1.265  20.905  0.00  0.00    +0.000 C 
ATOM     24  C   UNL     1       4.507   1.751  19.698  0.00  0.00    +0.000 A 
ATOM     25  N   UNL     1       3.864   0.929  18.863  0.00  0.00    +0.000 NA
ATOM     26  O   UNL     1       3.357   1.791  17.896  0.00  0.00    +0.000 OA
ATOM     27  C   UNL     1       3.745   3.053  18.254  0.00  0.00    +0.000 A 
ATOM     28  N   UNL     1       4.459   3.082  19.357  0.00  0.00    +0.000 NA
ENDBRANCH  17  27
ENDBRANCH  16  20
ENDBRANCH   1  16
TORSDOF 5
ENDMDL
MODEL 9
REMARK VINA RESULT:      -6.4      2.663     10.604
REMARK  Name = 
REMARK  9 active torsions:
REMARK  status: ('A' for Active; 'I' for Inactive)
REMARK    1  A    between atoms: C_1  and  C_2
REMARK    2  A    between atoms: C_5  and  C_6
REMARK    3  A    between atoms: N_9  and  C_10
REMARK    4  A    between atoms: C_10  and  C_11
REMARK    5  A    between atoms: C_16  and  C_17
REMARK    6  A    between atoms: N_19  and  C_20
REMARK    7  A    between atoms: N_19  and  C_21
REMARK    8  A    between atoms: C_21  and  C_22
REMARK    9  A    between atoms: C_21  and  C_23
REMARK                            x       y       z     vdW  Elec       q    Type
REMARK                         _______ _______ _______ _____ _____    ______ ____
ROOT
ATOM      1  C   UNL     1       0.896   9.374  19.454  0.00  0.00    +0.000 C 
ATOM      2  O   UNL     1       0.653  10.243  18.610  0.00  0.00    +0.000 OA
ATOM      3  N   UNL     1       1.881   8.415  19.260  0.00  0.00    +0.000 N 
ATOM      4  C   UNL     1       2.842   8.581  18.176  0.00  0.00    +0.000 C 
ATOM      5  C   UNL     1       2.825   7.370  17.252  0.00  0.00    +0.000 C 
ATOM      6  C   UNL     1       2.983   6.041  18.007  0.00  0.00    +0.000 C 
ATOM      7  C   UNL     1       2.038   5.972  19.217  0.00  0.00    +0.000 C 
ATOM      8  C   UNL     1       2.081   7.229  20.089  0.00  0.00    +0.000 C 
ENDROOT
BRANCH   6   9
ATOM      9  C   UNL     1       4.434   5.828  18.456  0.00  0.00    +0.000 C 
ATOM     10  O   UNL     1       4.672   5.639  19.653  0.00  0.00    +0.000 OA
ATOM     11  N   UNL     1       5.475   5.861  17.530  0.00  0.00    +0.000 N 
ATOM     12  C   UNL     1       5.318   5.935  16.081  0.00  0.00    +0.000 C 
BRANCH  11  13
ATOM     13  C   UNL     1       6.847   5.672  18.059  0.00  0.00    +0.000 C 
ATOM     14  C   UNL     1       7.555   4.516  17.345  0.00  0.00    +0.000 C 
ATOM     15  C   UNL     1       7.706   6.938  18.016  0.00  0.00    +0.000 C 
ENDBRANCH  11  13
ENDBRANCH   6   9
BRANCH   1  16
ATOM     16  C   UNL     1       0.104   9.358  20.773  0.00  0.00    +0.000 C 
BRANCH  16  20
ATOM     17  C   UNL     1      -1.948  13.003  21.973  0.00  0.00    +0.000 C 
ATOM     18  C   UNL     1      -1.682  12.676  20.500  0.00  0.00    +0.000 C 
ATOM     19  C   UNL     1      -1.408  11.196  20.235  0.00  0.00    +0.000 C 
ATOM     20  N   UNL     1      -0.351  10.719  21.139  0.00  0.00    +0.000 NA
ATOM     21  C   UNL     1      -0.838  10.758  22.520  0.00  0.00    +0.000 C 
ATOM     22  C   UNL     1      -1.055  12.212  22.938  0.00  0.00    +0.000 C 
BRANCH  17  27
ATOM     23  C   UNL     1      -6.888  12.622  22.132  0.00  0.00    +0.000 C 
ATOM     24  C   UNL     1      -5.461  12.669  22.498  0.00  0.00    +0.000 A 
ATOM     25  N   UNL     1      -5.034  12.432  23.743  0.00  0.00    +0.000 NA
ATOM     26  O   UNL     1      -3.652  12.563  23.635  0.00  0.00    +0.000 OA
ATOM     27  C   UNL     1      -3.388  12.861  22.326  0.00  0.00    +0.000 A 
ATOM     28  N   UNL     1      -4.470  12.939  21.584  0.00  0.00    +0.000 NA
ENDBRANCH  17  27
ENDBRANCH  16  20
ENDBRANCH   1  16
TORSDOF 5
ENDMDL
