MODEL 1
REMARK VINA RESULT:      -8.2      0.000      0.000
REMARK  Name = 
REMARK  16 active torsions:
REMARK  status: ('A' for Active; 'I' for Inactive)
REMARK    1  A    between atoms: C_1  and  C_2
REMARK    2  A    between atoms: C_2  and  C_3
REMARK    3  A    between atoms: C_3  and  C_4
REMARK    4  A    between atoms: C_4  and  C_5
REMARK    5  A    between atoms: C_5  and  C_6
REMARK    6  A    between atoms: C_6  and  N_7
REMARK    7  A    between atoms: N_7  and  C_8
REMARK    8  A    between atoms: C_8  and  C_9
REMARK    9  A    between atoms: C_9  and  C_10
REMARK   10  A    between atoms: C_10  and  C_11
REMARK   11  A    between atoms: C_11  and  C_12
REMARK   12  A    between atoms: C_12  and  C_13
REMARK   13  A    between atoms: C_14  and  C_16
REMARK   14  A    between atoms: C_16  and  C_18
REMARK   15  A    between atoms: C_19  and  C_20
REMARK   16  A    between atoms: C_23  and  N_24
REMARK                            x       y       z     vdW  Elec       q    Type
REMARK                         _______ _______ _______ _____ _____    ______ ____
ROOT
ATOM      1  C   UNL     1       3.214   5.969  19.050  0.00  0.00    +0.000 A 
ATOM      2  C   UNL     1       2.235   6.729  19.703  0.00  0.00    +0.000 A 
ATOM      3  N   UNL     1       1.728   5.932  20.708  0.00  0.00    +0.000 N 
ATOM      4  C   UNL     1       2.347   4.709  20.745  0.00  0.00    +0.000 A 
ATOM      5  C   UNL     1       2.167   3.638  21.632  0.00  0.00    +0.000 A 
ATOM      6  C   UNL     1       2.951   2.496  21.447  0.00  0.00    +0.000 A 
ATOM      7  C   UNL     1       3.853   2.420  20.395  0.00  0.00    +0.000 A 
ATOM      8  C   UNL     1       3.992   3.489  19.504  0.00  0.00    +0.000 A 
ATOM      9  C   UNL     1       3.251   4.678  19.687  0.00  0.00    +0.000 A 
ATOM     10  H   UNL     1       0.991   6.208  21.341  0.00  0.00    +0.000 HD
ENDROOT
BRANCH   2  11
ATOM     11  C   UNL     1       1.710   8.085  19.473  0.00  0.00    +0.000 A 
ATOM     12  C   UNL     1       1.634   8.621  18.181  0.00  0.00    +0.000 A 
ATOM     13  C   UNL     1       1.166   9.923  17.963  0.00  0.00    +0.000 A 
ATOM     14  C   UNL     1       0.688  10.698  19.018  0.00  0.00    +0.000 A 
ATOM     15  C   UNL     1       0.781  10.183  20.312  0.00  0.00    +0.000 A 
ATOM     16  C   UNL     1       1.273   8.890  20.539  0.00  0.00    +0.000 A 
BRANCH  14  17
ATOM     17  N   UNL     1       0.352  12.039  18.811  0.00  0.00    +0.000 N 
ATOM     18  H   UNL     1       0.599  12.387  17.889  0.00  0.00    +0.000 HD
ATOM     19  H   UNL     1      -0.598  12.273  19.073  0.00  0.00    +0.000 HD
ENDBRANCH  14  17
ENDBRANCH   2  11
BRANCH   1  20
ATOM     20  C   UNL     1       4.074   6.448  17.957  0.00  0.00    +0.000 C 
ATOM     21  O   UNL     1       4.230   7.641  17.703  0.00  0.00    +0.000 OA
BRANCH  20  23
ATOM     22  N   UNL     1       6.231   5.561  16.986  0.00  0.00    +0.000 N 
ATOM     23  C   UNL     1       4.824   5.454  17.067  0.00  0.00    +0.000 C 
ATOM     24  O   UNL     1       4.152   4.628  16.460  0.00  0.00    +0.000 OA
BRANCH  22  25
ATOM     25  C   UNL     1       6.939   4.571  16.153  0.00  0.00    +0.000 C 
BRANCH  25  26
ATOM     26  C   UNL     1       6.784   4.785  14.645  0.00  0.00    +0.000 C 
BRANCH  26  27
ATOM     27  C   UNL     1       6.370   3.517  13.877  0.00  0.00    +0.000 C 
BRANCH  27  28
ATOM     28  C   UNL     1       5.112   3.816  13.050  0.00  0.00    +0.000 C 
BRANCH  28  30
ATOM     29  C   UNL     1       3.758   3.311  11.005  0.00  0.00    +0.000 C 
ATOM     30  C   UNL     1       5.154   3.278  11.622  0.00  0.00    +0.000 C 
ENDBRANCH  28  30
ENDBRANCH  27  28
ENDBRANCH  26  27
ENDBRANCH  25  26
ENDBRANCH  22  25
BRANCH  22  31
ATOM     31  C   UNL     1       6.941   6.461  17.904  0.00  0.00    +0.000 C 
BRANCH  31  32
ATOM     32  C   UNL     1       7.579   7.730  17.368  0.00  0.00    +0.000 C 
BRANCH  32  33
ATOM     33  C   UNL     1       8.379   8.537  18.384  0.00  0.00    +0.000 C 
BRANCH  33  34
ATOM     34  C   UNL     1       8.306  10.005  17.965  0.00  0.00    +0.000 C 
BRANCH  34  35
ATOM     35  C   UNL     1       9.487  10.827  18.455  0.00  0.00    +0.000 C 
ATOM     36  C   UNL     1       9.524  10.822  19.976  0.00  0.00    +0.000 C 
ENDBRANCH  34  35
ENDBRANCH  33  34
ENDBRANCH  32  33
ENDBRANCH  31  32
ENDBRANCH  22  31
ENDBRANCH  20  23
ENDBRANCH   1  20
TORSDOF 14
ENDMDL
MODEL 2
REMARK VINA RESULT:      -8.1      0.854      1.310
REMARK  Name = 
REMARK  16 active torsions:
REMARK  status: ('A' for Active; 'I' for Inactive)
REMARK    1  A    between atoms: C_1  and  C_2
REMARK    2  A    between atoms: C_2  and  C_3
REMARK    3  A    between atoms: C_3  and  C_4
REMARK    4  A    between atoms: C_4  and  C_5
REMARK    5  A    between atoms: C_5  and  C_6
REMARK    6  A    between atoms: C_6  and  N_7
REMARK    7  A    between atoms: N_7  and  C_8
REMARK    8  A    between atoms: C_8  and  C_9
REMARK    9  A    between atoms: C_9  and  C_10
REMARK   10  A    between atoms: C_10  and  C_11
REMARK   11  A    between atoms: C_11  and  C_12
REMARK   12  A    between atoms: C_12  and  C_13
REMARK   13  A    between atoms: C_14  and  C_16
REMARK   14  A    between atoms: C_16  and  C_18
REMARK   15  A    between atoms: C_19  and  C_20
REMARK   16  A    between atoms: C_23  and  N_24
REMARK                            x       y       z     vdW  Elec       q    Type
REMARK                         _______ _______ _______ _____ _____    ______ ____
ROOT
ATOM      1  C   UNL     1       3.281   5.748  19.097  0.00  0.00    +0.000 A 
ATOM      2  C   UNL     1       2.314   6.571  19.690  0.00  0.00    +0.000 A 
ATOM      3  N   UNL     1       1.740   5.831  20.703  0.00  0.00    +0.000 N 
ATOM      4  C   UNL     1       2.304   4.584  20.802  0.00  0.00    +0.000 A 
ATOM      5  C   UNL     1       2.048   3.553  21.716  0.00  0.00    +0.000 A 
ATOM      6  C   UNL     1       2.787   2.374  21.597  0.00  0.00    +0.000 A 
ATOM      7  C   UNL     1       3.720   2.223  20.581  0.00  0.00    +0.000 A 
ATOM      8  C   UNL     1       3.935   3.254  19.660  0.00  0.00    +0.000 A 
ATOM      9  C   UNL     1       3.241   4.480  19.778  0.00  0.00    +0.000 A 
ATOM     10  H   UNL     1       0.995   6.160  21.299  0.00  0.00    +0.000 HD
ENDROOT
BRANCH   2  11
ATOM     11  C   UNL     1       1.857   7.939  19.397  0.00  0.00    +0.000 A 
ATOM     12  C   UNL     1       1.322   8.753  20.404  0.00  0.00    +0.000 A 
ATOM     13  C   UNL     1       0.855  10.042  20.122  0.00  0.00    +0.000 A 
ATOM     14  C   UNL     1       0.980  10.585  18.845  0.00  0.00    +0.000 A 
ATOM     15  C   UNL     1       1.490   9.775  17.829  0.00  0.00    +0.000 A 
ATOM     16  C   UNL     1       1.935   8.473  18.100  0.00  0.00    +0.000 A 
BRANCH  14  17
ATOM     17  N   UNL     1       0.390  11.816  18.542  0.00  0.00    +0.000 N 
ATOM     18  H   UNL     1      -0.518  11.954  18.974  0.00  0.00    +0.000 HD
ATOM     19  H   UNL     1       1.005  12.612  18.668  0.00  0.00    +0.000 HD
ENDBRANCH  14  17
ENDBRANCH   2  11
BRANCH   1  20
ATOM     20  C   UNL     1       4.198   6.152  18.021  0.00  0.00    +0.000 C 
ATOM     21  O   UNL     1       4.689   7.278  17.948  0.00  0.00    +0.000 OA
BRANCH  20  23
ATOM     22  N   UNL     1       5.955   4.994  16.624  0.00  0.00    +0.000 N 
ATOM     23  C   UNL     1       4.584   5.163  16.918  0.00  0.00    +0.000 C 
ATOM     24  O   UNL     1       3.670   4.585  16.339  0.00  0.00    +0.000 OA
BRANCH  22  25
ATOM     25  C   UNL     1       6.309   4.010  15.583  0.00  0.00    +0.000 C 
BRANCH  25  26
ATOM     26  C   UNL     1       5.777   4.345  14.187  0.00  0.00    +0.000 C 
BRANCH  26  27
ATOM     27  C   UNL     1       6.710   3.904  13.045  0.00  0.00    +0.000 C 
BRANCH  27  28
ATOM     28  C   UNL     1       5.972   2.902  12.148  0.00  0.00    +0.000 C 
BRANCH  28  30
ATOM     29  C   UNL     1       6.239   0.675  11.033  0.00  0.00    +0.000 C 
ATOM     30  C   UNL     1       6.886   2.033  11.286  0.00  0.00    +0.000 C 
ENDBRANCH  28  30
ENDBRANCH  27  28
ENDBRANCH  26  27
ENDBRANCH  25  26
ENDBRANCH  22  25
BRANCH  22  31
ATOM     31  C   UNL     1       6.964   5.592  17.508  0.00  0.00    +0.000 C 
BRANCH  31  32
ATOM     32  C   UNL     1       7.576   6.935  17.151  0.00  0.00    +0.000 C 
BRANCH  32  33
ATOM     33  C   UNL     1       8.114   7.740  18.327  0.00  0.00    +0.000 C 
BRANCH  33  34
ATOM     34  C   UNL     1       8.126   9.211  17.912  0.00  0.00    +0.000 C 
BRANCH  34  35
ATOM     35  C   UNL     1       9.151  10.039  18.668  0.00  0.00    +0.000 C 
ATOM     36  C   UNL     1       9.158  11.464  18.136  0.00  0.00    +0.000 C 
ENDBRANCH  34  35
ENDBRANCH  33  34
ENDBRANCH  32  33
ENDBRANCH  31  32
ENDBRANCH  22  31
ENDBRANCH  20  23
ENDBRANCH   1  20
TORSDOF 14
ENDMDL
MODEL 3
REMARK VINA RESULT:      -7.9      2.831      7.361
REMARK  Name = 
REMARK  16 active torsions:
REMARK  status: ('A' for Active; 'I' for Inactive)
REMARK    1  A    between atoms: C_1  and  C_2
REMARK    2  A    between atoms: C_2  and  C_3
REMARK    3  A    between atoms: C_3  and  C_4
REMARK    4  A    between atoms: C_4  and  C_5
REMARK    5  A    between atoms: C_5  and  C_6
REMARK    6  A    between atoms: C_6  and  N_7
REMARK    7  A    between atoms: N_7  and  C_8
REMARK    8  A    between atoms: C_8  and  C_9
REMARK    9  A    between atoms: C_9  and  C_10
REMARK   10  A    between atoms: C_10  and  C_11
REMARK   11  A    between atoms: C_11  and  C_12
REMARK   12  A    between atoms: C_12  and  C_13
REMARK   13  A    between atoms: C_14  and  C_16
REMARK   14  A    between atoms: C_16  and  C_18
REMARK   15  A    between atoms: C_19  and  C_20
REMARK   16  A    between atoms: C_23  and  N_24
REMARK                            x       y       z     vdW  Elec       q    Type
REMARK                         _______ _______ _______ _____ _____    ______ ____
ROOT
ATOM      1  C   UNL     1       3.427   4.949  18.282  0.00  0.00    +0.000 A 
ATOM      2  C   UNL     1       3.945   4.230  17.196  0.00  0.00    +0.000 A 
ATOM      3  N   UNL     1       3.241   3.044  17.143  0.00  0.00    +0.000 N 
ATOM      4  C   UNL     1       2.288   2.976  18.126  0.00  0.00    +0.000 A 
ATOM      5  C   UNL     1       1.339   1.978  18.389  0.00  0.00    +0.000 A 
ATOM      6  C   UNL     1       0.465   2.172  19.462  0.00  0.00    +0.000 A 
ATOM      7  C   UNL     1       0.563   3.305  20.258  0.00  0.00    +0.000 A 
ATOM      8  C   UNL     1       1.538   4.272  19.996  0.00  0.00    +0.000 A 
ATOM      9  C   UNL     1       2.409   4.133  18.891  0.00  0.00    +0.000 A 
ATOM     10  H   UNL     1       3.406   2.312  16.468  0.00  0.00    +0.000 HD
ENDROOT
BRANCH   2  11
ATOM     11  C   UNL     1       5.026   4.513  16.238  0.00  0.00    +0.000 A 
ATOM     12  C   UNL     1       6.121   5.309  16.600  0.00  0.00    +0.000 A 
ATOM     13  C   UNL     1       7.134   5.608  15.681  0.00  0.00    +0.000 A 
ATOM     14  C   UNL     1       7.124   5.058  14.401  0.00  0.00    +0.000 A 
ATOM     15  C   UNL     1       6.027   4.284  14.022  0.00  0.00    +0.000 A 
ATOM     16  C   UNL     1       4.996   4.003  14.930  0.00  0.00    +0.000 A 
BRANCH  14  17
ATOM     17  N   UNL     1       8.064   5.470  13.451  0.00  0.00    +0.000 N 
ATOM     18  H   UNL     1       8.546   4.704  12.991  0.00  0.00    +0.000 HD
ATOM     19  H   UNL     1       7.716   6.160  12.795  0.00  0.00    +0.000 HD
ENDBRANCH  14  17
ENDBRANCH   2  11
BRANCH   1  20
ATOM     20  C   UNL     1       3.827   6.310  18.668  0.00  0.00    +0.000 C 
ATOM     21  O   UNL     1       4.687   6.539  19.517  0.00  0.00    +0.000 OA
BRANCH  20  23
ATOM     22  N   UNL     1       2.116   8.168  18.708  0.00  0.00    +0.000 N 
ATOM     23  C   UNL     1       3.167   7.528  18.015  0.00  0.00    +0.000 C 
ATOM     24  O   UNL     1       3.583   7.866  16.912  0.00  0.00    +0.000 OA
BRANCH  22  25
ATOM     25  C   UNL     1       1.518   9.361  18.080  0.00  0.00    +0.000 C 
BRANCH  25  26
ATOM     26  C   UNL     1       0.033   9.218  17.734  0.00  0.00    +0.000 C 
BRANCH  26  27
ATOM     27  C   UNL     1      -0.817  10.440  18.129  0.00  0.00    +0.000 C 
BRANCH  27  28
ATOM     28  C   UNL     1      -2.288  10.161  17.794  0.00  0.00    +0.000 C 
BRANCH  28  30
ATOM     29  C   UNL     1      -2.941  10.878  15.485  0.00  0.00    +0.000 C 
ATOM     30  C   UNL     1      -2.531   9.696  16.359  0.00  0.00    +0.000 C 
ENDBRANCH  28  30
ENDBRANCH  27  28
ENDBRANCH  26  27
ENDBRANCH  25  26
ENDBRANCH  22  25
BRANCH  22  31
ATOM     31  C   UNL     1       1.835   7.795  20.101  0.00  0.00    +0.000 C 
BRANCH  31  32
ATOM     32  C   UNL     1       1.336   8.848  21.075  0.00  0.00    +0.000 C 
BRANCH  32  33
ATOM     33  C   UNL     1      -0.156   8.800  21.378  0.00  0.00    +0.000 C 
BRANCH  33  34
ATOM     34  C   UNL     1      -0.353   9.323  22.801  0.00  0.00    +0.000 C 
BRANCH  34  35
ATOM     35  C   UNL     1      -0.549  10.829  22.864  0.00  0.00    +0.000 C 
ATOM     36  C   UNL     1      -1.295  11.305  21.627  0.00  0.00    +0.000 C 
ENDBRANCH  34  35
ENDBRANCH  33  34
ENDBRANCH  32  33
ENDBRANCH  31  32
ENDBRANCH  22  31
ENDBRANCH  20  23
ENDBRANCH   1  20
TORSDOF 14
ENDMDL
MODEL 4
REMARK VINA RESULT:      -7.7      2.853      7.392
REMARK  Name = 
REMARK  16 active torsions:
REMARK  status: ('A' for Active; 'I' for Inactive)
REMARK    1  A    between atoms: C_1  and  C_2
REMARK    2  A    between atoms: C_2  and  C_3
REMARK    3  A    between atoms: C_3  and  C_4
REMARK    4  A    between atoms: C_4  and  C_5
REMARK    5  A    between atoms: C_5  and  C_6
REMARK    6  A    between atoms: C_6  and  N_7
REMARK    7  A    between atoms: N_7  and  C_8
REMARK    8  A    between atoms: C_8  and  C_9
REMARK    9  A    between atoms: C_9  and  C_10
REMARK   10  A    between atoms: C_10  and  C_11
REMARK   11  A    between atoms: C_11  and  C_12
REMARK   12  A    between atoms: C_12  and  C_13
REMARK   13  A    between atoms: C_14  and  C_16
REMARK   14  A    between atoms: C_16  and  C_18
REMARK   15  A    between atoms: C_19  and  C_20
REMARK   16  A    between atoms: C_23  and  N_24
REMARK                            x       y       z     vdW  Elec       q    Type
REMARK                         _______ _______ _______ _____ _____    ______ ____
ROOT
ATOM      1  C   UNL     1       3.407   5.004  18.275  0.00  0.00    +0.000 A 
ATOM      2  C   UNL     1       4.001   4.260  17.247  0.00  0.00    +0.000 A 
ATOM      3  N   UNL     1       3.387   3.024  17.256  0.00  0.00    +0.000 N 
ATOM      4  C   UNL     1       2.418   2.946  18.223  0.00  0.00    +0.000 A 
ATOM      5  C   UNL     1       1.539   1.899  18.530  0.00  0.00    +0.000 A 
ATOM      6  C   UNL     1       0.628   2.092  19.571  0.00  0.00    +0.000 A 
ATOM      7  C   UNL     1       0.624   3.276  20.297  0.00  0.00    +0.000 A 
ATOM      8  C   UNL     1       1.532   4.295  19.992  0.00  0.00    +0.000 A 
ATOM      9  C   UNL     1       2.436   4.154  18.915  0.00  0.00    +0.000 A 
ATOM     10  H   UNL     1       3.621   2.266  16.631  0.00  0.00    +0.000 HD
ENDROOT
BRANCH   2  11
ATOM     11  C   UNL     1       5.081   4.564  16.294  0.00  0.00    +0.000 A 
ATOM     12  C   UNL     1       4.906   4.369  14.918  0.00  0.00    +0.000 A 
ATOM     13  C   UNL     1       5.943   4.626  14.013  0.00  0.00    +0.000 A 
ATOM     14  C   UNL     1       7.156   5.158  14.446  0.00  0.00    +0.000 A 
ATOM     15  C   UNL     1       7.349   5.334  15.817  0.00  0.00    +0.000 A 
ATOM     16  C   UNL     1       6.323   5.054  16.731  0.00  0.00    +0.000 A 
BRANCH  14  17
ATOM     17  N   UNL     1       8.228   5.282  13.557  0.00  0.00    +0.000 N 
ATOM     18  H   UNL     1       8.979   5.874  13.898  0.00  0.00    +0.000 HD
ATOM     19  H   UNL     1       8.565   4.400  13.189  0.00  0.00    +0.000 HD
ENDBRANCH  14  17
ENDBRANCH   2  11
BRANCH   1  20
ATOM     20  C   UNL     1       3.696   6.413  18.583  0.00  0.00    +0.000 C 
ATOM     21  O   UNL     1       4.579   6.758  19.367  0.00  0.00    +0.000 OA
BRANCH  20  23
ATOM     22  N   UNL     1       1.971   8.253  18.724  0.00  0.00    +0.000 N 
ATOM     23  C   UNL     1       2.887   7.533  17.924  0.00  0.00    +0.000 C 
ATOM     24  O   UNL     1       3.072   7.729  16.728  0.00  0.00    +0.000 OA
BRANCH  22  25
ATOM     25  C   UNL     1       1.228   9.353  18.081  0.00  0.00    +0.000 C 
BRANCH  25  26
ATOM     26  C   UNL     1       1.321  10.694  18.814  0.00  0.00    +0.000 C 
BRANCH  26  27
ATOM     27  C   UNL     1      -0.003  11.479  18.841  0.00  0.00    +0.000 C 
BRANCH  27  28
ATOM     28  C   UNL     1      -1.155  10.537  18.466  0.00  0.00    +0.000 C 
BRANCH  28  30
ATOM     29  C   UNL     1      -2.464  10.147  16.367  0.00  0.00    +0.000 C 
ATOM     30  C   UNL     1      -2.167  11.135  17.491  0.00  0.00    +0.000 C 
ENDBRANCH  28  30
ENDBRANCH  27  28
ENDBRANCH  26  27
ENDBRANCH  25  26
ENDBRANCH  22  25
BRANCH  22  31
ATOM     31  C   UNL     1       1.976   8.060  20.180  0.00  0.00    +0.000 C 
BRANCH  31  32
ATOM     32  C   UNL     1       0.737   7.516  20.870  0.00  0.00    +0.000 C 
BRANCH  32  33
ATOM     33  C   UNL     1      -0.242   8.568  21.375  0.00  0.00    +0.000 C 
BRANCH  33  34
ATOM     34  C   UNL     1       0.382   9.225  22.606  0.00  0.00    +0.000 C 
BRANCH  34  35
ATOM     35  C   UNL     1      -0.566  10.171  23.325  0.00  0.00    +0.000 C 
ATOM     36  C   UNL     1      -1.002  11.282  22.382  0.00  0.00    +0.000 C 
ENDBRANCH  34  35
ENDBRANCH  33  34
ENDBRANCH  32  33
ENDBRANCH  31  32
ENDBRANCH  22  31
ENDBRANCH  20  23
ENDBRANCH   1  20
TORSDOF 14
ENDMDL
MODEL 5
REMARK VINA RESULT:      -7.5      2.665      7.125
REMARK  Name = 
REMARK  16 active torsions:
REMARK  status: ('A' for Active; 'I' for Inactive)
REMARK    1  A    between atoms: C_1  and  C_2
REMARK    2  A    between atoms: C_2  and  C_3
REMARK    3  A    between atoms: C_3  and  C_4
REMARK    4  A    between atoms: C_4  and  C_5
REMARK    5  A    between atoms: C_5  and  C_6
REMARK    6  A    between atoms: C_6  and  N_7
REMARK    7  A    between atoms: N_7  and  C_8
REMARK    8  A    between atoms: C_8  and  C_9
REMARK    9  A    between atoms: C_9  and  C_10
REMARK   10  A    between atoms: C_10  and  C_11
REMARK   11  A    between atoms: C_11  and  C_12
REMARK   12  A    between atoms: C_12  and  C_13
REMARK   13  A    between atoms: C_14  and  C_16
REMARK   14  A    between atoms: C_16  and  C_18
REMARK   15  A    between atoms: C_19  and  C_20
REMARK   16  A    between atoms: C_23  and  N_24
REMARK                            x       y       z     vdW  Elec       q    Type
REMARK                         _______ _______ _______ _____ _____    ______ ____
ROOT
ATOM      1  C   UNL     1       2.951   4.523  18.724  0.00  0.00    +0.000 A 
ATOM      2  C   UNL     1       4.227   4.065  18.370  0.00  0.00    +0.000 A 
ATOM      3  N   UNL     1       4.563   3.095  19.293  0.00  0.00    +0.000 N 
ATOM      4  C   UNL     1       3.560   2.895  20.206  0.00  0.00    +0.000 A 
ATOM      5  C   UNL     1       3.479   1.980  21.265  0.00  0.00    +0.000 A 
ATOM      6  C   UNL     1       2.319   1.980  22.043  0.00  0.00    +0.000 A 
ATOM      7  C   UNL     1       1.297   2.885  21.790  0.00  0.00    +0.000 A 
ATOM      8  C   UNL     1       1.414   3.810  20.748  0.00  0.00    +0.000 A 
ATOM      9  C   UNL     1       2.552   3.809  19.910  0.00  0.00    +0.000 A 
ATOM     10  H   UNL     1       5.439   2.594  19.301  0.00  0.00    +0.000 HD
ENDROOT
BRANCH   2  11
ATOM     11  C   UNL     1       5.161   4.450  17.300  0.00  0.00    +0.000 A 
ATOM     12  C   UNL     1       5.003   3.967  15.995  0.00  0.00    +0.000 A 
ATOM     13  C   UNL     1       5.909   4.305  14.983  0.00  0.00    +0.000 A 
ATOM     14  C   UNL     1       6.953   5.196  15.225  0.00  0.00    +0.000 A 
ATOM     15  C   UNL     1       7.134   5.664  16.526  0.00  0.00    +0.000 A 
ATOM     16  C   UNL     1       6.245   5.309  17.551  0.00  0.00    +0.000 A 
BRANCH  14  17
ATOM     17  N   UNL     1       7.929   5.420  14.248  0.00  0.00    +0.000 N 
ATOM     18  H   UNL     1       8.139   6.401  14.094  0.00  0.00    +0.000 HD
ATOM     19  H   UNL     1       8.763   4.856  14.359  0.00  0.00    +0.000 HD
ENDBRANCH  14  17
ENDBRANCH   2  11
BRANCH   1  20
ATOM     20  C   UNL     1       2.161   5.507  17.970  0.00  0.00    +0.000 C 
ATOM     21  O   UNL     1       1.149   5.210  17.336  0.00  0.00    +0.000 OA
BRANCH  20  23
ATOM     22  N   UNL     1       2.077   7.837  18.943  0.00  0.00    +0.000 N 
ATOM     23  C   UNL     1       2.580   6.979  17.940  0.00  0.00    +0.000 C 
ATOM     24  O   UNL     1       3.320   7.332  17.028  0.00  0.00    +0.000 OA
BRANCH  22  25
ATOM     25  C   UNL     1       2.522   9.243  18.919  0.00  0.00    +0.000 C 
BRANCH  25  26
ATOM     26  C   UNL     1       1.725  10.144  17.970  0.00  0.00    +0.000 C 
BRANCH  26  27
ATOM     27  C   UNL     1       0.440  10.718  18.593  0.00  0.00    +0.000 C 
BRANCH  27  28
ATOM     28  C   UNL     1      -0.757   9.860  18.159  0.00  0.00    +0.000 C 
BRANCH  28  30
ATOM     29  C   UNL     1      -3.215   9.714  17.700  0.00  0.00    +0.000 C 
ATOM     30  C   UNL     1      -2.024  10.656  17.851  0.00  0.00    +0.000 C 
ENDBRANCH  28  30
ENDBRANCH  27  28
ENDBRANCH  26  27
ENDBRANCH  25  26
ENDBRANCH  22  25
BRANCH  22  31
ATOM     31  C   UNL     1       1.358   7.265  20.089  0.00  0.00    +0.000 C 
BRANCH  31  32
ATOM     32  C   UNL     1       1.153   8.101  21.340  0.00  0.00    +0.000 C 
BRANCH  32  33
ATOM     33  C   UNL     1      -0.237   8.704  21.502  0.00  0.00    +0.000 C 
BRANCH  33  34
ATOM     34  C   UNL     1      -0.122   9.867  22.487  0.00  0.00    +0.000 C 
BRANCH  34  35
ATOM     35  C   UNL     1      -1.013  11.046  22.128  0.00  0.00    +0.000 C 
ATOM     36  C   UNL     1      -0.157  12.271  21.843  0.00  0.00    +0.000 C 
ENDBRANCH  34  35
ENDBRANCH  33  34
ENDBRANCH  32  33
ENDBRANCH  31  32
ENDBRANCH  22  31
ENDBRANCH  20  23
ENDBRANCH   1  20
TORSDOF 14
ENDMDL
MODEL 6
REMARK VINA RESULT:      -7.5      3.753      7.952
REMARK  Name = 
REMARK  16 active torsions:
REMARK  status: ('A' for Active; 'I' for Inactive)
REMARK    1  A    between atoms: C_1  and  C_2
REMARK    2  A    between atoms: C_2  and  C_3
REMARK    3  A    between atoms: C_3  and  C_4
REMARK    4  A    between atoms: C_4  and  C_5
REMARK    5  A    between atoms: C_5  and  C_6
REMARK    6  A    between atoms: C_6  and  N_7
REMARK    7  A    between atoms: N_7  and  C_8
REMARK    8  A    between atoms: C_8  and  C_9
REMARK    9  A    between atoms: C_9  and  C_10
REMARK   10  A    between atoms: C_10  and  C_11
REMARK   11  A    between atoms: C_11  and  C_12
REMARK   12  A    between atoms: C_12  and  C_13
REMARK   13  A    between atoms: C_14  and  C_16
REMARK   14  A    between atoms: C_16  and  C_18
REMARK   15  A    between atoms: C_19  and  C_20
REMARK   16  A    between atoms: C_23  and  N_24
REMARK                            x       y       z     vdW  Elec       q    Type
REMARK                         _______ _______ _______ _____ _____    ______ ____
ROOT
ATOM      1  C   UNL     1      -0.012  12.056  19.791  0.00  0.00    +0.000 A 
ATOM      2  C   UNL     1      -0.791  12.974  20.509  0.00  0.00    +0.000 A 
ATOM      3  N   UNL     1      -0.178  14.201  20.365  0.00  0.00    +0.000 N 
ATOM      4  C   UNL     1       0.940  14.120  19.576  0.00  0.00    +0.000 A 
ATOM      5  C   UNL     1       1.810  15.132  19.145  0.00  0.00    +0.000 A 
ATOM      6  C   UNL     1       2.879  14.769  18.322  0.00  0.00    +0.000 A 
ATOM      7  C   UNL     1       3.086  13.441  17.975  0.00  0.00    +0.000 A 
ATOM      8  C   UNL     1       2.222  12.445  18.443  0.00  0.00    +0.000 A 
ATOM      9  C   UNL     1       1.103  12.780  19.238  0.00  0.00    +0.000 A 
ATOM     10  H   UNL     1      -0.507  15.057  20.788  0.00  0.00    +0.000 HD
ENDROOT
BRANCH   2  11
ATOM     11  C   UNL     1      -2.006  12.824  21.326  0.00  0.00    +0.000 A 
ATOM     12  C   UNL     1      -3.275  13.064  20.783  0.00  0.00    +0.000 A 
ATOM     13  C   UNL     1      -4.430  12.955  21.567  0.00  0.00    +0.000 A 
ATOM     14  C   UNL     1      -4.360  12.527  22.891  0.00  0.00    +0.000 A 
ATOM     15  C   UNL     1      -3.099  12.308  23.448  0.00  0.00    +0.000 A 
ATOM     16  C   UNL     1      -1.937  12.441  22.676  0.00  0.00    +0.000 A 
BRANCH  14  17
ATOM     17  N   UNL     1      -5.500  12.552  23.701  0.00  0.00    +0.000 N 
ATOM     18  H   UNL     1      -6.029  13.416  23.639  0.00  0.00    +0.000 HD
ATOM     19  H   UNL     1      -6.086  11.730  23.616  0.00  0.00    +0.000 HD
ENDBRANCH  14  17
ENDBRANCH   2  11
BRANCH   1  20
ATOM     20  C   UNL     1      -0.333  10.633  19.603  0.00  0.00    +0.000 C 
ATOM     21  O   UNL     1      -1.104  10.231  18.733  0.00  0.00    +0.000 OA
BRANCH  20  23
ATOM     22  N   UNL     1       1.200   8.652  19.932  0.00  0.00    +0.000 N 
ATOM     23  C   UNL     1       0.294   9.570  20.509  0.00  0.00    +0.000 C 
ATOM     24  O   UNL     1      -0.045   9.568  21.687  0.00  0.00    +0.000 OA
BRANCH  22  25
ATOM     25  C   UNL     1       1.821   7.659  20.828  0.00  0.00    +0.000 C 
BRANCH  25  26
ATOM     26  C   UNL     1       1.161   6.277  20.798  0.00  0.00    +0.000 C 
BRANCH  26  27
ATOM     27  C   UNL     1       2.164   5.110  20.793  0.00  0.00    +0.000 C 
BRANCH  27  28
ATOM     28  C   UNL     1       1.396   3.784  20.879  0.00  0.00    +0.000 C 
BRANCH  28  30
ATOM     29  C   UNL     1       0.861   2.542  18.771  0.00  0.00    +0.000 C 
ATOM     30  C   UNL     1       1.874   2.714  19.899  0.00  0.00    +0.000 C 
ENDBRANCH  28  30
ENDBRANCH  27  28
ENDBRANCH  26  27
ENDBRANCH  25  26
ENDBRANCH  22  25
BRANCH  22  31
ATOM     31  C   UNL     1       1.675   8.871  18.559  0.00  0.00    +0.000 C 
BRANCH  31  32
ATOM     32  C   UNL     1       2.895   8.119  18.058  0.00  0.00    +0.000 C 
BRANCH  32  33
ATOM     33  C   UNL     1       2.632   6.699  17.572  0.00  0.00    +0.000 C 
BRANCH  33  34
ATOM     34  C   UNL     1       3.986   6.004  17.428  0.00  0.00    +0.000 C 
BRANCH  34  35
ATOM     35  C   UNL     1       3.879   4.488  17.391  0.00  0.00    +0.000 C 
ATOM     36  C   UNL     1       4.978   3.915  16.509  0.00  0.00    +0.000 C 
ENDBRANCH  34  35
ENDBRANCH  33  34
ENDBRANCH  32  33
ENDBRANCH  31  32
ENDBRANCH  22  31
ENDBRANCH  20  23
ENDBRANCH   1  20
TORSDOF 14
ENDMDL
MODEL 7
REMARK VINA RESULT:      -7.5      2.940      6.899
REMARK  Name = 
REMARK  16 active torsions:
REMARK  status: ('A' for Active; 'I' for Inactive)
REMARK    1  A    between atoms: C_1  and  C_2
REMARK    2  A    between atoms: C_2  and  C_3
REMARK    3  A    between atoms: C_3  and  C_4
REMARK    4  A    between atoms: C_4  and  C_5
REMARK    5  A    between atoms: C_5  and  C_6
REMARK    6  A    between atoms: C_6  and  N_7
REMARK    7  A    between atoms: N_7  and  C_8
REMARK    8  A    between atoms: C_8  and  C_9
REMARK    9  A    between atoms: C_9  and  C_10
REMARK   10  A    between atoms: C_10  and  C_11
REMARK   11  A    between atoms: C_11  and  C_12
REMARK   12  A    between atoms: C_12  and  C_13
REMARK   13  A    between atoms: C_14  and  C_16
REMARK   14  A    between atoms: C_16  and  C_18
REMARK   15  A    between atoms: C_19  and  C_20
REMARK   16  A    between atoms: C_23  and  N_24
REMARK                            x       y       z     vdW  Elec       q    Type
REMARK                         _______ _______ _______ _____ _____    ______ ____
ROOT
ATOM      1  C   UNL     1       0.344  10.857  18.456  0.00  0.00    +0.000 A 
ATOM      2  C   UNL     1       0.468  12.182  18.896  0.00  0.00    +0.000 A 
ATOM      3  N   UNL     1      -0.804  12.715  18.889  0.00  0.00    +0.000 N 
ATOM      4  C   UNL     1      -1.738  11.795  18.487  0.00  0.00    +0.000 A 
ATOM      5  C   UNL     1      -3.131  11.913  18.389  0.00  0.00    +0.000 A 
ATOM      6  C   UNL     1      -3.854  10.799  17.958  0.00  0.00    +0.000 A 
ATOM      7  C   UNL     1      -3.202   9.624  17.607  0.00  0.00    +0.000 A 
ATOM      8  C   UNL     1      -1.808   9.540  17.683  0.00  0.00    +0.000 A 
ATOM      9  C   UNL     1      -1.047  10.632  18.159  0.00  0.00    +0.000 A 
ATOM     10  H   UNL     1      -1.026  13.667  19.145  0.00  0.00    +0.000 HD
ENDROOT
BRANCH   2  11
ATOM     11  C   UNL     1       1.630  12.997  19.286  0.00  0.00    +0.000 A 
ATOM     12  C   UNL     1       2.444  13.603  18.320  0.00  0.00    +0.000 A 
ATOM     13  C   UNL     1       3.570  14.350  18.688  0.00  0.00    +0.000 A 
ATOM     14  C   UNL     1       3.870  14.580  20.029  0.00  0.00    +0.000 A 
ATOM     15  C   UNL     1       3.080  13.962  20.998  0.00  0.00    +0.000 A 
ATOM     16  C   UNL     1       1.966  13.190  20.636  0.00  0.00    +0.000 A 
BRANCH  14  17
ATOM     17  N   UNL     1       5.067  15.210  20.384  0.00  0.00    +0.000 N 
ATOM     18  H   UNL     1       4.954  16.180  20.663  0.00  0.00    +0.000 HD
ATOM     19  H   UNL     1       5.635  14.682  21.037  0.00  0.00    +0.000 HD
ENDBRANCH  14  17
ENDBRANCH   2  11
BRANCH   1  20
ATOM     20  C   UNL     1       1.441   9.881  18.379  0.00  0.00    +0.000 C 
ATOM     21  O   UNL     1       2.296   9.902  17.495  0.00  0.00    +0.000 OA
BRANCH  20  23
ATOM     22  N   UNL     1       2.144   7.542  19.024  0.00  0.00    +0.000 N 
ATOM     23  C   UNL     1       1.561   8.766  19.422  0.00  0.00    +0.000 C 
ATOM     24  O   UNL     1       1.125   8.999  20.544  0.00  0.00    +0.000 OA
BRANCH  22  25
ATOM     25  C   UNL     1       2.285   6.493  20.053  0.00  0.00    +0.000 C 
BRANCH  25  26
ATOM     26  C   UNL     1       2.035   5.070  19.545  0.00  0.00    +0.000 C 
BRANCH  26  27
ATOM     27  C   UNL     1       1.206   4.204  20.511  0.00  0.00    +0.000 C 
BRANCH  27  28
ATOM     28  C   UNL     1       1.721   2.759  20.461  0.00  0.00    +0.000 C 
BRANCH  28  30
ATOM     29  C   UNL     1       3.149   1.748  18.670  0.00  0.00    +0.000 C 
ATOM     30  C   UNL     1       1.728   2.139  19.065  0.00  0.00    +0.000 C 
ENDBRANCH  28  30
ENDBRANCH  27  28
ENDBRANCH  26  27
ENDBRANCH  25  26
ENDBRANCH  22  25
BRANCH  22  31
ATOM     31  C   UNL     1       2.803   7.445  17.715  0.00  0.00    +0.000 C 
BRANCH  31  32
ATOM     32  C   UNL     1       4.302   7.212  17.644  0.00  0.00    +0.000 C 
BRANCH  32  33
ATOM     33  C   UNL     1       4.774   6.365  16.470  0.00  0.00    +0.000 C 
BRANCH  33  34
ATOM     34  C   UNL     1       4.516   4.900  16.826  0.00  0.00    +0.000 C 
BRANCH  34  35
ATOM     35  C   UNL     1       5.403   3.933  16.058  0.00  0.00    +0.000 C 
ATOM     36  C   UNL     1       5.597   4.429  14.633  0.00  0.00    +0.000 C 
ENDBRANCH  34  35
ENDBRANCH  33  34
ENDBRANCH  32  33
ENDBRANCH  31  32
ENDBRANCH  22  31
ENDBRANCH  20  23
ENDBRANCH   1  20
TORSDOF 14
ENDMDL
MODEL 8
REMARK VINA RESULT:      -7.4      4.875     10.135
REMARK  Name = 
REMARK  16 active torsions:
REMARK  status: ('A' for Active; 'I' for Inactive)
REMARK    1  A    between atoms: C_1  and  C_2
REMARK    2  A    between atoms: C_2  and  C_3
REMARK    3  A    between atoms: C_3  and  C_4
REMARK    4  A    between atoms: C_4  and  C_5
REMARK    5  A    between atoms: C_5  and  C_6
REMARK    6  A    between atoms: C_6  and  N_7
REMARK    7  A    between atoms: N_7  and  C_8
REMARK    8  A    between atoms: C_8  and  C_9
REMARK    9  A    between atoms: C_9  and  C_10
REMARK   10  A    between atoms: C_10  and  C_11
REMARK   11  A    between atoms: C_11  and  C_12
REMARK   12  A    between atoms: C_12  and  C_13
REMARK   13  A    between atoms: C_14  and  C_16
REMARK   14  A    between atoms: C_16  and  C_18
REMARK   15  A    between atoms: C_19  and  C_20
REMARK   16  A    between atoms: C_23  and  N_24
REMARK                            x       y       z     vdW  Elec       q    Type
REMARK                         _______ _______ _______ _____ _____    ______ ____
ROOT
ATOM      1  C   UNL     1      -0.089  14.640  20.160  0.00  0.00    +0.000 A 
ATOM      2  C   UNL     1      -1.443  14.931  20.375  0.00  0.00    +0.000 A 
ATOM      3  N   UNL     1      -1.711  16.084  19.667  0.00  0.00    +0.000 N 
ATOM      4  C   UNL     1      -0.604  16.534  18.994  0.00  0.00    +0.000 A 
ATOM      5  C   UNL     1      -0.463  17.630  18.130  0.00  0.00    +0.000 A 
ATOM      6  C   UNL     1       0.793  17.856  17.560  0.00  0.00    +0.000 A 
ATOM      7  C   UNL     1       1.869  17.036  17.871  0.00  0.00    +0.000 A 
ATOM      8  C   UNL     1       1.711  15.968  18.760  0.00  0.00    +0.000 A 
ATOM      9  C   UNL     1       0.445  15.680  19.319  0.00  0.00    +0.000 A 
ATOM     10  H   UNL     1      -2.609  16.546  19.645  0.00  0.00    +0.000 HD
ENDROOT
BRANCH   2  11
ATOM     11  C   UNL     1      -2.486  14.276  21.181  0.00  0.00    +0.000 A 
ATOM     12  C   UNL     1      -2.580  14.501  22.561  0.00  0.00    +0.000 A 
ATOM     13  C   UNL     1      -3.550  13.853  23.335  0.00  0.00    +0.000 A 
ATOM     14  C   UNL     1      -4.502  13.025  22.744  0.00  0.00    +0.000 A 
ATOM     15  C   UNL     1      -4.403  12.776  21.375  0.00  0.00    +0.000 A 
ATOM     16  C   UNL     1      -3.417  13.401  20.598  0.00  0.00    +0.000 A 
BRANCH  14  17
ATOM     17  N   UNL     1      -5.378  12.279  23.540  0.00  0.00    +0.000 N 
ATOM     18  H   UNL     1      -5.358  11.282  23.350  0.00  0.00    +0.000 HD
ATOM     19  H   UNL     1      -5.317  12.488  24.530  0.00  0.00    +0.000 HD
ENDBRANCH  14  17
ENDBRANCH   2  11
BRANCH   1  20
ATOM     20  C   UNL     1       0.615  13.450  20.661  0.00  0.00    +0.000 C 
ATOM     21  O   UNL     1       0.592  13.108  21.843  0.00  0.00    +0.000 OA
BRANCH  20  23
ATOM     22  N   UNL     1       0.801  11.441  19.141  0.00  0.00    +0.000 N 
ATOM     23  C   UNL     1       1.431  12.572  19.709  0.00  0.00    +0.000 C 
ATOM     24  O   UNL     1       2.596  12.896  19.508  0.00  0.00    +0.000 OA
BRANCH  22  25
ATOM     25  C   UNL     1       1.592  10.629  18.197  0.00  0.00    +0.000 C 
BRANCH  25  26
ATOM     26  C   UNL     1       1.457   9.116  18.396  0.00  0.00    +0.000 C 
BRANCH  26  27
ATOM     27  C   UNL     1       2.677   8.315  17.908  0.00  0.00    +0.000 C 
BRANCH  27  28
ATOM     28  C   UNL     1       2.456   6.826  18.208  0.00  0.00    +0.000 C 
BRANCH  28  30
ATOM     29  C   UNL     1       1.930   5.118  19.963  0.00  0.00    +0.000 C 
ATOM     30  C   UNL     1       2.622   6.448  19.679  0.00  0.00    +0.000 C 
ENDBRANCH  28  30
ENDBRANCH  27  28
ENDBRANCH  26  27
ENDBRANCH  25  26
ENDBRANCH  22  25
BRANCH  22  31
ATOM     31  C   UNL     1      -0.648  11.263  19.302  0.00  0.00    +0.000 C 
BRANCH  31  32
ATOM     32  C   UNL     1      -1.565  11.456  18.108  0.00  0.00    +0.000 C 
BRANCH  32  33
ATOM     33  C   UNL     1      -1.951  10.181  17.369  0.00  0.00    +0.000 C 
BRANCH  33  34
ATOM     34  C   UNL     1      -3.454   9.978  17.556  0.00  0.00    +0.000 C 
BRANCH  34  35
ATOM     35  C   UNL     1      -4.261  11.249  17.347  0.00  0.00    +0.000 C 
ATOM     36  C   UNL     1      -5.577  11.155  18.105  0.00  0.00    +0.000 C 
ENDBRANCH  34  35
ENDBRANCH  33  34
ENDBRANCH  32  33
ENDBRANCH  31  32
ENDBRANCH  22  31
ENDBRANCH  20  23
ENDBRANCH   1  20
TORSDOF 14
ENDMDL
MODEL 9
REMARK VINA RESULT:      -7.4      3.042      6.683
REMARK  Name = 
REMARK  16 active torsions:
REMARK  status: ('A' for Active; 'I' for Inactive)
REMARK    1  A    between atoms: C_1  and  C_2
REMARK    2  A    between atoms: C_2  and  C_3
REMARK    3  A    between atoms: C_3  and  C_4
REMARK    4  A    between atoms: C_4  and  C_5
REMARK    5  A    between atoms: C_5  and  C_6
REMARK    6  A    between atoms: C_6  and  N_7
REMARK    7  A    between atoms: N_7  and  C_8
REMARK    8  A    between atoms: C_8  and  C_9
REMARK    9  A    between atoms: C_9  and  C_10
REMARK   10  A    between atoms: C_10  and  C_11
REMARK   11  A    between atoms: C_11  and  C_12
REMARK   12  A    between atoms: C_12  and  C_13
REMARK   13  A    between atoms: C_14  and  C_16
REMARK   14  A    between atoms: C_16  and  C_18
REMARK   15  A    between atoms: C_19  and  C_20
REMARK   16  A    between atoms: C_23  and  N_24
REMARK                            x       y       z     vdW  Elec       q    Type
REMARK                         _______ _______ _______ _____ _____    ______ ____
ROOT
ATOM      1  C   UNL     1       0.291  10.904  18.445  0.00  0.00    +0.000 A 
ATOM      2  C   UNL     1       0.412  12.226  18.893  0.00  0.00    +0.000 A 
ATOM      3  N   UNL     1      -0.862  12.756  18.892  0.00  0.00    +0.000 N 
ATOM      4  C   UNL     1      -1.793  11.835  18.485  0.00  0.00    +0.000 A 
ATOM      5  C   UNL     1      -3.187  11.950  18.391  0.00  0.00    +0.000 A 
ATOM      6  C   UNL     1      -3.908  10.836  17.954  0.00  0.00    +0.000 A 
ATOM      7  C   UNL     1      -3.253   9.666  17.595  0.00  0.00    +0.000 A 
ATOM      8  C   UNL     1      -1.858   9.585  17.667  0.00  0.00    +0.000 A 
ATOM      9  C   UNL     1      -1.100  10.676  18.150  0.00  0.00    +0.000 A 
ATOM     10  H   UNL     1      -1.086  13.705  19.154  0.00  0.00    +0.000 HD
ENDROOT
BRANCH   2  11
ATOM     11  C   UNL     1       1.572  13.042  19.287  0.00  0.00    +0.000 A 
ATOM     12  C   UNL     1       1.930  13.188  20.633  0.00  0.00    +0.000 A 
ATOM     13  C   UNL     1       3.013  13.990  21.012  0.00  0.00    +0.000 A 
ATOM     14  C   UNL     1       3.817  14.606  20.055  0.00  0.00    +0.000 A 
ATOM     15  C   UNL     1       3.456  14.486  18.713  0.00  0.00    +0.000 A 
ATOM     16  C   UNL     1       2.357  13.706  18.328  0.00  0.00    +0.000 A 
BRANCH  14  17
ATOM     17  N   UNL     1       4.809  15.511  20.446  0.00  0.00    +0.000 N 
ATOM     18  H   UNL     1       5.178  16.071  19.684  0.00  0.00    +0.000 HD
ATOM     19  H   UNL     1       4.564  16.069  21.256  0.00  0.00    +0.000 HD
ENDBRANCH  14  17
ENDBRANCH   2  11
BRANCH   1  20
ATOM     20  C   UNL     1       1.390   9.931  18.361  0.00  0.00    +0.000 C 
ATOM     21  O   UNL     1       2.241   9.957  17.473  0.00  0.00    +0.000 OA
BRANCH  20  23
ATOM     22  N   UNL     1       2.251   7.657  19.048  0.00  0.00    +0.000 N 
ATOM     23  C   UNL     1       1.520   8.814  19.400  0.00  0.00    +0.000 C 
ATOM     24  O   UNL     1       0.961   8.985  20.479  0.00  0.00    +0.000 OA
BRANCH  22  25
ATOM     25  C   UNL     1       2.395   6.609  20.076  0.00  0.00    +0.000 C 
BRANCH  25  26
ATOM     26  C   UNL     1       2.051   5.197  19.594  0.00  0.00    +0.000 C 
BRANCH  26  27
ATOM     27  C   UNL     1       1.080   4.444  20.521  0.00  0.00    +0.000 C 
BRANCH  27  28
ATOM     28  C   UNL     1       1.190   2.937  20.251  0.00  0.00    +0.000 C 
BRANCH  28  30
ATOM     29  C   UNL     1       2.199   2.090  18.121  0.00  0.00    +0.000 C 
ATOM     30  C   UNL     1       0.909   2.532  18.806  0.00  0.00    +0.000 C 
ENDBRANCH  28  30
ENDBRANCH  27  28
ENDBRANCH  26  27
ENDBRANCH  25  26
ENDBRANCH  22  25
BRANCH  22  31
ATOM     31  C   UNL     1       3.034   7.646  17.806  0.00  0.00    +0.000 C 
BRANCH  31  32
ATOM     32  C   UNL     1       3.966   6.483  17.516  0.00  0.00    +0.000 C 
BRANCH  32  33
ATOM     33  C   UNL     1       5.102   6.785  16.547  0.00  0.00    +0.000 C 
BRANCH  33  34
ATOM     34  C   UNL     1       6.304   5.941  16.971  0.00  0.00    +0.000 C 
BRANCH  34  35
ATOM     35  C   UNL     1       7.402   6.754  17.638  0.00  0.00    +0.000 C 
ATOM     36  C   UNL     1       7.879   6.044  18.896  0.00  0.00    +0.000 C 
ENDBRANCH  34  35
ENDBRANCH  33  34
ENDBRANCH  32  33
ENDBRANCH  31  32
ENDBRANCH  22  31
ENDBRANCH  20  23
ENDBRANCH   1  20
TORSDOF 14
ENDMDL
