MODEL 1
REMARK VINA RESULT:      -7.5      0.000      0.000
REMARK  Name = 
REMARK  7 active torsions:
REMARK  status: ('A' for Active; 'I' for Inactive)
REMARK    1  A    between atoms: C_1  and  O_2
REMARK    2  A    between atoms: O_2  and  C_3
REMARK    3  A    between atoms: C_5  and  C_6
REMARK    4  A    between atoms: C_8  and  C_9
REMARK    5  A    between atoms: C_10  and  S_11
REMARK    6  A    between atoms: S_11  and  C_14
REMARK    7  A    between atoms: C_17  and  N_18
REMARK                            x       y       z     vdW  Elec       q    Type
REMARK                         _______ _______ _______ _____ _____    ______ ____
ROOT
ATOM      1  S   UNL     1       3.982   3.234  18.685  0.00  0.00    +0.000 S 
ATOM      2  O   UNL     1       4.777   2.635  19.743  0.00  0.00    +0.000 OA
ATOM      3  O   UNL     1       3.058   2.376  17.965  0.00  0.00    +0.000 OA
ENDROOT
BRANCH   1  11
ATOM      4  C   UNL     1       3.133   5.885  18.702  0.00  0.00    +0.000 A 
ATOM      5  C   UNL     1       2.491   6.998  19.264  0.00  0.00    +0.000 A 
ATOM      6  C   UNL     1       1.783   6.901  20.462  0.00  0.00    +0.000 A 
ATOM      7  C   UNL     1       1.104   8.102  21.055  0.00  0.00    +0.000 C 
ATOM      8  C   UNL     1       1.688   5.658  21.087  0.00  0.00    +0.000 A 
ATOM      9  C   UNL     1       2.302   4.510  20.547  0.00  0.00    +0.000 A 
ATOM     10  C   UNL     1       2.107   3.222  21.301  0.00  0.00    +0.000 C 
ATOM     11  C   UNL     1       3.048   4.632  19.347  0.00  0.00    +0.000 A 
BRANCH   4  13
ATOM     12  C   UNL     1       4.143   7.266  17.045  0.00  0.00    +0.000 C 
ATOM     13  O   UNL     1       3.765   5.966  17.490  0.00  0.00    +0.000 OA
ENDBRANCH   4  13
ENDBRANCH   1  11
BRANCH   1  14
ATOM     14  C   UNL     1       5.135   3.869  17.481  0.00  0.00    +0.000 A 
ATOM     15  C   UNL     1       6.326   4.456  17.909  0.00  0.00    +0.000 A 
ATOM     16  C   UNL     1       7.218   4.975  16.965  0.00  0.00    +0.000 A 
ATOM     17  C   UNL     1       6.960   4.864  15.594  0.00  0.00    +0.000 A 
ATOM     18  C   UNL     1       5.758   4.280  15.182  0.00  0.00    +0.000 A 
ATOM     19  C   UNL     1       4.855   3.763  16.116  0.00  0.00    +0.000 A 
BRANCH  17  20
ATOM     20  N   UNL     1       7.771   5.534  14.672  0.00  0.00    +0.000 N 
ATOM     21  H   UNL     1       8.756   5.294  14.732  0.00  0.00    +0.000 HD
ATOM     22  H   UNL     1       7.425   5.507  13.718  0.00  0.00    +0.000 HD
ENDBRANCH  17  20
ENDBRANCH   1  14
TORSDOF 4
ENDMDL
MODEL 2
REMARK VINA RESULT:      -7.5      0.839      2.447
REMARK  Name = 
REMARK  7 active torsions:
REMARK  status: ('A' for Active; 'I' for Inactive)
REMARK    1  A    between atoms: C_1  and  O_2
REMARK    2  A    between atoms: O_2  and  C_3
REMARK    3  A    between atoms: C_5  and  C_6
REMARK    4  A    between atoms: C_8  and  C_9
REMARK    5  A    between atoms: C_10  and  S_11
REMARK    6  A    between atoms: S_11  and  C_14
REMARK    7  A    between atoms: C_17  and  N_18
REMARK                            x       y       z     vdW  Elec       q    Type
REMARK                         _______ _______ _______ _____ _____    ______ ____
ROOT
ATOM      1  S   UNL     1       4.005   3.535  18.616  0.00  0.00    +0.000 S 
ATOM      2  O   UNL     1       4.779   2.866  19.648  0.00  0.00    +0.000 OA
ATOM      3  O   UNL     1       2.989   2.761  17.925  0.00  0.00    +0.000 OA
ENDROOT
BRANCH   1  11
ATOM      4  C   UNL     1       2.464   4.885  20.501  0.00  0.00    +0.000 A 
ATOM      5  C   UNL     1       1.766   5.997  20.993  0.00  0.00    +0.000 A 
ATOM      6  C   UNL     1       1.778   7.219  20.322  0.00  0.00    +0.000 A 
ATOM      7  C   UNL     1       1.022   8.400  20.858  0.00  0.00    +0.000 C 
ATOM      8  C   UNL     1       2.533   7.336  19.155  0.00  0.00    +0.000 A 
ATOM      9  C   UNL     1       3.265   6.249  18.635  0.00  0.00    +0.000 A 
ATOM     10  C   UNL     1       4.060   6.508  17.384  0.00  0.00    +0.000 C 
ATOM     11  C   UNL     1       3.214   5.003  19.310  0.00  0.00    +0.000 A 
BRANCH   4  13
ATOM     12  C   UNL     1       1.319   2.926  21.225  0.00  0.00    +0.000 C 
ATOM     13  O   UNL     1       2.511   3.707  21.199  0.00  0.00    +0.000 OA
ENDBRANCH   4  13
ENDBRANCH   1  11
BRANCH   1  14
ATOM     14  C   UNL     1       5.169   4.075  17.377  0.00  0.00    +0.000 A 
ATOM     15  C   UNL     1       6.415   4.567  17.769  0.00  0.00    +0.000 A 
ATOM     16  C   UNL     1       7.316   5.014  16.798  0.00  0.00    +0.000 A 
ATOM     17  C   UNL     1       7.012   4.920  15.436  0.00  0.00    +0.000 A 
ATOM     18  C   UNL     1       5.756   4.432  15.060  0.00  0.00    +0.000 A 
ATOM     19  C   UNL     1       4.842   3.989  16.022  0.00  0.00    +0.000 A 
BRANCH  17  20
ATOM     20  N   UNL     1       7.846   5.523  14.488  0.00  0.00    +0.000 N 
ATOM     21  H   UNL     1       8.660   5.983  14.883  0.00  0.00    +0.000 HD
ATOM     22  H   UNL     1       8.083   4.924  13.703  0.00  0.00    +0.000 HD
ENDBRANCH  17  20
ENDBRANCH   1  14
TORSDOF 4
ENDMDL
MODEL 3
REMARK VINA RESULT:      -7.5      0.836      2.684
REMARK  Name = 
REMARK  7 active torsions:
REMARK  status: ('A' for Active; 'I' for Inactive)
REMARK    1  A    between atoms: C_1  and  O_2
REMARK    2  A    between atoms: O_2  and  C_3
REMARK    3  A    between atoms: C_5  and  C_6
REMARK    4  A    between atoms: C_8  and  C_9
REMARK    5  A    between atoms: C_10  and  S_11
REMARK    6  A    between atoms: S_11  and  C_14
REMARK    7  A    between atoms: C_17  and  N_18
REMARK                            x       y       z     vdW  Elec       q    Type
REMARK                         _______ _______ _______ _____ _____    ______ ____
ROOT
ATOM      1  S   UNL     1       3.999   3.531  18.589  0.00  0.00    +0.000 S 
ATOM      2  O   UNL     1       4.796   2.840  19.588  0.00  0.00    +0.000 OA
ATOM      3  O   UNL     1       2.991   2.763  17.880  0.00  0.00    +0.000 OA
ENDROOT
BRANCH   1  11
ATOM      4  C   UNL     1       2.462   4.781  20.545  0.00  0.00    +0.000 A 
ATOM      5  C   UNL     1       1.746   5.859  21.086  0.00  0.00    +0.000 A 
ATOM      6  C   UNL     1       1.715   7.102  20.454  0.00  0.00    +0.000 A 
ATOM      7  C   UNL     1       0.941   8.246  21.041  0.00  0.00    +0.000 C 
ATOM      8  C   UNL     1       2.443   7.275  19.277  0.00  0.00    +0.000 A 
ATOM      9  C   UNL     1       3.192   6.224  18.709  0.00  0.00    +0.000 A 
ATOM     10  C   UNL     1       3.955   6.542  17.452  0.00  0.00    +0.000 C 
ATOM     11  C   UNL     1       3.185   4.956  19.345  0.00  0.00    +0.000 A 
BRANCH   4  13
ATOM     12  C   UNL     1       1.360   2.807  21.295  0.00  0.00    +0.000 C 
ATOM     13  O   UNL     1       2.551   3.584  21.204  0.00  0.00    +0.000 OA
ENDBRANCH   4  13
ENDBRANCH   1  11
BRANCH   1  14
ATOM     14  C   UNL     1       5.139   4.140  17.360  0.00  0.00    +0.000 A 
ATOM     15  C   UNL     1       4.781   4.107  16.012  0.00  0.00    +0.000 A 
ATOM     16  C   UNL     1       5.686   4.561  15.047  0.00  0.00    +0.000 A 
ATOM     17  C   UNL     1       6.922   5.101  15.418  0.00  0.00    +0.000 A 
ATOM     18  C   UNL     1       7.268   5.119  16.773  0.00  0.00    +0.000 A 
ATOM     19  C   UNL     1       6.375   4.661  17.747  0.00  0.00    +0.000 A 
BRANCH  17  20
ATOM     20  N   UNL     1       7.881   5.393  14.441  0.00  0.00    +0.000 N 
ATOM     21  H   UNL     1       8.831   5.447  14.794  0.00  0.00    +0.000 HD
ATOM     22  H   UNL     1       7.811   4.820  13.606  0.00  0.00    +0.000 HD
ENDBRANCH  17  20
ENDBRANCH   1  14
TORSDOF 4
ENDMDL
MODEL 4
REMARK VINA RESULT:      -7.4      0.114      1.085
REMARK  Name = 
REMARK  7 active torsions:
REMARK  status: ('A' for Active; 'I' for Inactive)
REMARK    1  A    between atoms: C_1  and  O_2
REMARK    2  A    between atoms: O_2  and  C_3
REMARK    3  A    between atoms: C_5  and  C_6
REMARK    4  A    between atoms: C_8  and  C_9
REMARK    5  A    between atoms: C_10  and  S_11
REMARK    6  A    between atoms: S_11  and  C_14
REMARK    7  A    between atoms: C_17  and  N_18
REMARK                            x       y       z     vdW  Elec       q    Type
REMARK                         _______ _______ _______ _____ _____    ______ ____
ROOT
ATOM      1  S   UNL     1       4.022   3.308  18.683  0.00  0.00    +0.000 S 
ATOM      2  O   UNL     1       4.853   2.728  19.726  0.00  0.00    +0.000 OA
ATOM      3  O   UNL     1       3.110   2.426  17.978  0.00  0.00    +0.000 OA
ENDROOT
BRANCH   1  11
ATOM      4  C   UNL     1       3.116   5.939  18.738  0.00  0.00    +0.000 A 
ATOM      5  C   UNL     1       2.452   7.031  19.316  0.00  0.00    +0.000 A 
ATOM      6  C   UNL     1       1.751   6.903  20.515  0.00  0.00    +0.000 A 
ATOM      7  C   UNL     1       1.048   8.081  21.126  0.00  0.00    +0.000 C 
ATOM      8  C   UNL     1       1.685   5.651  21.124  0.00  0.00    +0.000 A 
ATOM      9  C   UNL     1       2.322   4.523  20.567  0.00  0.00    +0.000 A 
ATOM     10  C   UNL     1       2.157   3.222  21.305  0.00  0.00    +0.000 C 
ATOM     11  C   UNL     1       3.061   4.676  19.367  0.00  0.00    +0.000 A 
BRANCH   4  13
ATOM     12  C   UNL     1       4.080   7.363  17.090  0.00  0.00    +0.000 C 
ATOM     13  O   UNL     1       3.742   6.049  17.525  0.00  0.00    +0.000 OA
ENDBRANCH   4  13
ENDBRANCH   1  11
BRANCH   1  14
ATOM     14  C   UNL     1       5.135   3.978  17.461  0.00  0.00    +0.000 A 
ATOM     15  C   UNL     1       4.802   3.899  16.108  0.00  0.00    +0.000 A 
ATOM     16  C   UNL     1       5.686   4.402  15.149  0.00  0.00    +0.000 A 
ATOM     17  C   UNL     1       6.875   5.035  15.528  0.00  0.00    +0.000 A 
ATOM     18  C   UNL     1       7.198   5.099  16.888  0.00  0.00    +0.000 A 
ATOM     19  C   UNL     1       6.325   4.593  17.857  0.00  0.00    +0.000 A 
BRANCH  17  20
ATOM     20  N   UNL     1       7.825   5.380  14.562  0.00  0.00    +0.000 N 
ATOM     21  H   UNL     1       7.810   4.791  13.735  0.00  0.00    +0.000 HD
ATOM     22  H   UNL     1       7.843   6.368  14.331  0.00  0.00    +0.000 HD
ENDBRANCH  17  20
ENDBRANCH   1  14
TORSDOF 4
ENDMDL
MODEL 5
REMARK VINA RESULT:      -7.4      1.953      3.550
REMARK  Name = 
REMARK  7 active torsions:
REMARK  status: ('A' for Active; 'I' for Inactive)
REMARK    1  A    between atoms: C_1  and  O_2
REMARK    2  A    between atoms: O_2  and  C_3
REMARK    3  A    between atoms: C_5  and  C_6
REMARK    4  A    between atoms: C_8  and  C_9
REMARK    5  A    between atoms: C_10  and  S_11
REMARK    6  A    between atoms: S_11  and  C_14
REMARK    7  A    between atoms: C_17  and  N_18
REMARK                            x       y       z     vdW  Elec       q    Type
REMARK                         _______ _______ _______ _____ _____    ______ ____
ROOT
ATOM      1  S   UNL     1       6.058   5.291  18.141  0.00  0.00    +0.000 S 
ATOM      2  O   UNL     1       6.240   6.732  18.148  0.00  0.00    +0.000 OA
ATOM      3  O   UNL     1       7.024   4.483  18.864  0.00  0.00    +0.000 OA
ENDROOT
BRANCH   1  11
ATOM      4  C   UNL     1       4.209   3.656  19.429  0.00  0.00    +0.000 A 
ATOM      5  C   UNL     1       2.916   3.290  19.832  0.00  0.00    +0.000 A 
ATOM      6  C   UNL     1       1.816   4.108  19.575  0.00  0.00    +0.000 A 
ATOM      7  C   UNL     1       0.437   3.703  20.007  0.00  0.00    +0.000 C 
ATOM      8  C   UNL     1       2.023   5.330  18.935  0.00  0.00    +0.000 A 
ATOM      9  C   UNL     1       3.308   5.745  18.530  0.00  0.00    +0.000 A 
ATOM     10  C   UNL     1       3.405   7.095  17.872  0.00  0.00    +0.000 C 
ATOM     11  C   UNL     1       4.412   4.887  18.767  0.00  0.00    +0.000 A 
BRANCH   4  13
ATOM     12  C   UNL     1       5.058   1.727  20.540  0.00  0.00    +0.000 C 
ATOM     13  O   UNL     1       5.297   2.887  19.747  0.00  0.00    +0.000 OA
ENDBRANCH   4  13
ENDBRANCH   1  11
BRANCH   1  14
ATOM     14  C   UNL     1       6.135   4.777  16.435  0.00  0.00    +0.000 A 
ATOM     15  C   UNL     1       5.097   4.015  15.896  0.00  0.00    +0.000 A 
ATOM     16  C   UNL     1       5.171   3.591  14.566  0.00  0.00    +0.000 A 
ATOM     17  C   UNL     1       6.243   3.968  13.749  0.00  0.00    +0.000 A 
ATOM     18  C   UNL     1       7.278   4.725  14.306  0.00  0.00    +0.000 A 
ATOM     19  C   UNL     1       7.220   5.149  15.638  0.00  0.00    +0.000 A 
BRANCH  17  20
ATOM     20  N   UNL     1       6.389   3.401  12.478  0.00  0.00    +0.000 N 
ATOM     21  H   UNL     1       6.812   4.019  11.793  0.00  0.00    +0.000 HD
ATOM     22  H   UNL     1       6.814   2.479  12.481  0.00  0.00    +0.000 HD
ENDBRANCH  17  20
ENDBRANCH   1  14
TORSDOF 4
ENDMDL
MODEL 6
REMARK VINA RESULT:      -7.4      2.581      5.659
REMARK  Name = 
REMARK  7 active torsions:
REMARK  status: ('A' for Active; 'I' for Inactive)
REMARK    1  A    between atoms: C_1  and  O_2
REMARK    2  A    between atoms: O_2  and  C_3
REMARK    3  A    between atoms: C_5  and  C_6
REMARK    4  A    between atoms: C_8  and  C_9
REMARK    5  A    between atoms: C_10  and  S_11
REMARK    6  A    between atoms: S_11  and  C_14
REMARK    7  A    between atoms: C_17  and  N_18
REMARK                            x       y       z     vdW  Elec       q    Type
REMARK                         _______ _______ _______ _____ _____    ______ ____
ROOT
ATOM      1  S   UNL     1       4.934   4.978  19.022  0.00  0.00    +0.000 S 
ATOM      2  O   UNL     1       4.251   3.817  19.568  0.00  0.00    +0.000 OA
ATOM      3  O   UNL     1       6.076   5.496  19.754  0.00  0.00    +0.000 OA
ENDROOT
BRANCH   1  11
ATOM      4  C   UNL     1       6.662   5.204  16.852  0.00  0.00    +0.000 A 
ATOM      5  C   UNL     1       7.033   5.018  15.512  0.00  0.00    +0.000 A 
ATOM      6  C   UNL     1       6.235   4.287  14.632  0.00  0.00    +0.000 A 
ATOM      7  C   UNL     1       6.641   4.099  13.199  0.00  0.00    +0.000 C 
ATOM      8  C   UNL     1       5.063   3.705  15.114  0.00  0.00    +0.000 A 
ATOM      9  C   UNL     1       4.663   3.852  16.458  0.00  0.00    +0.000 A 
ATOM     10  C   UNL     1       3.392   3.155  16.863  0.00  0.00    +0.000 C 
ATOM     11  C   UNL     1       5.467   4.626  17.332  0.00  0.00    +0.000 A 
BRANCH   4  13
ATOM     12  C   UNL     1       7.641   7.263  17.544  0.00  0.00    +0.000 C 
ATOM     13  O   UNL     1       7.482   5.859  17.732  0.00  0.00    +0.000 OA
ENDBRANCH   4  13
ENDBRANCH   1  11
BRANCH   1  14
ATOM     14  C   UNL     1       3.729   6.291  18.954  0.00  0.00    +0.000 A 
ATOM     15  C   UNL     1       3.682   7.127  17.838  0.00  0.00    +0.000 A 
ATOM     16  C   UNL     1       2.754   8.172  17.797  0.00  0.00    +0.000 A 
ATOM     17  C   UNL     1       1.832   8.356  18.833  0.00  0.00    +0.000 A 
ATOM     18  C   UNL     1       1.898   7.515  19.949  0.00  0.00    +0.000 A 
ATOM     19  C   UNL     1       2.826   6.470  20.005  0.00  0.00    +0.000 A 
BRANCH  17  20
ATOM     20  N   UNL     1       1.027   9.500  18.860  0.00  0.00    +0.000 N 
ATOM     21  H   UNL     1       0.055   9.331  18.621  0.00  0.00    +0.000 HD
ATOM     22  H   UNL     1       1.126  10.059  19.702  0.00  0.00    +0.000 HD
ENDBRANCH  17  20
ENDBRANCH   1  14
TORSDOF 4
ENDMDL
MODEL 7
REMARK VINA RESULT:      -7.3      1.962      3.457
REMARK  Name = 
REMARK  7 active torsions:
REMARK  status: ('A' for Active; 'I' for Inactive)
REMARK    1  A    between atoms: C_1  and  O_2
REMARK    2  A    between atoms: O_2  and  C_3
REMARK    3  A    between atoms: C_5  and  C_6
REMARK    4  A    between atoms: C_8  and  C_9
REMARK    5  A    between atoms: C_10  and  S_11
REMARK    6  A    between atoms: S_11  and  C_14
REMARK    7  A    between atoms: C_17  and  N_18
REMARK                            x       y       z     vdW  Elec       q    Type
REMARK                         _______ _______ _______ _____ _____    ______ ____
ROOT
ATOM      1  S   UNL     1       6.054   5.278  18.116  0.00  0.00    +0.000 S 
ATOM      2  O   UNL     1       6.234   6.720  18.124  0.00  0.00    +0.000 OA
ATOM      3  O   UNL     1       7.019   4.472  18.842  0.00  0.00    +0.000 OA
ENDROOT
BRANCH   1  11
ATOM      4  C   UNL     1       4.207   3.645  19.409  0.00  0.00    +0.000 A 
ATOM      5  C   UNL     1       2.914   3.276  19.807  0.00  0.00    +0.000 A 
ATOM      6  C   UNL     1       1.811   4.086  19.538  0.00  0.00    +0.000 A 
ATOM      7  C   UNL     1       0.431   3.677  19.966  0.00  0.00    +0.000 C 
ATOM      8  C   UNL     1       2.015   5.303  18.889  0.00  0.00    +0.000 A 
ATOM      9  C   UNL     1       3.300   5.722  18.487  0.00  0.00    +0.000 A 
ATOM     10  C   UNL     1       3.394   7.067  17.818  0.00  0.00    +0.000 C 
ATOM     11  C   UNL     1       4.406   4.871  18.737  0.00  0.00    +0.000 A 
BRANCH   4  13
ATOM     12  C   UNL     1       5.057   1.722  20.527  0.00  0.00    +0.000 C 
ATOM     13  O   UNL     1       5.297   2.884  19.738  0.00  0.00    +0.000 OA
ENDBRANCH   4  13
ENDBRANCH   1  11
BRANCH   1  14
ATOM     14  C   UNL     1       6.137   4.764  16.410  0.00  0.00    +0.000 A 
ATOM     15  C   UNL     1       7.236   5.131  15.632  0.00  0.00    +0.000 A 
ATOM     16  C   UNL     1       7.288   4.750  14.288  0.00  0.00    +0.000 A 
ATOM     17  C   UNL     1       6.282   3.956  13.726  0.00  0.00    +0.000 A 
ATOM     18  C   UNL     1       5.183   3.604  14.517  0.00  0.00    +0.000 A 
ATOM     19  C   UNL     1       5.116   3.985  15.861  0.00  0.00    +0.000 A 
BRANCH  17  20
ATOM     20  N   UNL     1       6.260   3.725  12.346  0.00  0.00    +0.000 N 
ATOM     21  H   UNL     1       6.403   2.755  12.084  0.00  0.00    +0.000 HD
ATOM     22  H   UNL     1       5.467   4.141  11.868  0.00  0.00    +0.000 HD
ENDBRANCH  17  20
ENDBRANCH   1  14
TORSDOF 4
ENDMDL
MODEL 8
REMARK VINA RESULT:      -7.3      2.595      5.620
REMARK  Name = 
REMARK  7 active torsions:
REMARK  status: ('A' for Active; 'I' for Inactive)
REMARK    1  A    between atoms: C_1  and  O_2
REMARK    2  A    between atoms: O_2  and  C_3
REMARK    3  A    between atoms: C_5  and  C_6
REMARK    4  A    between atoms: C_8  and  C_9
REMARK    5  A    between atoms: C_10  and  S_11
REMARK    6  A    between atoms: S_11  and  C_14
REMARK    7  A    between atoms: C_17  and  N_18
REMARK                            x       y       z     vdW  Elec       q    Type
REMARK                         _______ _______ _______ _____ _____    ______ ____
ROOT
ATOM      1  S   UNL     1       4.846   5.040  19.024  0.00  0.00    +0.000 S 
ATOM      2  O   UNL     1       4.120   3.902  19.561  0.00  0.00    +0.000 OA
ATOM      3  O   UNL     1       5.989   5.528  19.775  0.00  0.00    +0.000 OA
ENDROOT
BRANCH   1  11
ATOM      4  C   UNL     1       6.604   5.234  16.874  0.00  0.00    +0.000 A 
ATOM      5  C   UNL     1       6.991   5.030  15.542  0.00  0.00    +0.000 A 
ATOM      6  C   UNL     1       6.202   4.292  14.660  0.00  0.00    +0.000 A 
ATOM      7  C   UNL     1       6.626   4.085  13.235  0.00  0.00    +0.000 C 
ATOM      8  C   UNL     1       5.022   3.720  15.133  0.00  0.00    +0.000 A 
ATOM      9  C   UNL     1       4.604   3.884  16.470  0.00  0.00    +0.000 A 
ATOM     10  C   UNL     1       3.325   3.198  16.866  0.00  0.00    +0.000 C 
ATOM     11  C   UNL     1       5.400   4.666  17.345  0.00  0.00    +0.000 A 
BRANCH   4  13
ATOM     12  C   UNL     1       7.583   7.296  17.554  0.00  0.00    +0.000 C 
ATOM     13  O   UNL     1       7.415   5.895  17.757  0.00  0.00    +0.000 OA
ENDBRANCH   4  13
ENDBRANCH   1  11
BRANCH   1  14
ATOM     14  C   UNL     1       3.682   6.388  18.929  0.00  0.00    +0.000 A 
ATOM     15  C   UNL     1       2.797   6.610  19.984  0.00  0.00    +0.000 A 
ATOM     16  C   UNL     1       1.868   7.651  19.898  0.00  0.00    +0.000 A 
ATOM     17  C   UNL     1       1.850   8.510  18.793  0.00  0.00    +0.000 A 
ATOM     18  C   UNL     1       2.738   8.268  17.740  0.00  0.00    +0.000 A 
ATOM     19  C   UNL     1       3.667   7.225  17.811  0.00  0.00    +0.000 A 
BRANCH  17  20
ATOM     20  N   UNL     1       0.812   9.435  18.641  0.00  0.00    +0.000 N 
ATOM     21  H   UNL     1       0.144   9.196  17.915  0.00  0.00    +0.000 HD
ATOM     22  H   UNL     1       0.358   9.698  19.511  0.00  0.00    +0.000 HD
ENDBRANCH  17  20
ENDBRANCH   1  14
TORSDOF 4
ENDMDL
MODEL 9
REMARK VINA RESULT:      -7.0      3.050      5.312
REMARK  Name = 
REMARK  7 active torsions:
REMARK  status: ('A' for Active; 'I' for Inactive)
REMARK    1  A    between atoms: C_1  and  O_2
REMARK    2  A    between atoms: O_2  and  C_3
REMARK    3  A    between atoms: C_5  and  C_6
REMARK    4  A    between atoms: C_8  and  C_9
REMARK    5  A    between atoms: C_10  and  S_11
REMARK    6  A    between atoms: S_11  and  C_14
REMARK    7  A    between atoms: C_17  and  N_18
REMARK                            x       y       z     vdW  Elec       q    Type
REMARK                         _______ _______ _______ _____ _____    ______ ____
ROOT
ATOM      1  S   UNL     1       3.395   3.316  17.128  0.00  0.00    +0.000 S 
ATOM      2  O   UNL     1       2.295   3.603  16.222  0.00  0.00    +0.000 OA
ATOM      3  O   UNL     1       4.174   2.115  16.884  0.00  0.00    +0.000 OA
ENDROOT
BRANCH   1  11
ATOM      4  C   UNL     1       5.791   4.604  16.540  0.00  0.00    +0.000 A 
ATOM      5  C   UNL     1       6.717   5.652  16.648  0.00  0.00    +0.000 A 
ATOM      6  C   UNL     1       6.429   6.805  17.378  0.00  0.00    +0.000 A 
ATOM      7  C   UNL     1       7.431   7.917  17.490  0.00  0.00    +0.000 C 
ATOM      8  C   UNL     1       5.177   6.922  17.981  0.00  0.00    +0.000 A 
ATOM      9  C   UNL     1       4.210   5.901  17.882  0.00  0.00    +0.000 A 
ATOM     10  C   UNL     1       2.888   6.156  18.555  0.00  0.00    +0.000 C 
ATOM     11  C   UNL     1       4.530   4.721  17.165  0.00  0.00    +0.000 A 
BRANCH   4  13
ATOM     12  C   UNL     1       6.219   3.732  14.365  0.00  0.00    +0.000 C 
ATOM     13  O   UNL     1       6.047   3.507  15.762  0.00  0.00    +0.000 OA
ENDBRANCH   4  13
ENDBRANCH   1  11
BRANCH   1  14
ATOM     14  C   UNL     1       2.682   3.144  18.754  0.00  0.00    +0.000 A 
ATOM     15  C   UNL     1       3.509   2.863  19.842  0.00  0.00    +0.000 A 
ATOM     16  C   UNL     1       2.946   2.704  21.113  0.00  0.00    +0.000 A 
ATOM     17  C   UNL     1       1.574   2.879  21.319  0.00  0.00    +0.000 A 
ATOM     18  C   UNL     1       0.758   3.152  20.216  0.00  0.00    +0.000 A 
ATOM     19  C   UNL     1       1.308   3.307  18.939  0.00  0.00    +0.000 A 
BRANCH  17  20
ATOM     20  N   UNL     1       1.003   2.552  22.553  0.00  0.00    +0.000 N 
ATOM     21  H   UNL     1       0.074   2.936  22.697  0.00  0.00    +0.000 HD
ATOM     22  H   UNL     1       1.053   1.565  22.786  0.00  0.00    +0.000 HD
ENDBRANCH  17  20
ENDBRANCH   1  14
TORSDOF 4
ENDMDL
