MODEL 1
REMARK VINA RESULT:      -7.5      0.000      0.000
REMARK  Name = 
REMARK  5 active torsions:
REMARK  status: ('A' for Active; 'I' for Inactive)
REMARK    1  A    between atoms: C_1  and  C_2
REMARK    2  A    between atoms: C_2  and  C_3
REMARK    3  A    between atoms: C_3  and  N_4
REMARK    4  A    between atoms: C_8  and  C_9
REMARK    5  A    between atoms: C_14  and  C_15
REMARK                            x       y       z     vdW  Elec       q    Type
REMARK                         _______ _______ _______ _____ _____    ______ ____
ROOT
ATOM      1  C   UNL     1       3.789   4.425  17.919  0.00  0.00    +0.000 A 
ATOM      2  C   UNL     1       3.994   3.087  17.526  0.00  0.00    +0.000 A 
ATOM      3  C   UNL     1       3.009   2.141  17.739  0.00  0.00    +0.000 A 
ATOM      4  N   UNL     1       1.836   2.422  18.323  0.00  0.00    +0.000 NA
ATOM      5  C   UNL     1       1.646   3.711  18.699  0.00  0.00    +0.000 A 
ATOM      6  C   UNL     1       2.559   4.769  18.541  0.00  0.00    +0.000 A 
ENDROOT
BRANCH   1  11
ATOM      7  N   UNL     1       8.038   7.367  18.339  0.00  0.00    +0.000 N 
ATOM      8  C   UNL     1       6.919   6.743  17.900  0.00  0.00    +0.000 A 
ATOM      9  N   UNL     1       6.297   7.020  16.779  0.00  0.00    +0.000 NA
ATOM     10  C   UNL     1       5.151   6.256  16.667  0.00  0.00    +0.000 A 
ATOM     11  C   UNL     1       4.897   5.376  17.702  0.00  0.00    +0.000 A 
ATOM     12  S   UNL     1       6.183   5.512  18.847  0.00  0.00    +0.000 S 
ATOM     13  H   UNL     1       8.235   7.270  19.331  0.00  0.00    +0.000 HD
BRANCH   7  14
ATOM     14  C   UNL     1       8.333   8.671  17.767  0.00  0.00    +0.000 C 
BRANCH  14  16
ATOM     15  C   UNL     1       9.313  10.936  18.238  0.00  0.00    +0.000 C 
ATOM     16  C   UNL     1       8.928   9.584  18.831  0.00  0.00    +0.000 C 
ENDBRANCH  14  16
ENDBRANCH   7  14
ENDBRANCH   1  11
BRANCH   6  17
ATOM     17  C   UNL     1       2.173   6.121  19.030  0.00  0.00    +0.000 A 
ATOM     18  C   UNL     1       1.830   6.333  20.382  0.00  0.00    +0.000 A 
ATOM     19  C   UNL     1       1.480   7.600  20.864  0.00  0.00    +0.000 A 
ATOM     20  C   UNL     1       1.498   8.697  20.011  0.00  0.00    +0.000 A 
ATOM     21  C   UNL     1       1.820   8.518  18.671  0.00  0.00    +0.000 A 
ATOM     22  C   UNL     1       2.114   7.241  18.181  0.00  0.00    +0.000 A 
ENDBRANCH   6  17
TORSDOF 4
ENDMDL
MODEL 2
REMARK VINA RESULT:      -7.5      0.051      1.048
REMARK  Name = 
REMARK  5 active torsions:
REMARK  status: ('A' for Active; 'I' for Inactive)
REMARK    1  A    between atoms: C_1  and  C_2
REMARK    2  A    between atoms: C_2  and  C_3
REMARK    3  A    between atoms: C_3  and  N_4
REMARK    4  A    between atoms: C_8  and  C_9
REMARK    5  A    between atoms: C_14  and  C_15
REMARK                            x       y       z     vdW  Elec       q    Type
REMARK                         _______ _______ _______ _____ _____    ______ ____
ROOT
ATOM      1  C   UNL     1       3.807   4.425  17.934  0.00  0.00    +0.000 A 
ATOM      2  C   UNL     1       4.000   3.093  17.514  0.00  0.00    +0.000 A 
ATOM      3  C   UNL     1       3.016   2.147  17.731  0.00  0.00    +0.000 A 
ATOM      4  N   UNL     1       1.856   2.422  18.341  0.00  0.00    +0.000 NA
ATOM      5  C   UNL     1       1.678   3.705  18.742  0.00  0.00    +0.000 A 
ATOM      6  C   UNL     1       2.591   4.763  18.584  0.00  0.00    +0.000 A 
ENDROOT
BRANCH   1  11
ATOM      7  N   UNL     1       8.052   7.376  18.338  0.00  0.00    +0.000 N 
ATOM      8  C   UNL     1       6.934   6.748  17.902  0.00  0.00    +0.000 A 
ATOM      9  N   UNL     1       6.313   7.015  16.778  0.00  0.00    +0.000 NA
ATOM     10  C   UNL     1       5.169   6.250  16.670  0.00  0.00    +0.000 A 
ATOM     11  C   UNL     1       4.915   5.376  17.712  0.00  0.00    +0.000 A 
ATOM     12  S   UNL     1       6.199   5.523  18.857  0.00  0.00    +0.000 S 
ATOM     13  H   UNL     1       8.248   7.287  19.331  0.00  0.00    +0.000 HD
BRANCH   7  14
ATOM     14  C   UNL     1       8.346   8.676  17.758  0.00  0.00    +0.000 C 
BRANCH  14  16
ATOM     15  C   UNL     1       9.251  10.971  18.233  0.00  0.00    +0.000 C 
ATOM     16  C   UNL     1       8.878   9.618  18.830  0.00  0.00    +0.000 C 
ENDBRANCH  14  16
ENDBRANCH   7  14
ENDBRANCH   1  11
BRANCH   6  17
ATOM     17  C   UNL     1       2.219   6.108  19.103  0.00  0.00    +0.000 A 
ATOM     18  C   UNL     1       2.190   7.232  18.250  0.00  0.00    +0.000 A 
ATOM     19  C   UNL     1       1.827   8.501  18.716  0.00  0.00    +0.000 A 
ATOM     20  C   UNL     1       1.451   8.674  20.042  0.00  0.00    +0.000 A 
ATOM     21  C   UNL     1       1.481   7.589  20.909  0.00  0.00    +0.000 A 
ATOM     22  C   UNL     1       1.898   6.333  20.453  0.00  0.00    +0.000 A 
ENDBRANCH   6  17
TORSDOF 4
ENDMDL
MODEL 3
REMARK VINA RESULT:      -7.4      3.061      5.669
REMARK  Name = 
REMARK  5 active torsions:
REMARK  status: ('A' for Active; 'I' for Inactive)
REMARK    1  A    between atoms: C_1  and  C_2
REMARK    2  A    between atoms: C_2  and  C_3
REMARK    3  A    between atoms: C_3  and  N_4
REMARK    4  A    between atoms: C_8  and  C_9
REMARK    5  A    between atoms: C_14  and  C_15
REMARK                            x       y       z     vdW  Elec       q    Type
REMARK                         _______ _______ _______ _____ _____    ______ ____
ROOT
ATOM      1  C   UNL     1       3.623   6.194  17.626  0.00  0.00    +0.000 A 
ATOM      2  C   UNL     1       4.461   6.781  16.657  0.00  0.00    +0.000 A 
ATOM      3  C   UNL     1       5.254   5.986  15.851  0.00  0.00    +0.000 A 
ATOM      4  N   UNL     1       5.285   4.650  15.940  0.00  0.00    +0.000 NA
ATOM      5  C   UNL     1       4.476   4.092  16.875  0.00  0.00    +0.000 A 
ATOM      6  C   UNL     1       3.621   4.779  17.756  0.00  0.00    +0.000 A 
ENDROOT
BRANCH   1  11
ATOM      7  N   UNL     1       0.895  10.142  19.591  0.00  0.00    +0.000 N 
ATOM      8  C   UNL     1       1.527   8.959  19.395  0.00  0.00    +0.000 A 
ATOM      9  N   UNL     1       1.707   8.043  20.315  0.00  0.00    +0.000 NA
ATOM     10  C   UNL     1       2.451   6.996  19.808  0.00  0.00    +0.000 A 
ATOM     11  C   UNL     1       2.834   7.100  18.484  0.00  0.00    +0.000 A 
ATOM     12  S   UNL     1       2.198   8.580  17.859  0.00  0.00    +0.000 S 
ATOM     13  H   UNL     1       1.087  10.863  18.902  0.00  0.00    +0.000 HD
BRANCH   7  14
ATOM     14  C   UNL     1       0.778  10.605  20.964  0.00  0.00    +0.000 C 
BRANCH  14  16
ATOM     15  C   UNL     1      -0.559   9.988  23.000  0.00  0.00    +0.000 C 
ATOM     16  C   UNL     1      -0.610  10.287  21.505  0.00  0.00    +0.000 C 
ENDBRANCH  14  16
ENDBRANCH   7  14
ENDBRANCH   1  11
BRANCH   6  17
ATOM     17  C   UNL     1       2.815   3.990  18.725  0.00  0.00    +0.000 A 
ATOM     18  C   UNL     1       3.368   3.563  19.952  0.00  0.00    +0.000 A 
ATOM     19  C   UNL     1       2.620   2.833  20.884  0.00  0.00    +0.000 A 
ATOM     20  C   UNL     1       1.286   2.540  20.628  0.00  0.00    +0.000 A 
ATOM     21  C   UNL     1       0.716   2.937  19.425  0.00  0.00    +0.000 A 
ATOM     22  C   UNL     1       1.483   3.617  18.472  0.00  0.00    +0.000 A 
ENDBRANCH   6  17
TORSDOF 4
ENDMDL
MODEL 4
REMARK VINA RESULT:      -7.3      3.056      5.714
REMARK  Name = 
REMARK  5 active torsions:
REMARK  status: ('A' for Active; 'I' for Inactive)
REMARK    1  A    between atoms: C_1  and  C_2
REMARK    2  A    between atoms: C_2  and  C_3
REMARK    3  A    between atoms: C_3  and  N_4
REMARK    4  A    between atoms: C_8  and  C_9
REMARK    5  A    between atoms: C_14  and  C_15
REMARK                            x       y       z     vdW  Elec       q    Type
REMARK                         _______ _______ _______ _____ _____    ______ ____
ROOT
ATOM      1  C   UNL     1       3.637   6.225  17.618  0.00  0.00    +0.000 A 
ATOM      2  C   UNL     1       4.478   6.816  16.654  0.00  0.00    +0.000 A 
ATOM      3  C   UNL     1       5.266   6.025  15.841  0.00  0.00    +0.000 A 
ATOM      4  N   UNL     1       5.290   4.688  15.918  0.00  0.00    +0.000 NA
ATOM      5  C   UNL     1       4.479   4.126  16.848  0.00  0.00    +0.000 A 
ATOM      6  C   UNL     1       3.628   4.809  17.735  0.00  0.00    +0.000 A 
ENDROOT
BRANCH   1  11
ATOM      7  N   UNL     1       0.917  10.163  19.614  0.00  0.00    +0.000 N 
ATOM      8  C   UNL     1       1.549   8.982  19.410  0.00  0.00    +0.000 A 
ATOM      9  N   UNL     1       1.736   8.063  20.326  0.00  0.00    +0.000 NA
ATOM     10  C   UNL     1       2.479   7.018  19.811  0.00  0.00    +0.000 A 
ATOM     11  C   UNL     1       2.853   7.128  18.484  0.00  0.00    +0.000 A 
ATOM     12  S   UNL     1       2.210   8.608  17.868  0.00  0.00    +0.000 S 
ATOM     13  H   UNL     1       1.103  10.886  18.926  0.00  0.00    +0.000 HD
BRANCH   7  14
ATOM     14  C   UNL     1       0.809  10.622  20.989  0.00  0.00    +0.000 C 
BRANCH  14  16
ATOM     15  C   UNL     1      -0.460   9.828  23.007  0.00  0.00    +0.000 C 
ATOM     16  C   UNL     1      -0.562  10.269  21.550  0.00  0.00    +0.000 C 
ENDBRANCH  14  16
ENDBRANCH   7  14
ENDBRANCH   1  11
BRANCH   6  17
ATOM     17  C   UNL     1       2.817   4.015  18.698  0.00  0.00    +0.000 A 
ATOM     18  C   UNL     1       1.494   3.633  18.390  0.00  0.00    +0.000 A 
ATOM     19  C   UNL     1       0.721   2.873  19.276  0.00  0.00    +0.000 A 
ATOM     20  C   UNL     1       1.265   2.444  20.481  0.00  0.00    +0.000 A 
ATOM     21  C   UNL     1       2.562   2.814  20.817  0.00  0.00    +0.000 A 
ATOM     22  C   UNL     1       3.311   3.621  19.954  0.00  0.00    +0.000 A 
ENDBRANCH   6  17
TORSDOF 4
ENDMDL
MODEL 5
REMARK VINA RESULT:      -7.3      2.568      5.467
REMARK  Name = 
REMARK  5 active torsions:
REMARK  status: ('A' for Active; 'I' for Inactive)
REMARK    1  A    between atoms: C_1  and  C_2
REMARK    2  A    between atoms: C_2  and  C_3
REMARK    3  A    between atoms: C_3  and  N_4
REMARK    4  A    between atoms: C_8  and  C_9
REMARK    5  A    between atoms: C_14  and  C_15
REMARK                            x       y       z     vdW  Elec       q    Type
REMARK                         _______ _______ _______ _____ _____    ______ ____
ROOT
ATOM      1  C   UNL     1       2.615   4.531  18.683  0.00  0.00    +0.000 A 
ATOM      2  C   UNL     1       1.547   3.611  18.679  0.00  0.00    +0.000 A 
ATOM      3  C   UNL     1       1.744   2.320  18.227  0.00  0.00    +0.000 A 
ATOM      4  N   UNL     1       2.922   1.875  17.769  0.00  0.00    +0.000 NA
ATOM      5  C   UNL     1       3.944   2.766  17.775  0.00  0.00    +0.000 A 
ATOM      6  C   UNL     1       3.883   4.103  18.208  0.00  0.00    +0.000 A 
ENDROOT
BRANCH   1  11
ATOM      7  N   UNL     1       1.216   8.749  21.357  0.00  0.00    +0.000 N 
ATOM      8  C   UNL     1       1.686   7.894  20.417  0.00  0.00    +0.000 A 
ATOM      9  N   UNL     1       2.061   8.238  19.209  0.00  0.00    +0.000 NA
ATOM     10  C   UNL     1       2.416   7.119  18.481  0.00  0.00    +0.000 A 
ATOM     11  C   UNL     1       2.327   5.906  19.138  0.00  0.00    +0.000 A 
ATOM     12  S   UNL     1       1.795   6.212  20.753  0.00  0.00    +0.000 S 
ATOM     13  H   UNL     1       0.693   8.324  22.116  0.00  0.00    +0.000 HD
BRANCH   7  14
ATOM     14  C   UNL     1       0.707  10.027  20.887  0.00  0.00    +0.000 C 
BRANCH  14  16
ATOM     15  C   UNL     1      -0.308   9.746  23.167  0.00  0.00    +0.000 C 
ATOM     16  C   UNL     1      -0.217  10.637  21.933  0.00  0.00    +0.000 C 
ENDBRANCH  14  16
ENDBRANCH   7  14
ENDBRANCH   1  11
BRANCH   6  17
ATOM     17  C   UNL     1       5.115   4.934  18.128  0.00  0.00    +0.000 A 
ATOM     18  C   UNL     1       5.988   5.045  19.231  0.00  0.00    +0.000 A 
ATOM     19  C   UNL     1       7.160   5.810  19.169  0.00  0.00    +0.000 A 
ATOM     20  C   UNL     1       7.507   6.456  17.990  0.00  0.00    +0.000 A 
ATOM     21  C   UNL     1       6.661   6.375  16.890  0.00  0.00    +0.000 A 
ATOM     22  C   UNL     1       5.463   5.657  16.973  0.00  0.00    +0.000 A 
ENDBRANCH   6  17
TORSDOF 4
ENDMDL
MODEL 6
REMARK VINA RESULT:      -7.2      2.550      5.534
REMARK  Name = 
REMARK  5 active torsions:
REMARK  status: ('A' for Active; 'I' for Inactive)
REMARK    1  A    between atoms: C_1  and  C_2
REMARK    2  A    between atoms: C_2  and  C_3
REMARK    3  A    between atoms: C_3  and  N_4
REMARK    4  A    between atoms: C_8  and  C_9
REMARK    5  A    between atoms: C_14  and  C_15
REMARK                            x       y       z     vdW  Elec       q    Type
REMARK                         _______ _______ _______ _____ _____    ______ ____
ROOT
ATOM      1  C   UNL     1       2.676   4.529  18.649  0.00  0.00    +0.000 A 
ATOM      2  C   UNL     1       1.616   3.600  18.630  0.00  0.00    +0.000 A 
ATOM      3  C   UNL     1       1.829   2.311  18.179  0.00  0.00    +0.000 A 
ATOM      4  N   UNL     1       3.016   1.876  17.735  0.00  0.00    +0.000 NA
ATOM      5  C   UNL     1       4.030   2.775  17.755  0.00  0.00    +0.000 A 
ATOM      6  C   UNL     1       3.953   4.111  18.188  0.00  0.00    +0.000 A 
ENDROOT
BRANCH   1  11
ATOM      7  N   UNL     1       1.230   8.734  21.317  0.00  0.00    +0.000 N 
ATOM      8  C   UNL     1       1.708   7.883  20.377  0.00  0.00    +0.000 A 
ATOM      9  N   UNL     1       2.073   8.229  19.166  0.00  0.00    +0.000 NA
ATOM     10  C   UNL     1       2.440   7.113  18.440  0.00  0.00    +0.000 A 
ATOM     11  C   UNL     1       2.371   5.901  19.101  0.00  0.00    +0.000 A 
ATOM     12  S   UNL     1       1.842   6.204  20.717  0.00  0.00    +0.000 S 
ATOM     13  H   UNL     1       0.717   8.304  22.080  0.00  0.00    +0.000 HD
BRANCH   7  14
ATOM     14  C   UNL     1       0.702  10.004  20.846  0.00  0.00    +0.000 C 
BRANCH  14  16
ATOM     15  C   UNL     1      -0.340   9.747  23.117  0.00  0.00    +0.000 C 
ATOM     16  C   UNL     1      -0.041  10.710  21.972  0.00  0.00    +0.000 C 
ENDBRANCH  14  16
ENDBRANCH   7  14
ENDBRANCH   1  11
BRANCH   6  17
ATOM     17  C   UNL     1       5.178   4.953  18.124  0.00  0.00    +0.000 A 
ATOM     18  C   UNL     1       5.470   5.724  16.979  0.00  0.00    +0.000 A 
ATOM     19  C   UNL     1       6.610   6.535  16.906  0.00  0.00    +0.000 A 
ATOM     20  C   UNL     1       7.471   6.621  17.992  0.00  0.00    +0.000 A 
ATOM     21  C   UNL     1       7.218   5.865  19.130  0.00  0.00    +0.000 A 
ATOM     22  C   UNL     1       6.108   5.013  19.178  0.00  0.00    +0.000 A 
ENDBRANCH   6  17
TORSDOF 4
ENDMDL
MODEL 7
REMARK VINA RESULT:      -7.1      2.493      5.383
REMARK  Name = 
REMARK  5 active torsions:
REMARK  status: ('A' for Active; 'I' for Inactive)
REMARK    1  A    between atoms: C_1  and  C_2
REMARK    2  A    between atoms: C_2  and  C_3
REMARK    3  A    between atoms: C_3  and  N_4
REMARK    4  A    between atoms: C_8  and  C_9
REMARK    5  A    between atoms: C_14  and  C_15
REMARK                            x       y       z     vdW  Elec       q    Type
REMARK                         _______ _______ _______ _____ _____    ______ ____
ROOT
ATOM      1  C   UNL     1       2.731   4.816  18.425  0.00  0.00    +0.000 A 
ATOM      2  C   UNL     1       1.653   3.911  18.367  0.00  0.00    +0.000 A 
ATOM      3  C   UNL     1       1.876   2.583  18.056  0.00  0.00    +0.000 A 
ATOM      4  N   UNL     1       3.091   2.086  17.789  0.00  0.00    +0.000 NA
ATOM      5  C   UNL     1       4.123   2.963  17.846  0.00  0.00    +0.000 A 
ATOM      6  C   UNL     1       4.039   4.334  18.150  0.00  0.00    +0.000 A 
ENDROOT
BRANCH   1  11
ATOM      7  N   UNL     1       1.225   9.283  20.586  0.00  0.00    +0.000 N 
ATOM      8  C   UNL     1       1.728   8.336  19.758  0.00  0.00    +0.000 A 
ATOM      9  N   UNL     1       2.131   8.552  18.528  0.00  0.00    +0.000 NA
ATOM     10  C   UNL     1       2.514   7.364  17.936  0.00  0.00    +0.000 A 
ATOM     11  C   UNL     1       2.419   6.229  18.720  0.00  0.00    +0.000 A 
ATOM     12  S   UNL     1       1.843   6.702  20.277  0.00  0.00    +0.000 S 
ATOM     13  H   UNL     1       0.687   8.937  21.374  0.00  0.00    +0.000 HD
BRANCH   7  14
ATOM     14  C   UNL     1       0.718  10.497  19.967  0.00  0.00    +0.000 C 
BRANCH  14  16
ATOM     15  C   UNL     1      -1.058  10.336  18.197  0.00  0.00    +0.000 C 
ATOM     16  C   UNL     1      -0.774  10.359  19.695  0.00  0.00    +0.000 C 
ENDBRANCH  14  16
ENDBRANCH   7  14
ENDBRANCH   1  11
BRANCH   6  17
ATOM     17  C   UNL     1       5.288   5.141  18.152  0.00  0.00    +0.000 A 
ATOM     18  C   UNL     1       6.167   5.116  19.256  0.00  0.00    +0.000 A 
ATOM     19  C   UNL     1       7.355   5.856  19.270  0.00  0.00    +0.000 A 
ATOM     20  C   UNL     1       7.714   6.616  18.164  0.00  0.00    +0.000 A 
ATOM     21  C   UNL     1       6.864   6.671  17.066  0.00  0.00    +0.000 A 
ATOM     22  C   UNL     1       5.650   5.974  17.078  0.00  0.00    +0.000 A 
ENDBRANCH   6  17
TORSDOF 4
ENDMDL
MODEL 8
REMARK VINA RESULT:      -7.1      2.551      5.455
REMARK  Name = 
REMARK  5 active torsions:
REMARK  status: ('A' for Active; 'I' for Inactive)
REMARK    1  A    between atoms: C_1  and  C_2
REMARK    2  A    between atoms: C_2  and  C_3
REMARK    3  A    between atoms: C_3  and  N_4
REMARK    4  A    between atoms: C_8  and  C_9
REMARK    5  A    between atoms: C_14  and  C_15
REMARK                            x       y       z     vdW  Elec       q    Type
REMARK                         _______ _______ _______ _____ _____    ______ ____
ROOT
ATOM      1  C   UNL     1       2.599   4.535  18.595  0.00  0.00    +0.000 A 
ATOM      2  C   UNL     1       1.501   3.652  18.644  0.00  0.00    +0.000 A 
ATOM      3  C   UNL     1       1.665   2.320  18.317  0.00  0.00    +0.000 A 
ATOM      4  N   UNL     1       2.838   1.797  17.936  0.00  0.00    +0.000 NA
ATOM      5  C   UNL     1       3.889   2.652  17.891  0.00  0.00    +0.000 A 
ATOM      6  C   UNL     1       3.863   4.024  18.198  0.00  0.00    +0.000 A 
ENDROOT
BRANCH   1  11
ATOM      7  N   UNL     1       1.251   9.021  20.820  0.00  0.00    +0.000 N 
ATOM      8  C   UNL     1       1.729   8.069  19.983  0.00  0.00    +0.000 A 
ATOM      9  N   UNL     1       2.172   8.291  18.769  0.00  0.00    +0.000 NA
ATOM     10  C   UNL     1       2.513   7.100  18.159  0.00  0.00    +0.000 A 
ATOM     11  C   UNL     1       2.346   5.954  18.914  0.00  0.00    +0.000 A 
ATOM     12  S   UNL     1       1.754   6.421  20.468  0.00  0.00    +0.000 S 
ATOM     13  H   UNL     1       0.678   8.684  21.587  0.00  0.00    +0.000 HD
BRANCH   7  14
ATOM     14  C   UNL     1       0.817  10.270  20.216  0.00  0.00    +0.000 C 
BRANCH  14  16
ATOM     15  C   UNL     1      -0.878  10.354  18.363  0.00  0.00    +0.000 C 
ATOM     16  C   UNL     1      -0.663  10.193  19.865  0.00  0.00    +0.000 C 
ENDBRANCH  14  16
ENDBRANCH   7  14
ENDBRANCH   1  11
BRANCH   6  17
ATOM     17  C   UNL     1       5.124   4.805  18.079  0.00  0.00    +0.000 A 
ATOM     18  C   UNL     1       5.512   5.373  16.846  0.00  0.00    +0.000 A 
ATOM     19  C   UNL     1       6.687   6.125  16.718  0.00  0.00    +0.000 A 
ATOM     20  C   UNL     1       7.488   6.357  17.829  0.00  0.00    +0.000 A 
ATOM     21  C   UNL     1       7.139   5.801  19.054  0.00  0.00    +0.000 A 
ATOM     22  C   UNL     1       5.994   5.004  19.165  0.00  0.00    +0.000 A 
ENDBRANCH   6  17
TORSDOF 4
ENDMDL
MODEL 9
REMARK VINA RESULT:      -7.0      2.890      3.926
REMARK  Name = 
REMARK  5 active torsions:
REMARK  status: ('A' for Active; 'I' for Inactive)
REMARK    1  A    between atoms: C_1  and  C_2
REMARK    2  A    between atoms: C_2  and  C_3
REMARK    3  A    between atoms: C_3  and  N_4
REMARK    4  A    between atoms: C_8  and  C_9
REMARK    5  A    between atoms: C_14  and  C_15
REMARK                            x       y       z     vdW  Elec       q    Type
REMARK                         _______ _______ _______ _____ _____    ______ ____
ROOT
ATOM      1  C   UNL     1       3.575   3.961  19.547  0.00  0.00    +0.000 A 
ATOM      2  C   UNL     1       3.775   2.705  20.154  0.00  0.00    +0.000 A 
ATOM      3  C   UNL     1       3.089   2.373  21.307  0.00  0.00    +0.000 A 
ATOM      4  N   UNL     1       2.224   3.199  21.909  0.00  0.00    +0.000 NA
ATOM      5  C   UNL     1       2.037   4.406  21.320  0.00  0.00    +0.000 A 
ATOM      6  C   UNL     1       2.665   4.870  20.150  0.00  0.00    +0.000 A 
ENDROOT
BRANCH   1  11
ATOM      7  N   UNL     1       5.450   4.346  14.728  0.00  0.00    +0.000 N 
ATOM      8  C   UNL     1       5.235   4.466  16.060  0.00  0.00    +0.000 A 
ATOM      9  N   UNL     1       6.054   5.048  16.902  0.00  0.00    +0.000 NA
ATOM     10  C   UNL     1       5.575   4.933  18.193  0.00  0.00    +0.000 A 
ATOM     11  C   UNL     1       4.370   4.270  18.342  0.00  0.00    +0.000 A 
ATOM     12  S   UNL     1       3.821   3.800  16.774  0.00  0.00    +0.000 S 
ATOM     13  H   UNL     1       4.903   3.632  14.257  0.00  0.00    +0.000 HD
BRANCH   7  14
ATOM     14  C   UNL     1       6.822   4.488  14.267  0.00  0.00    +0.000 C 
BRANCH  14  16
ATOM     15  C   UNL     1       5.762   3.284  12.333  0.00  0.00    +0.000 C 
ATOM     16  C   UNL     1       6.903   4.195  12.774  0.00  0.00    +0.000 C 
ENDBRANCH  14  16
ENDBRANCH   7  14
ENDBRANCH   1  11
BRANCH   6  17
ATOM     17  C   UNL     1       2.337   6.236  19.660  0.00  0.00    +0.000 A 
ATOM     18  C   UNL     1       1.817   7.215  20.533  0.00  0.00    +0.000 A 
ATOM     19  C   UNL     1       1.517   8.511  20.094  0.00  0.00    +0.000 A 
ATOM     20  C   UNL     1       1.763   8.871  18.775  0.00  0.00    +0.000 A 
ATOM     21  C   UNL     1       2.264   7.926  17.888  0.00  0.00    +0.000 A 
ATOM     22  C   UNL     1       2.509   6.617  18.317  0.00  0.00    +0.000 A 
ENDBRANCH   6  17
TORSDOF 4
ENDMDL
