MODEL 1
REMARK VINA RESULT:      -8.1      0.000      0.000
REMARK  Name = 
REMARK  9 active torsions:
REMARK  status: ('A' for Active; 'I' for Inactive)
REMARK    1  A    between atoms: C_1  and  C_2
REMARK    2  A    between atoms: N_5  and  C_6
REMARK    3  A    between atoms: C_6  and  C_7
REMARK    4  A    between atoms: C_6  and  C_8
REMARK    5  A    between atoms: C_12  and  C_13
REMARK    6  A    between atoms: C_20  and  C_21
REMARK    7  A    between atoms: N_24  and  C_25
REMARK    8  A    between atoms: C_25  and  C_26
REMARK    9  A    between atoms: C_26  and  O_28
REMARK                            x       y       z     vdW  Elec       q    Type
REMARK                         _______ _______ _______ _____ _____    ______ ____
ROOT
ATOM      1  C   UNL     1       3.099   1.197  18.896  0.00  0.00    +0.000 C 
ATOM      2  C   UNL     1       3.101   2.676  18.672  0.00  0.00    +0.000 A 
ATOM      3  N   UNL     1       3.979   3.213  17.801  0.00  0.00    +0.000 NA
ATOM      4  C   UNL     1       4.006   4.558  17.692  0.00  0.00    +0.000 A 
ATOM      5  N   UNL     1       4.920   5.161  16.796  0.00  0.00    +0.000 N 
ATOM      6  C   UNL     1       3.123   5.376  18.435  0.00  0.00    +0.000 A 
ATOM      7  C   UNL     1       3.073   6.799  18.422  0.00  0.00    +0.000 A 
ATOM      8  C   UNL     1       2.241   7.526  19.291  0.00  0.00    +0.000 A 
ATOM      9  C   UNL     1       1.457   6.797  20.176  0.00  0.00    +0.000 A 
ATOM     10  C   UNL     1       1.437   5.405  20.141  0.00  0.00    +0.000 A 
ATOM     11  C   UNL     1       2.265   4.690  19.298  0.00  0.00    +0.000 A 
ATOM     12  N   UNL     1       2.230   3.371  19.408  0.00  0.00    +0.000 NA
ATOM     13  H   UNL     1       5.167   6.089  17.114  0.00  0.00    +0.000 HD
ENDROOT
BRANCH   8  14
ATOM     14  C   UNL     1       2.275   9.057  19.253  0.00  0.00    +0.000 C 
ATOM     15  C   UNL     1       1.297   9.768  20.202  0.00  0.00    +0.000 C 
ATOM     16  C   UNL     1      -0.159   9.653  19.740  0.00  0.00    +0.000 C 
ATOM     17  N   UNL     1      -0.374  10.129  18.353  0.00  0.00    +0.000 NA
ATOM     18  C   UNL     1       0.572   9.473  17.420  0.00  0.00    +0.000 C 
ATOM     19  C   UNL     1       2.031   9.624  17.844  0.00  0.00    +0.000 C 
BRANCH  17  20
ATOM     20  C   UNL     1      -1.760   9.756  17.913  0.00  0.00    +0.000 C 
BRANCH  20  21
ATOM     21  C   UNL     1      -2.608  10.998  17.670  0.00  0.00    +0.000 C 
ATOM     22  O   UNL     1      -3.743  11.156  18.092  0.00  0.00    +0.000 OA
BRANCH  21  23
ATOM     23  O   UNL     1      -1.972  11.900  16.882  0.00  0.00    +0.000 OA
ATOM     24  H   UNL     1      -2.670  12.390  16.386  0.00  0.00    +0.000 HD
ENDBRANCH  21  23
ENDBRANCH  20  21
ENDBRANCH  17  20
ENDBRANCH   8  14
BRANCH   5  25
ATOM     25  C   UNL     1       6.155   4.422  16.491  0.00  0.00    +0.000 C 
ATOM     26  C   UNL     1       7.344   5.050  17.234  0.00  0.00    +0.000 C 
BRANCH  25  27
ATOM     27  C   UNL     1       6.337   4.448  14.962  0.00  0.00    +0.000 A 
ATOM     28  C   UNL     1       7.426   5.155  14.425  0.00  0.00    +0.000 A 
ATOM     29  C   UNL     1       7.671   5.174  13.048  0.00  0.00    +0.000 A 
ATOM     30  C   UNL     1       6.815   4.509  12.174  0.00  0.00    +0.000 A 
ATOM     31  C   UNL     1       5.695   3.831  12.665  0.00  0.00    +0.000 A 
ATOM     32  C   UNL     1       5.483   3.780  14.060  0.00  0.00    +0.000 A 
BRANCH  31  33
ATOM     33  C   UNL     1       4.696   3.210  11.714  0.00  0.00    +0.000 C 
ATOM     34  F   UNL     1       3.485   2.951  12.285  0.00  0.00    +0.000 F 
ATOM     35  F   UNL     1       4.436   3.994  10.631  0.00  0.00    +0.000 F 
ATOM     36  F   UNL     1       5.131   2.019  11.217  0.00  0.00    +0.000 F 
ENDBRANCH  31  33
ENDBRANCH  25  27
ENDBRANCH   5  25
TORSDOF 7
ENDMDL
MODEL 2
REMARK VINA RESULT:      -8.1      1.737      2.185
REMARK  Name = 
REMARK  9 active torsions:
REMARK  status: ('A' for Active; 'I' for Inactive)
REMARK    1  A    between atoms: C_1  and  C_2
REMARK    2  A    between atoms: N_5  and  C_6
REMARK    3  A    between atoms: C_6  and  C_7
REMARK    4  A    between atoms: C_6  and  C_8
REMARK    5  A    between atoms: C_12  and  C_13
REMARK    6  A    between atoms: C_20  and  C_21
REMARK    7  A    between atoms: N_24  and  C_25
REMARK    8  A    between atoms: C_25  and  C_26
REMARK    9  A    between atoms: C_26  and  O_28
REMARK                            x       y       z     vdW  Elec       q    Type
REMARK                         _______ _______ _______ _____ _____    ______ ____
ROOT
ATOM      1  C   UNL     1       4.297   2.417  20.345  0.00  0.00    +0.000 C 
ATOM      2  C   UNL     1       3.935   3.650  19.580  0.00  0.00    +0.000 A 
ATOM      3  N   UNL     1       4.560   3.916  18.416  0.00  0.00    +0.000 NA
ATOM      4  C   UNL     1       4.265   5.081  17.801  0.00  0.00    +0.000 A 
ATOM      5  N   UNL     1       4.907   5.401  16.582  0.00  0.00    +0.000 N 
ATOM      6  C   UNL     1       3.311   5.977  18.338  0.00  0.00    +0.000 A 
ATOM      7  C   UNL     1       2.936   7.238  17.796  0.00  0.00    +0.000 A 
ATOM      8  C   UNL     1       2.066   8.113  18.470  0.00  0.00    +0.000 A 
ATOM      9  C   UNL     1       1.578   7.697  19.702  0.00  0.00    +0.000 A 
ATOM     10  C   UNL     1       1.873   6.431  20.203  0.00  0.00    +0.000 A 
ATOM     11  C   UNL     1       2.739   5.578  19.547  0.00  0.00    +0.000 A 
ATOM     12  N   UNL     1       3.019   4.435  20.155  0.00  0.00    +0.000 NA
ATOM     13  H   UNL     1       4.970   6.404  16.468  0.00  0.00    +0.000 HD
ENDROOT
BRANCH   8  14
ATOM     14  C   UNL     1       1.744   9.476  17.848  0.00  0.00    +0.000 C 
ATOM     15  C   UNL     1       2.233  10.700  18.638  0.00  0.00    +0.000 C 
ATOM     16  C   UNL     1       1.419  10.939  19.914  0.00  0.00    +0.000 C 
ATOM     17  N   UNL     1      -0.038  11.051  19.669  0.00  0.00    +0.000 NA
ATOM     18  C   UNL     1      -0.530   9.891  18.890  0.00  0.00    +0.000 C 
ATOM     19  C   UNL     1       0.241   9.674  17.589  0.00  0.00    +0.000 C 
BRANCH  17  20
ATOM     20  C   UNL     1      -0.761  11.040  20.984  0.00  0.00    +0.000 C 
BRANCH  20  21
ATOM     21  C   UNL     1      -0.260   9.908  21.873  0.00  0.00    +0.000 C 
ATOM     22  O   UNL     1      -0.594   8.738  21.761  0.00  0.00    +0.000 OA
BRANCH  21  23
ATOM     23  O   UNL     1       0.573  10.357  22.845  0.00  0.00    +0.000 OA
ATOM     24  H   UNL     1       0.551   9.690  23.572  0.00  0.00    +0.000 HD
ENDBRANCH  21  23
ENDBRANCH  20  21
ENDBRANCH  17  20
ENDBRANCH   8  14
BRANCH   5  25
ATOM     25  C   UNL     1       6.234   4.814  16.342  0.00  0.00    +0.000 C 
ATOM     26  C   UNL     1       7.325   5.700  16.963  0.00  0.00    +0.000 C 
BRANCH  25  27
ATOM     27  C   UNL     1       6.397   4.661  14.818  0.00  0.00    +0.000 A 
ATOM     28  C   UNL     1       7.524   5.231  14.201  0.00  0.00    +0.000 A 
ATOM     29  C   UNL     1       7.751   5.084  12.828  0.00  0.00    +0.000 A 
ATOM     30  C   UNL     1       6.842   4.386  12.037  0.00  0.00    +0.000 A 
ATOM     31  C   UNL     1       5.686   3.843  12.606  0.00  0.00    +0.000 A 
ATOM     32  C   UNL     1       5.489   3.958  13.999  0.00  0.00    +0.000 A 
BRANCH  31  33
ATOM     33  C   UNL     1       4.636   3.192  11.734  0.00  0.00    +0.000 C 
ATOM     34  F   UNL     1       5.005   1.970  11.252  0.00  0.00    +0.000 F 
ATOM     35  F   UNL     1       3.455   2.994  12.383  0.00  0.00    +0.000 F 
ATOM     36  F   UNL     1       4.336   3.944  10.639  0.00  0.00    +0.000 F 
ENDBRANCH  31  33
ENDBRANCH  25  27
ENDBRANCH   5  25
TORSDOF 7
ENDMDL
MODEL 3
REMARK VINA RESULT:      -8.0      1.449      1.838
REMARK  Name = 
REMARK  9 active torsions:
REMARK  status: ('A' for Active; 'I' for Inactive)
REMARK    1  A    between atoms: C_1  and  C_2
REMARK    2  A    between atoms: N_5  and  C_6
REMARK    3  A    between atoms: C_6  and  C_7
REMARK    4  A    between atoms: C_6  and  C_8
REMARK    5  A    between atoms: C_12  and  C_13
REMARK    6  A    between atoms: C_20  and  C_21
REMARK    7  A    between atoms: N_24  and  C_25
REMARK    8  A    between atoms: C_25  and  C_26
REMARK    9  A    between atoms: C_26  and  O_28
REMARK                            x       y       z     vdW  Elec       q    Type
REMARK                         _______ _______ _______ _____ _____    ______ ____
ROOT
ATOM      1  C   UNL     1       4.430   2.477  20.277  0.00  0.00    +0.000 C 
ATOM      2  C   UNL     1       4.039   3.703  19.515  0.00  0.00    +0.000 A 
ATOM      3  N   UNL     1       4.653   3.982  18.348  0.00  0.00    +0.000 NA
ATOM      4  C   UNL     1       4.332   5.141  17.736  0.00  0.00    +0.000 A 
ATOM      5  N   UNL     1       4.962   5.476  16.514  0.00  0.00    +0.000 N 
ATOM      6  C   UNL     1       3.362   6.017  18.278  0.00  0.00    +0.000 A 
ATOM      7  C   UNL     1       2.959   7.271  17.738  0.00  0.00    +0.000 A 
ATOM      8  C   UNL     1       2.075   8.128  18.418  0.00  0.00    +0.000 A 
ATOM      9  C   UNL     1       1.601   7.701  19.652  0.00  0.00    +0.000 A 
ATOM     10  C   UNL     1       1.924   6.441  20.150  0.00  0.00    +0.000 A 
ATOM     11  C   UNL     1       2.804   5.606  19.490  0.00  0.00    +0.000 A 
ATOM     12  N   UNL     1       3.110   4.469  20.095  0.00  0.00    +0.000 NA
ATOM     13  H   UNL     1       5.004   6.479  16.400  0.00  0.00    +0.000 HD
ENDROOT
BRANCH   8  14
ATOM     14  C   UNL     1       1.723   9.484  17.798  0.00  0.00    +0.000 C 
ATOM     15  C   UNL     1       2.233  10.717  18.561  0.00  0.00    +0.000 C 
ATOM     16  C   UNL     1       1.465  10.961  19.864  0.00  0.00    +0.000 C 
ATOM     17  N   UNL     1      -0.001  11.063  19.672  0.00  0.00    +0.000 NA
ATOM     18  C   UNL     1      -0.515   9.895  18.919  0.00  0.00    +0.000 C 
ATOM     19  C   UNL     1       0.210   9.672  17.593  0.00  0.00    +0.000 C 
BRANCH  17  20
ATOM     20  C   UNL     1      -0.675  11.057  21.013  0.00  0.00    +0.000 C 
BRANCH  20  21
ATOM     21  C   UNL     1      -1.596  12.261  21.166  0.00  0.00    +0.000 C 
ATOM     22  O   UNL     1      -2.600  12.284  21.861  0.00  0.00    +0.000 OA
BRANCH  21  23
ATOM     23  O   UNL     1      -1.198  13.305  20.396  0.00  0.00    +0.000 OA
ATOM     24  H   UNL     1      -1.976  13.904  20.300  0.00  0.00    +0.000 HD
ENDBRANCH  21  23
ENDBRANCH  20  21
ENDBRANCH  17  20
ENDBRANCH   8  14
BRANCH   5  25
ATOM     25  C   UNL     1       6.299   4.916  16.267  0.00  0.00    +0.000 C 
ATOM     26  C   UNL     1       7.378   5.851  16.834  0.00  0.00    +0.000 C 
BRANCH  25  27
ATOM     27  C   UNL     1       6.437   4.713  14.747  0.00  0.00    +0.000 A 
ATOM     28  C   UNL     1       7.569   5.234  14.097  0.00  0.00    +0.000 A 
ATOM     29  C   UNL     1       7.773   5.041  12.727  0.00  0.00    +0.000 A 
ATOM     30  C   UNL     1       6.835   4.345  11.969  0.00  0.00    +0.000 A 
ATOM     31  C   UNL     1       5.672   3.851  12.569  0.00  0.00    +0.000 A 
ATOM     32  C   UNL     1       5.498   4.012  13.961  0.00  0.00    +0.000 A 
BRANCH  31  33
ATOM     33  C   UNL     1       4.593   3.203  11.731  0.00  0.00    +0.000 C 
ATOM     34  F   UNL     1       4.967   2.012  11.181  0.00  0.00    +0.000 F 
ATOM     35  F   UNL     1       3.456   2.945  12.437  0.00  0.00    +0.000 F 
ATOM     36  F   UNL     1       4.212   3.988  10.685  0.00  0.00    +0.000 F 
ENDBRANCH  31  33
ENDBRANCH  25  27
ENDBRANCH   5  25
TORSDOF 7
ENDMDL
MODEL 4
REMARK VINA RESULT:      -7.6      1.738      2.273
REMARK  Name = 
REMARK  9 active torsions:
REMARK  status: ('A' for Active; 'I' for Inactive)
REMARK    1  A    between atoms: C_1  and  C_2
REMARK    2  A    between atoms: N_5  and  C_6
REMARK    3  A    between atoms: C_6  and  C_7
REMARK    4  A    between atoms: C_6  and  C_8
REMARK    5  A    between atoms: C_12  and  C_13
REMARK    6  A    between atoms: C_20  and  C_21
REMARK    7  A    between atoms: N_24  and  C_25
REMARK    8  A    between atoms: C_25  and  C_26
REMARK    9  A    between atoms: C_26  and  O_28
REMARK                            x       y       z     vdW  Elec       q    Type
REMARK                         _______ _______ _______ _____ _____    ______ ____
ROOT
ATOM      1  C   UNL     1       3.633   2.266  19.979  0.00  0.00    +0.000 C 
ATOM      2  C   UNL     1       3.395   3.708  19.660  0.00  0.00    +0.000 A 
ATOM      3  N   UNL     1       4.194   4.330  18.771  0.00  0.00    +0.000 NA
ATOM      4  C   UNL     1       4.000   5.652  18.576  0.00  0.00    +0.000 A 
ATOM      5  N   UNL     1       4.824   6.344  17.658  0.00  0.00    +0.000 N 
ATOM      6  C   UNL     1       2.974   6.354  19.252  0.00  0.00    +0.000 A 
ATOM      7  C   UNL     1       2.689   7.745  19.147  0.00  0.00    +0.000 A 
ATOM      8  C   UNL     1       1.726   8.374  19.956  0.00  0.00    +0.000 A 
ATOM      9  C   UNL     1       1.051   7.579  20.873  0.00  0.00    +0.000 A 
ATOM     10  C   UNL     1       1.264   6.203  20.927  0.00  0.00    +0.000 A 
ATOM     11  C   UNL     1       2.221   5.588  20.144  0.00  0.00    +0.000 A 
ATOM     12  N   UNL     1       2.402   4.290  20.338  0.00  0.00    +0.000 NA
ATOM     13  H   UNL     1       4.905   7.318  17.919  0.00  0.00    +0.000 HD
ENDROOT
BRANCH   8  14
ATOM     14  C   UNL     1       1.506   9.884  19.820  0.00  0.00    +0.000 C 
ATOM     15  C   UNL     1       0.256  10.439  20.520  0.00  0.00    +0.000 C 
ATOM     16  C   UNL     1      -1.041  10.049  19.805  0.00  0.00    +0.000 C 
ATOM     17  N   UNL     1      -1.059  10.431  18.373  0.00  0.00    +0.000 NA
ATOM     18  C   UNL     1       0.147   9.924  17.679  0.00  0.00    +0.000 C 
ATOM     19  C   UNL     1       1.449  10.350  18.355  0.00  0.00    +0.000 C 
BRANCH  17  20
ATOM     20  C   UNL     1      -2.249   9.800  17.710  0.00  0.00    +0.000 C 
BRANCH  20  21
ATOM     21  C   UNL     1      -2.676  10.595  16.483  0.00  0.00    +0.000 C 
ATOM     22  O   UNL     1      -2.575  10.202  15.331  0.00  0.00    +0.000 OA
BRANCH  21  23
ATOM     23  O   UNL     1      -3.144  11.825  16.813  0.00  0.00    +0.000 OA
ATOM     24  H   UNL     1      -2.532  12.191  17.495  0.00  0.00    +0.000 HD
ENDBRANCH  21  23
ENDBRANCH  20  21
ENDBRANCH  17  20
ENDBRANCH   8  14
BRANCH   5  25
ATOM     25  C   UNL     1       6.172   5.805  17.420  0.00  0.00    +0.000 C 
ATOM     26  C   UNL     1       7.217   6.926  17.530  0.00  0.00    +0.000 C 
BRANCH  25  27
ATOM     27  C   UNL     1       6.161   5.146  16.029  0.00  0.00    +0.000 A 
ATOM     28  C   UNL     1       5.271   4.084  15.794  0.00  0.00    +0.000 A 
ATOM     29  C   UNL     1       5.181   3.476  14.537  0.00  0.00    +0.000 A 
ATOM     30  C   UNL     1       5.999   3.899  13.493  0.00  0.00    +0.000 A 
ATOM     31  C   UNL     1       6.930   4.923  13.699  0.00  0.00    +0.000 A 
ATOM     32  C   UNL     1       6.981   5.560  14.958  0.00  0.00    +0.000 A 
BRANCH  31  33
ATOM     33  C   UNL     1       7.905   5.304  12.607  0.00  0.00    +0.000 C 
ATOM     34  F   UNL     1       9.201   5.368  13.028  0.00  0.00    +0.000 F 
ATOM     35  F   UNL     1       7.897   4.433  11.560  0.00  0.00    +0.000 F 
ATOM     36  F   UNL     1       7.629   6.528  12.076  0.00  0.00    +0.000 F 
ENDBRANCH  31  33
ENDBRANCH  25  27
ENDBRANCH   5  25
TORSDOF 7
ENDMDL
MODEL 5
REMARK VINA RESULT:      -7.6      1.715      2.120
REMARK  Name = 
REMARK  9 active torsions:
REMARK  status: ('A' for Active; 'I' for Inactive)
REMARK    1  A    between atoms: C_1  and  C_2
REMARK    2  A    between atoms: N_5  and  C_6
REMARK    3  A    between atoms: C_6  and  C_7
REMARK    4  A    between atoms: C_6  and  C_8
REMARK    5  A    between atoms: C_12  and  C_13
REMARK    6  A    between atoms: C_20  and  C_21
REMARK    7  A    between atoms: N_24  and  C_25
REMARK    8  A    between atoms: C_25  and  C_26
REMARK    9  A    between atoms: C_26  and  O_28
REMARK                            x       y       z     vdW  Elec       q    Type
REMARK                         _______ _______ _______ _____ _____    ______ ____
ROOT
ATOM      1  C   UNL     1       3.812   2.125  19.922  0.00  0.00    +0.000 C 
ATOM      2  C   UNL     1       3.569   3.447  19.265  0.00  0.00    +0.000 A 
ATOM      3  N   UNL     1       4.291   3.790  18.179  0.00  0.00    +0.000 NA
ATOM      4  C   UNL     1       4.102   5.025  17.669  0.00  0.00    +0.000 A 
ATOM      5  N   UNL     1       4.847   5.427  16.535  0.00  0.00    +0.000 N 
ATOM      6  C   UNL     1       3.157   5.917  18.229  0.00  0.00    +0.000 A 
ATOM      7  C   UNL     1       2.888   7.246  17.795  0.00  0.00    +0.000 A 
ATOM      8  C   UNL     1       2.017   8.099  18.496  0.00  0.00    +0.000 A 
ATOM      9  C   UNL     1       1.418   7.592  19.642  0.00  0.00    +0.000 A 
ATOM     10  C   UNL     1       1.611   6.268  20.029  0.00  0.00    +0.000 A 
ATOM     11  C   UNL     1       2.479   5.435  19.350  0.00  0.00    +0.000 A 
ATOM     12  N   UNL     1       2.655   4.223  19.854  0.00  0.00    +0.000 NA
ATOM     13  H   UNL     1       4.969   6.430  16.530  0.00  0.00    +0.000 HD
ENDROOT
BRANCH   8  14
ATOM     14  C   UNL     1       1.811   9.533  17.996  0.00  0.00    +0.000 C 
ATOM     15  C   UNL     1       2.224  10.644  18.974  0.00  0.00    +0.000 C 
ATOM     16  C   UNL     1       1.260  10.774  20.158  0.00  0.00    +0.000 C 
ATOM     17  N   UNL     1      -0.150  10.968  19.747  0.00  0.00    +0.000 NA
ATOM     18  C   UNL     1      -0.568   9.920  18.787  0.00  0.00    +0.000 C 
ATOM     19  C   UNL     1       0.359   9.816  17.577  0.00  0.00    +0.000 C 
BRANCH  17  20
ATOM     20  C   UNL     1      -1.036  10.842  20.953  0.00  0.00    +0.000 C 
BRANCH  20  21
ATOM     21  C   UNL     1      -0.518  11.696  22.103  0.00  0.00    +0.000 C 
ATOM     22  O   UNL     1      -0.321  12.900  22.040  0.00  0.00    +0.000 OA
BRANCH  21  23
ATOM     23  O   UNL     1      -0.251  10.953  23.206  0.00  0.00    +0.000 OA
ATOM     24  H   UNL     1       0.723  10.798  23.219  0.00  0.00    +0.000 HD
ENDBRANCH  21  23
ENDBRANCH  20  21
ENDBRANCH  17  20
ENDBRANCH   8  14
BRANCH   5  25
ATOM     25  C   UNL     1       6.156   4.790  16.327  0.00  0.00    +0.000 C 
ATOM     26  C   UNL     1       7.265   5.637  16.972  0.00  0.00    +0.000 C 
BRANCH  25  27
ATOM     27  C   UNL     1       6.348   4.628  14.808  0.00  0.00    +0.000 A 
ATOM     28  C   UNL     1       7.513   5.146  14.217  0.00  0.00    +0.000 A 
ATOM     29  C   UNL     1       7.767   4.987  12.850  0.00  0.00    +0.000 A 
ATOM     30  C   UNL     1       6.847   4.329  12.038  0.00  0.00    +0.000 A 
ATOM     31  C   UNL     1       5.654   3.839  12.579  0.00  0.00    +0.000 A 
ATOM     32  C   UNL     1       5.430   3.964  13.968  0.00  0.00    +0.000 A 
BRANCH  31  33
ATOM     33  C   UNL     1       4.597   3.232  11.684  0.00  0.00    +0.000 C 
ATOM     34  F   UNL     1       4.344   3.965  10.561  0.00  0.00    +0.000 F 
ATOM     35  F   UNL     1       4.924   1.984  11.246  0.00  0.00    +0.000 F 
ATOM     36  F   UNL     1       3.398   3.103  12.316  0.00  0.00    +0.000 F 
ENDBRANCH  31  33
ENDBRANCH  25  27
ENDBRANCH   5  25
TORSDOF 7
ENDMDL
MODEL 6
REMARK VINA RESULT:      -7.5      1.497      1.717
REMARK  Name = 
REMARK  9 active torsions:
REMARK  status: ('A' for Active; 'I' for Inactive)
REMARK    1  A    between atoms: C_1  and  C_2
REMARK    2  A    between atoms: N_5  and  C_6
REMARK    3  A    between atoms: C_6  and  C_7
REMARK    4  A    between atoms: C_6  and  C_8
REMARK    5  A    between atoms: C_12  and  C_13
REMARK    6  A    between atoms: C_20  and  C_21
REMARK    7  A    between atoms: N_24  and  C_25
REMARK    8  A    between atoms: C_25  and  C_26
REMARK    9  A    between atoms: C_26  and  O_28
REMARK                            x       y       z     vdW  Elec       q    Type
REMARK                         _______ _______ _______ _____ _____    ______ ____
ROOT
ATOM      1  C   UNL     1       3.179   2.527  21.202  0.00  0.00    +0.000 C 
ATOM      2  C   UNL     1       3.015   3.723  20.318  0.00  0.00    +0.000 A 
ATOM      3  N   UNL     1       3.666   3.769  19.138  0.00  0.00    +0.000 NA
ATOM      4  C   UNL     1       3.559   4.901  18.411  0.00  0.00    +0.000 A 
ATOM      5  N   UNL     1       4.235   4.993  17.171  0.00  0.00    +0.000 N 
ATOM      6  C   UNL     1       2.766   5.987  18.850  0.00  0.00    +0.000 A 
ATOM      7  C   UNL     1       2.596   7.234  18.184  0.00  0.00    +0.000 A 
ATOM      8  C   UNL     1       1.885   8.300  18.763  0.00  0.00    +0.000 A 
ATOM      9  C   UNL     1       1.344   8.090  20.025  0.00  0.00    +0.000 A 
ATOM     10  C   UNL     1       1.435   6.848  20.649  0.00  0.00    +0.000 A 
ATOM     11  C   UNL     1       2.146   5.806  20.087  0.00  0.00    +0.000 A 
ATOM     12  N   UNL     1       2.243   4.697  20.806  0.00  0.00    +0.000 NA
ATOM     13  H   UNL     1       4.459   5.956  16.961  0.00  0.00    +0.000 HD
ENDROOT
BRANCH   8  14
ATOM     14  C   UNL     1       1.782   9.629  18.008  0.00  0.00    +0.000 C 
ATOM     15  C   UNL     1       2.151  10.883  18.816  0.00  0.00    +0.000 C 
ATOM     16  C   UNL     1       1.090  11.240  19.863  0.00  0.00    +0.000 C 
ATOM     17  N   UNL     1      -0.269  11.394  19.292  0.00  0.00    +0.000 NA
ATOM     18  C   UNL     1      -0.640  10.206  18.490  0.00  0.00    +0.000 C 
ATOM     19  C   UNL     1       0.387   9.870  17.409  0.00  0.00    +0.000 C 
BRANCH  17  20
ATOM     20  C   UNL     1      -1.263  11.501  20.412  0.00  0.00    +0.000 C 
BRANCH  20  21
ATOM     21  C   UNL     1      -2.005  12.831  20.357  0.00  0.00    +0.000 C 
ATOM     22  O   UNL     1      -1.686  13.830  20.982  0.00  0.00    +0.000 OA
BRANCH  21  23
ATOM     23  O   UNL     1      -3.104  12.767  19.564  0.00  0.00    +0.000 OA
ATOM     24  H   UNL     1      -2.791  12.859  18.633  0.00  0.00    +0.000 HD
ENDBRANCH  21  23
ENDBRANCH  20  21
ENDBRANCH  17  20
ENDBRANCH   8  14
BRANCH   5  25
ATOM     25  C   UNL     1       5.448   4.178  17.001  0.00  0.00    +0.000 C 
ATOM     26  C   UNL     1       6.542   4.648  17.972  0.00  0.00    +0.000 C 
BRANCH  25  27
ATOM     27  C   UNL     1       5.877   4.301  15.527  0.00  0.00    +0.000 A 
ATOM     28  C   UNL     1       7.020   5.058  15.219  0.00  0.00    +0.000 A 
ATOM     29  C   UNL     1       7.487   5.167  13.905  0.00  0.00    +0.000 A 
ATOM     30  C   UNL     1       6.805   4.541  12.864  0.00  0.00    +0.000 A 
ATOM     31  C   UNL     1       5.637   3.816  13.123  0.00  0.00    +0.000 A 
ATOM     32  C   UNL     1       5.201   3.675  14.459  0.00  0.00    +0.000 A 
BRANCH  31  33
ATOM     33  C   UNL     1       4.825   3.238  11.986  0.00  0.00    +0.000 C 
ATOM     34  F   UNL     1       3.511   3.044  12.295  0.00  0.00    +0.000 F 
ATOM     35  F   UNL     1       4.832   4.025  10.874  0.00  0.00    +0.000 F 
ATOM     36  F   UNL     1       5.292   2.023  11.586  0.00  0.00    +0.000 F 
ENDBRANCH  31  33
ENDBRANCH  25  27
ENDBRANCH   5  25
TORSDOF 7
ENDMDL
MODEL 7
REMARK VINA RESULT:      -7.5      6.147      9.656
REMARK  Name = 
REMARK  9 active torsions:
REMARK  status: ('A' for Active; 'I' for Inactive)
REMARK    1  A    between atoms: C_1  and  C_2
REMARK    2  A    between atoms: N_5  and  C_6
REMARK    3  A    between atoms: C_6  and  C_7
REMARK    4  A    between atoms: C_6  and  C_8
REMARK    5  A    between atoms: C_12  and  C_13
REMARK    6  A    between atoms: C_20  and  C_21
REMARK    7  A    between atoms: N_24  and  C_25
REMARK    8  A    between atoms: C_25  and  C_26
REMARK    9  A    between atoms: C_26  and  O_28
REMARK                            x       y       z     vdW  Elec       q    Type
REMARK                         _______ _______ _______ _____ _____    ______ ____
ROOT
ATOM      1  C   UNL     1      -0.527  10.010  23.169  0.00  0.00    +0.000 C 
ATOM      2  C   UNL     1       0.248   9.572  21.967  0.00  0.00    +0.000 A 
ATOM      3  N   UNL     1       0.427  10.433  20.945  0.00  0.00    +0.000 NA
ATOM      4  C   UNL     1       1.057   9.971  19.844  0.00  0.00    +0.000 A 
ATOM      5  N   UNL     1       1.257  10.840  18.745  0.00  0.00    +0.000 N 
ATOM      6  C   UNL     1       1.544   8.644  19.775  0.00  0.00    +0.000 A 
ATOM      7  C   UNL     1       2.199   8.040  18.665  0.00  0.00    +0.000 A 
ATOM      8  C   UNL     1       2.536   6.674  18.648  0.00  0.00    +0.000 A 
ATOM      9  C   UNL     1       2.202   5.925  19.769  0.00  0.00    +0.000 A 
ATOM     10  C   UNL     1       1.635   6.523  20.892  0.00  0.00    +0.000 A 
ATOM     11  C   UNL     1       1.291   7.861  20.903  0.00  0.00    +0.000 A 
ATOM     12  N   UNL     1       0.677   8.307  21.989  0.00  0.00    +0.000 NA
ATOM     13  H   UNL     1       1.300  10.315  17.882  0.00  0.00    +0.000 HD
ENDROOT
BRANCH   8  14
ATOM     14  C   UNL     1       3.198   6.082  17.400  0.00  0.00    +0.000 C 
ATOM     15  C   UNL     1       4.034   4.813  17.629  0.00  0.00    +0.000 C 
ATOM     16  C   UNL     1       5.351   5.100  18.358  0.00  0.00    +0.000 C 
ATOM     17  N   UNL     1       6.179   6.130  17.688  0.00  0.00    +0.000 NA
ATOM     18  C   UNL     1       5.389   7.358  17.437  0.00  0.00    +0.000 C 
ATOM     19  C   UNL     1       4.098   7.091  16.667  0.00  0.00    +0.000 C 
BRANCH  17  20
ATOM     20  C   UNL     1       7.315   6.512  18.592  0.00  0.00    +0.000 C 
BRANCH  20  21
ATOM     21  C   UNL     1       8.019   5.275  19.137  0.00  0.00    +0.000 C 
ATOM     22  O   UNL     1       8.376   4.324  18.459  0.00  0.00    +0.000 OA
BRANCH  21  23
ATOM     23  O   UNL     1       8.164   5.327  20.485  0.00  0.00    +0.000 OA
ATOM     24  H   UNL     1       8.718   4.552  20.744  0.00  0.00    +0.000 HD
ENDBRANCH  21  23
ENDBRANCH  20  21
ENDBRANCH  17  20
ENDBRANCH   8  14
BRANCH   5  25
ATOM     25  C   UNL     1       0.304  11.947  18.578  0.00  0.00    +0.000 C 
ATOM     26  C   UNL     1       0.238  12.788  19.862  0.00  0.00    +0.000 C 
BRANCH  25  27
ATOM     27  C   UNL     1      -1.057  11.327  18.211  0.00  0.00    +0.000 A 
ATOM     28  C   UNL     1      -1.077  10.171  17.411  0.00  0.00    +0.000 A 
ATOM     29  C   UNL     1      -2.280   9.535  17.085  0.00  0.00    +0.000 A 
ATOM     30  C   UNL     1      -3.492  10.057  17.528  0.00  0.00    +0.000 A 
ATOM     31  C   UNL     1      -3.518  11.231  18.288  0.00  0.00    +0.000 A 
ATOM     32  C   UNL     1      -2.296  11.839  18.650  0.00  0.00    +0.000 A 
BRANCH  31  33
ATOM     33  C   UNL     1      -4.835  11.869  18.669  0.00  0.00    +0.000 C 
ATOM     34  F   UNL     1      -4.755  12.675  19.766  0.00  0.00    +0.000 F 
ATOM     35  F   UNL     1      -5.358  12.642  17.677  0.00  0.00    +0.000 F 
ATOM     36  F   UNL     1      -5.790  10.943  18.962  0.00  0.00    +0.000 F 
ENDBRANCH  31  33
ENDBRANCH  25  27
ENDBRANCH   5  25
TORSDOF 7
ENDMDL
MODEL 8
REMARK VINA RESULT:      -7.5      5.959      9.686
REMARK  Name = 
REMARK  9 active torsions:
REMARK  status: ('A' for Active; 'I' for Inactive)
REMARK    1  A    between atoms: C_1  and  C_2
REMARK    2  A    between atoms: N_5  and  C_6
REMARK    3  A    between atoms: C_6  and  C_7
REMARK    4  A    between atoms: C_6  and  C_8
REMARK    5  A    between atoms: C_12  and  C_13
REMARK    6  A    between atoms: C_20  and  C_21
REMARK    7  A    between atoms: N_24  and  C_25
REMARK    8  A    between atoms: C_25  and  C_26
REMARK    9  A    between atoms: C_26  and  O_28
REMARK                            x       y       z     vdW  Elec       q    Type
REMARK                         _______ _______ _______ _____ _____    ______ ____
ROOT
ATOM      1  C   UNL     1      -1.210  11.041  23.083  0.00  0.00    +0.000 C 
ATOM      2  C   UNL     1      -0.366  10.435  22.007  0.00  0.00    +0.000 A 
ATOM      3  N   UNL     1      -0.158  11.118  20.864  0.00  0.00    +0.000 NA
ATOM      4  C   UNL     1       0.537  10.500  19.886  0.00  0.00    +0.000 A 
ATOM      5  N   UNL     1       0.769  11.180  18.666  0.00  0.00    +0.000 N 
ATOM      6  C   UNL     1       1.059   9.197  20.062  0.00  0.00    +0.000 A 
ATOM      7  C   UNL     1       1.784   8.438  19.100  0.00  0.00    +0.000 A 
ATOM      8  C   UNL     1       2.155   7.101  19.328  0.00  0.00    +0.000 A 
ATOM      9  C   UNL     1       1.785   6.538  20.543  0.00  0.00    +0.000 A 
ATOM     10  C   UNL     1       1.148   7.296  21.523  0.00  0.00    +0.000 A 
ATOM     11  C   UNL     1       0.771   8.605  21.294  0.00  0.00    +0.000 A 
ATOM     12  N   UNL     1       0.093   9.206  22.260  0.00  0.00    +0.000 NA
ATOM     13  H   UNL     1       0.868  10.520  17.907  0.00  0.00    +0.000 HD
ENDROOT
BRANCH   8  14
ATOM     14  C   UNL     1       2.892   6.331  18.228  0.00  0.00    +0.000 C 
ATOM     15  C   UNL     1       2.080   5.231  17.527  0.00  0.00    +0.000 C 
ATOM     16  C   UNL     1       1.854   4.006  18.420  0.00  0.00    +0.000 C 
ATOM     17  N   UNL     1       3.110   3.434  18.959  0.00  0.00    +0.000 NA
ATOM     18  C   UNL     1       3.922   4.480  19.623  0.00  0.00    +0.000 C 
ATOM     19  C   UNL     1       4.196   5.684  18.724  0.00  0.00    +0.000 C 
BRANCH  17  20
ATOM     20  C   UNL     1       2.775   2.406  20.000  0.00  0.00    +0.000 C 
BRANCH  20  21
ATOM     21  C   UNL     1       1.969   3.023  21.137  0.00  0.00    +0.000 C 
ATOM     22  O   UNL     1       2.426   3.327  22.228  0.00  0.00    +0.000 OA
BRANCH  21  23
ATOM     23  O   UNL     1       0.658   3.155  20.814  0.00  0.00    +0.000 OA
ATOM     24  H   UNL     1       0.361   4.027  21.170  0.00  0.00    +0.000 HD
ENDBRANCH  21  23
ENDBRANCH  20  21
ENDBRANCH  17  20
ENDBRANCH   8  14
BRANCH   5  25
ATOM     25  C   UNL     1      -0.202  12.212  18.273  0.00  0.00    +0.000 C 
ATOM     26  C   UNL     1      -0.293  13.295  19.358  0.00  0.00    +0.000 C 
BRANCH  25  27
ATOM     27  C   UNL     1      -1.548  11.504  18.033  0.00  0.00    +0.000 A 
ATOM     28  C   UNL     1      -1.570  10.353  17.227  0.00  0.00    +0.000 A 
ATOM     29  C   UNL     1      -2.754   9.640  17.012  0.00  0.00    +0.000 A 
ATOM     30  C   UNL     1      -3.950  10.078  17.576  0.00  0.00    +0.000 A 
ATOM     31  C   UNL     1      -3.978  11.245  18.346  0.00  0.00    +0.000 A 
ATOM     32  C   UNL     1      -2.769  11.931  18.595  0.00  0.00    +0.000 A 
BRANCH  31  33
ATOM     33  C   UNL     1      -5.291  11.793  18.860  0.00  0.00    +0.000 C 
ATOM     34  F   UNL     1      -6.326  10.909  18.772  0.00  0.00    +0.000 F 
ATOM     35  F   UNL     1      -5.234  12.170  20.167  0.00  0.00    +0.000 F 
ATOM     36  F   UNL     1      -5.692  12.898  18.171  0.00  0.00    +0.000 F 
ENDBRANCH  31  33
ENDBRANCH  25  27
ENDBRANCH   5  25
TORSDOF 7
ENDMDL
MODEL 9
REMARK VINA RESULT:      -7.4      6.220     10.031
REMARK  Name = 
REMARK  9 active torsions:
REMARK  status: ('A' for Active; 'I' for Inactive)
REMARK    1  A    between atoms: C_1  and  C_2
REMARK    2  A    between atoms: N_5  and  C_6
REMARK    3  A    between atoms: C_6  and  C_7
REMARK    4  A    between atoms: C_6  and  C_8
REMARK    5  A    between atoms: C_12  and  C_13
REMARK    6  A    between atoms: C_20  and  C_21
REMARK    7  A    between atoms: N_24  and  C_25
REMARK    8  A    between atoms: C_25  and  C_26
REMARK    9  A    between atoms: C_26  and  O_28
REMARK                            x       y       z     vdW  Elec       q    Type
REMARK                         _______ _______ _______ _____ _____    ______ ____
ROOT
ATOM      1  C   UNL     1      -1.178  11.163  23.087  0.00  0.00    +0.000 C 
ATOM      2  C   UNL     1      -0.386  10.615  21.943  0.00  0.00    +0.000 A 
ATOM      3  N   UNL     1      -0.293  11.326  20.801  0.00  0.00    +0.000 NA
ATOM      4  C   UNL     1       0.358  10.758  19.764  0.00  0.00    +0.000 A 
ATOM      5  N   UNL     1       0.469  11.467  18.545  0.00  0.00    +0.000 N 
ATOM      6  C   UNL     1       0.954   9.479  19.879  0.00  0.00    +0.000 A 
ATOM      7  C   UNL     1       1.643   8.772  18.854  0.00  0.00    +0.000 A 
ATOM      8  C   UNL     1       2.092   7.451  19.030  0.00  0.00    +0.000 A 
ATOM      9  C   UNL     1       1.838   6.852  20.257  0.00  0.00    +0.000 A 
ATOM     10  C   UNL     1       1.238   7.563  21.294  0.00  0.00    +0.000 A 
ATOM     11  C   UNL     1       0.783   8.856  21.116  0.00  0.00    +0.000 A 
ATOM     12  N   UNL     1       0.149   9.407  22.140  0.00  0.00    +0.000 NA
ATOM     13  H   UNL     1       0.544  10.824  17.768  0.00  0.00    +0.000 HD
ENDROOT
BRANCH   8  14
ATOM     14  C   UNL     1       2.785   6.736  17.866  0.00  0.00    +0.000 C 
ATOM     15  C   UNL     1       2.214   5.357  17.498  0.00  0.00    +0.000 C 
ATOM     16  C   UNL     1       2.554   4.283  18.537  0.00  0.00    +0.000 C 
ATOM     17  N   UNL     1       4.006   4.167  18.808  0.00  0.00    +0.000 NA
ATOM     18  C   UNL     1       4.585   5.488  19.145  0.00  0.00    +0.000 C 
ATOM     19  C   UNL     1       4.296   6.554  18.090  0.00  0.00    +0.000 C 
BRANCH  17  20
ATOM     20  C   UNL     1       4.215   3.275  19.997  0.00  0.00    +0.000 C 
BRANCH  20  21
ATOM     21  C   UNL     1       4.418   1.828  19.566  0.00  0.00    +0.000 C 
ATOM     22  O   UNL     1       3.786   1.272  18.681  0.00  0.00    +0.000 OA
BRANCH  21  23
ATOM     23  O   UNL     1       5.360   1.203  20.316  0.00  0.00    +0.000 OA
ATOM     24  H   UNL     1       5.253   0.234  20.161  0.00  0.00    +0.000 HD
ENDBRANCH  21  23
ENDBRANCH  20  21
ENDBRANCH  17  20
ENDBRANCH   8  14
BRANCH   5  25
ATOM     25  C   UNL     1      -0.576  12.455  18.241  0.00  0.00    +0.000 C 
ATOM     26  C   UNL     1      -0.725  13.445  19.407  0.00  0.00    +0.000 C 
BRANCH  25  27
ATOM     27  C   UNL     1      -1.875  11.676  17.961  0.00  0.00    +0.000 A 
ATOM     28  C   UNL     1      -1.818  10.551  17.121  0.00  0.00    +0.000 A 
ATOM     29  C   UNL     1      -2.954   9.776  16.868  0.00  0.00    +0.000 A 
ATOM     30  C   UNL     1      -4.180  10.124  17.429  0.00  0.00    +0.000 A 
ATOM     31  C   UNL     1      -4.288  11.262  18.234  0.00  0.00    +0.000 A 
ATOM     32  C   UNL     1      -3.126  12.012  18.519  0.00  0.00    +0.000 A 
BRANCH  31  33
ATOM     33  C   UNL     1      -5.637  11.715  18.746  0.00  0.00    +0.000 C 
ATOM     34  F   UNL     1      -5.571  12.776  19.600  0.00  0.00    +0.000 F 
ATOM     35  F   UNL     1      -6.484  12.094  17.748  0.00  0.00    +0.000 F 
ATOM     36  F   UNL     1      -6.285  10.731  19.430  0.00  0.00    +0.000 F 
ENDBRANCH  31  33
ENDBRANCH  25  27
ENDBRANCH   5  25
TORSDOF 7
ENDMDL
