MODEL 1
REMARK VINA RESULT:      -7.0      0.000      0.000
REMARK  Name = 
REMARK  13 active torsions:
REMARK  status: ('A' for Active; 'I' for Inactive)
REMARK    1  A    between atoms: C_1  and  C_2
REMARK    2  A    between atoms: C_2  and  N_3
REMARK    3  A    between atoms: C_2  and  C_8
REMARK    4  A    between atoms: C_4  and  C_6
REMARK    5  A    between atoms: C_6  and  N_7
REMARK    6  A    between atoms: N_10  and  C_11
REMARK    7  A    between atoms: C_11  and  C_12
REMARK    8  A    between atoms: C_11  and  C_13
REMARK    9  A    between atoms: N_15  and  C_16
REMARK   10  A    between atoms: C_16  and  C_17
REMARK   11  A    between atoms: C_16  and  C_18
REMARK   12  A    between atoms: C_24  and  C_25
REMARK   13  A    between atoms: C_31  and  C_32
REMARK                            x       y       z     vdW  Elec       q    Type
REMARK                         _______ _______ _______ _____ _____    ______ ____
ROOT
ATOM      1  C   UNL     1       0.651   9.593  21.606  0.00  0.00    +0.000 C 
ATOM      2  C   UNL     1       0.032   9.588  23.003  0.00  0.00    +0.000 C 
ENDROOT
BRANCH   1   3
ATOM      3  C   UNL     1       1.072   8.197  20.989  0.00  0.00    +0.000 C 
ATOM      4  O   UNL     1       0.655   7.165  21.536  0.00  0.00    +0.000 OA
ATOM      5  N   UNL     1       1.761   8.099  19.789  0.00  0.00    +0.000 N 
ATOM      6  C   UNL     1       2.372   9.153  19.007  0.00  0.00    +0.000 C 
ATOM      7  C   UNL     1       2.141   8.731  17.579  0.00  0.00    +0.000 C 
ATOM      8  C   UNL     1       2.318   7.228  17.632  0.00  0.00    +0.000 C 
ATOM      9  C   UNL     1       1.887   6.808  19.058  0.00  0.00    +0.000 C 
BRANCH   9  10
ATOM     10  C   UNL     1       2.958   5.818  19.604  0.00  0.00    +0.000 C 
ATOM     11  O   UNL     1       4.165   6.072  19.551  0.00  0.00    +0.000 OA
ATOM     12  N   UNL     1       2.521   4.574  20.051  0.00  0.00    +0.000 N 
ATOM     13  C   UNL     1       1.147   4.121  20.198  0.00  0.00    +0.000 C 
ATOM     14  C   UNL     1       1.201   3.134  21.346  0.00  0.00    +0.000 C 
ATOM     15  C   UNL     1       2.567   2.478  21.203  0.00  0.00    +0.000 C 
ATOM     16  C   UNL     1       3.454   3.519  20.493  0.00  0.00    +0.000 C 
BRANCH  16  17
ATOM     17  C   UNL     1       4.225   2.830  19.341  0.00  0.00    +0.000 C 
ATOM     18  N   UNL     1       5.472   3.313  19.065  0.00  0.00    +0.000 N 
ATOM     19  O   UNL     1       3.840   1.810  18.771  0.00  0.00    +0.000 OA
ATOM     20  H   UNL     1       5.965   3.802  19.810  0.00  0.00    +0.000 HD
ATOM     21  H   UNL     1       6.033   2.756  18.435  0.00  0.00    +0.000 HD
ENDBRANCH  16  17
ENDBRANCH   9  10
ENDBRANCH   1   3
BRANCH   1  24
ATOM     22  C   UNL     1      -0.065  11.580  20.243  0.00  0.00    +0.000 C 
ATOM     23  O   UNL     1       0.958  12.205  20.534  0.00  0.00    +0.000 OA
ATOM     24  N   UNL     1      -0.284  10.285  20.686  0.00  0.00    +0.000 N 
ATOM     25  H   UNL     1      -1.042   9.726  20.304  0.00  0.00    +0.000 HD
BRANCH  22  26
ATOM     26  C   UNL     1      -1.197  12.228  19.403  0.00  0.00    +0.000 C 
ATOM     27  C   UNL     1      -0.657  13.369  18.554  0.00  0.00    +0.000 C 
BRANCH  26  30
ATOM     28  C   UNL     1      -3.603  12.510  20.049  0.00  0.00    +0.000 C 
ATOM     29  O   UNL     1      -4.012  12.002  19.006  0.00  0.00    +0.000 OA
ATOM     30  N   UNL     1      -2.260  12.707  20.295  0.00  0.00    +0.000 N 
ATOM     31  H   UNL     1      -1.974  13.205  21.136  0.00  0.00    +0.000 HD
BRANCH  28  33
ATOM     32  C   UNL     1      -3.803  13.349  22.433  0.00  0.00    +0.000 C 
ATOM     33  C   UNL     1      -4.554  13.069  21.135  0.00  0.00    +0.000 C 
BRANCH  33  34
ATOM     34  N   UNL     1      -5.623  12.117  21.400  0.00  0.00    +0.000 N 
ATOM     35  C   UNL     1      -6.885  12.255  20.892  0.00  0.00    +0.000 C 
ATOM     36  O   UNL     1      -7.229  13.204  20.193  0.00  0.00    +0.000 OA
ATOM     37  H   UNL     1      -5.412  11.213  21.814  0.00  0.00    +0.000 HD
BRANCH  35  38
ATOM     38  C   UNL     1      -7.869  11.165  21.334  0.00  0.00    +0.000 C 
BRANCH  38  39
ATOM     39  N   UNL     1      -7.435   9.835  20.860  0.00  0.00    +0.000 NA
ATOM     40  H   UNL     1      -6.507   9.648  21.242  0.00  0.00    +0.000 HD
ATOM     41  H   UNL     1      -7.302   9.890  19.849  0.00  0.00    +0.000 HD
ENDBRANCH  38  39
ENDBRANCH  35  38
ENDBRANCH  33  34
ENDBRANCH  28  33
ENDBRANCH  26  30
ENDBRANCH  22  26
ENDBRANCH   1  24
TORSDOF 10
ENDMDL
MODEL 2
REMARK VINA RESULT:      -6.9      1.383      1.730
REMARK  Name = 
REMARK  13 active torsions:
REMARK  status: ('A' for Active; 'I' for Inactive)
REMARK    1  A    between atoms: C_1  and  C_2
REMARK    2  A    between atoms: C_2  and  N_3
REMARK    3  A    between atoms: C_2  and  C_8
REMARK    4  A    between atoms: C_4  and  C_6
REMARK    5  A    between atoms: C_6  and  N_7
REMARK    6  A    between atoms: N_10  and  C_11
REMARK    7  A    between atoms: C_11  and  C_12
REMARK    8  A    between atoms: C_11  and  C_13
REMARK    9  A    between atoms: N_15  and  C_16
REMARK   10  A    between atoms: C_16  and  C_17
REMARK   11  A    between atoms: C_16  and  C_18
REMARK   12  A    between atoms: C_24  and  C_25
REMARK   13  A    between atoms: C_31  and  C_32
REMARK                            x       y       z     vdW  Elec       q    Type
REMARK                         _______ _______ _______ _____ _____    ______ ____
ROOT
ATOM      1  C   UNL     1       0.721   9.509  21.465  0.00  0.00    +0.000 C 
ATOM      2  C   UNL     1       0.066   9.583  22.844  0.00  0.00    +0.000 C 
ENDROOT
BRANCH   1   3
ATOM      3  C   UNL     1       1.129   8.076  20.927  0.00  0.00    +0.000 C 
ATOM      4  O   UNL     1       0.686   7.080  21.517  0.00  0.00    +0.000 OA
ATOM      5  N   UNL     1       1.839   7.907  19.748  0.00  0.00    +0.000 N 
ATOM      6  C   UNL     1       2.482   8.911  18.926  0.00  0.00    +0.000 C 
ATOM      7  C   UNL     1       2.271   8.420  17.516  0.00  0.00    +0.000 C 
ATOM      8  C   UNL     1       2.422   6.920  17.648  0.00  0.00    +0.000 C 
ATOM      9  C   UNL     1       1.958   6.580  19.085  0.00  0.00    +0.000 C 
BRANCH   9  10
ATOM     10  C   UNL     1       3.002   5.601  19.700  0.00  0.00    +0.000 C 
ATOM     11  O   UNL     1       4.212   5.841  19.672  0.00  0.00    +0.000 OA
ATOM     12  N   UNL     1       2.538   4.380  20.184  0.00  0.00    +0.000 N 
ATOM     13  C   UNL     1       1.155   3.948  20.308  0.00  0.00    +0.000 C 
ATOM     14  C   UNL     1       1.165   3.007  21.496  0.00  0.00    +0.000 C 
ATOM     15  C   UNL     1       2.528   2.332  21.420  0.00  0.00    +0.000 C 
ATOM     16  C   UNL     1       3.446   3.335  20.694  0.00  0.00    +0.000 C 
BRANCH  16  17
ATOM     17  C   UNL     1       4.242   2.592  19.594  0.00  0.00    +0.000 C 
ATOM     18  N   UNL     1       5.168   1.681  20.017  0.00  0.00    +0.000 N 
ATOM     19  O   UNL     1       3.994   2.677  18.392  0.00  0.00    +0.000 OA
ATOM     20  H   UNL     1       5.039   1.272  20.941  0.00  0.00    +0.000 HD
ATOM     21  H   UNL     1       5.558   1.082  19.303  0.00  0.00    +0.000 HD
ENDBRANCH  16  17
ENDBRANCH   9  10
ENDBRANCH   1   3
BRANCH   1  24
ATOM     22  C   UNL     1       0.079  11.438  19.988  0.00  0.00    +0.000 C 
ATOM     23  O   UNL     1       1.107  12.057  20.274  0.00  0.00    +0.000 OA
ATOM     24  N   UNL     1      -0.177  10.171  20.488  0.00  0.00    +0.000 N 
ATOM     25  H   UNL     1      -0.936   9.609  20.116  0.00  0.00    +0.000 HD
BRANCH  22  26
ATOM     26  C   UNL     1      -1.017  12.066  19.088  0.00  0.00    +0.000 C 
ATOM     27  C   UNL     1      -0.477  13.270  18.333  0.00  0.00    +0.000 C 
BRANCH  26  30
ATOM     28  C   UNL     1      -3.480  12.240  19.531  0.00  0.00    +0.000 C 
ATOM     29  O   UNL     1      -3.778  11.803  18.421  0.00  0.00    +0.000 OA
ATOM     30  N   UNL     1      -2.171  12.450  19.913  0.00  0.00    +0.000 N 
ATOM     31  H   UNL     1      -1.976  12.889  20.811  0.00  0.00    +0.000 HD
BRANCH  28  33
ATOM     32  C   UNL     1      -5.113  14.059  20.204  0.00  0.00    +0.000 C 
ATOM     33  C   UNL     1      -4.540  12.691  20.564  0.00  0.00    +0.000 C 
BRANCH  33  34
ATOM     34  N   UNL     1      -3.948  12.758  21.891  0.00  0.00    +0.000 N 
ATOM     35  C   UNL     1      -4.670  12.580  23.039  0.00  0.00    +0.000 C 
ATOM     36  O   UNL     1      -5.881  12.375  23.047  0.00  0.00    +0.000 OA
ATOM     37  H   UNL     1      -2.937  12.746  22.002  0.00  0.00    +0.000 HD
BRANCH  35  38
ATOM     38  C   UNL     1      -3.858  12.739  24.330  0.00  0.00    +0.000 C 
BRANCH  38  39
ATOM     39  N   UNL     1      -4.661  12.361  25.512  0.00  0.00    +0.000 NA
ATOM     40  H   UNL     1      -5.583  12.790  25.420  0.00  0.00    +0.000 HD
ATOM     41  H   UNL     1      -4.240  12.801  26.331  0.00  0.00    +0.000 HD
ENDBRANCH  38  39
ENDBRANCH  35  38
ENDBRANCH  33  34
ENDBRANCH  28  33
ENDBRANCH  26  30
ENDBRANCH  22  26
ENDBRANCH   1  24
TORSDOF 10
ENDMDL
MODEL 3
REMARK VINA RESULT:      -6.9      1.756      2.308
REMARK  Name = 
REMARK  13 active torsions:
REMARK  status: ('A' for Active; 'I' for Inactive)
REMARK    1  A    between atoms: C_1  and  C_2
REMARK    2  A    between atoms: C_2  and  N_3
REMARK    3  A    between atoms: C_2  and  C_8
REMARK    4  A    between atoms: C_4  and  C_6
REMARK    5  A    between atoms: C_6  and  N_7
REMARK    6  A    between atoms: N_10  and  C_11
REMARK    7  A    between atoms: C_11  and  C_12
REMARK    8  A    between atoms: C_11  and  C_13
REMARK    9  A    between atoms: N_15  and  C_16
REMARK   10  A    between atoms: C_16  and  C_17
REMARK   11  A    between atoms: C_16  and  C_18
REMARK   12  A    between atoms: C_24  and  C_25
REMARK   13  A    between atoms: C_31  and  C_32
REMARK                            x       y       z     vdW  Elec       q    Type
REMARK                         _______ _______ _______ _____ _____    ______ ____
ROOT
ATOM      1  C   UNL     1       0.688   9.687  21.955  0.00  0.00    +0.000 C 
ATOM      2  C   UNL     1      -0.013   9.520  23.302  0.00  0.00    +0.000 C 
ENDROOT
BRANCH   1   3
ATOM      3  C   UNL     1       1.068   8.371  21.161  0.00  0.00    +0.000 C 
ATOM      4  O   UNL     1       0.699   7.281  21.622  0.00  0.00    +0.000 OA
ATOM      5  N   UNL     1       1.666   8.411  19.910  0.00  0.00    +0.000 N 
ATOM      6  C   UNL     1       2.211   9.552  19.204  0.00  0.00    +0.000 C 
ATOM      7  C   UNL     1       1.876   9.282  17.759  0.00  0.00    +0.000 C 
ATOM      8  C   UNL     1       2.065   7.785  17.636  0.00  0.00    +0.000 C 
ATOM      9  C   UNL     1       1.744   7.209  19.036  0.00  0.00    +0.000 C 
BRANCH   9  10
ATOM     10  C   UNL     1       2.858   6.180  19.391  0.00  0.00    +0.000 C 
ATOM     11  O   UNL     1       4.056   6.452  19.271  0.00  0.00    +0.000 OA
ATOM     12  N   UNL     1       2.462   4.891  19.739  0.00  0.00    +0.000 N 
ATOM     13  C   UNL     1       1.105   4.410  19.945  0.00  0.00    +0.000 C 
ATOM     14  C   UNL     1       1.252   3.311  20.977  0.00  0.00    +0.000 C 
ATOM     15  C   UNL     1       2.606   2.688  20.661  0.00  0.00    +0.000 C 
ATOM     16  C   UNL     1       3.430   3.807  19.996  0.00  0.00    +0.000 C 
BRANCH  16  17
ATOM     17  C   UNL     1       4.110   3.250  18.722  0.00  0.00    +0.000 C 
ATOM     18  N   UNL     1       5.431   3.552  18.551  0.00  0.00    +0.000 N 
ATOM     19  O   UNL     1       3.575   2.456  17.949  0.00  0.00    +0.000 OA
ATOM     20  H   UNL     1       5.975   3.779  19.382  0.00  0.00    +0.000 HD
ATOM     21  H   UNL     1       5.910   3.049  17.816  0.00  0.00    +0.000 HD
ENDBRANCH  16  17
ENDBRANCH   9  10
ENDBRANCH   1   3
BRANCH   1  24
ATOM     22  C   UNL     1       0.109  11.913  20.942  0.00  0.00    +0.000 C 
ATOM     23  O   UNL     1       1.097  12.451  21.447  0.00  0.00    +0.000 OA
ATOM     24  N   UNL     1      -0.152  10.561  21.100  0.00  0.00    +0.000 N 
ATOM     25  H   UNL     1      -0.867  10.101  20.545  0.00  0.00    +0.000 HD
BRANCH  22  26
ATOM     26  C   UNL     1      -0.934  12.733  20.137  0.00  0.00    +0.000 C 
ATOM     27  C   UNL     1      -1.668  13.712  21.039  0.00  0.00    +0.000 C 
BRANCH  26  30
ATOM     28  C   UNL     1      -1.972  11.663  18.120  0.00  0.00    +0.000 C 
ATOM     29  O   UNL     1      -1.326  12.358  17.336  0.00  0.00    +0.000 OA
ATOM     30  N   UNL     1      -1.884  11.819  19.487  0.00  0.00    +0.000 N 
ATOM     31  H   UNL     1      -2.498  11.277  20.093  0.00  0.00    +0.000 HD
BRANCH  28  33
ATOM     32  C   UNL     1      -2.447   9.726  16.555  0.00  0.00    +0.000 C 
ATOM     33  C   UNL     1      -3.018  10.624  17.648  0.00  0.00    +0.000 C 
BRANCH  33  34
ATOM     34  N   UNL     1      -4.200  11.302  17.137  0.00  0.00    +0.000 N 
ATOM     35  C   UNL     1      -5.109  11.926  17.947  0.00  0.00    +0.000 C 
ATOM     36  O   UNL     1      -5.018  11.945  19.171  0.00  0.00    +0.000 OA
ATOM     37  H   UNL     1      -4.287  11.502  16.144  0.00  0.00    +0.000 HD
BRANCH  35  38
ATOM     38  C   UNL     1      -6.305  12.537  17.205  0.00  0.00    +0.000 C 
BRANCH  38  39
ATOM     39  N   UNL     1      -7.500  12.582  18.073  0.00  0.00    +0.000 NA
ATOM     40  H   UNL     1      -7.498  13.472  18.572  0.00  0.00    +0.000 HD
ATOM     41  H   UNL     1      -7.389  11.868  18.796  0.00  0.00    +0.000 HD
ENDBRANCH  38  39
ENDBRANCH  35  38
ENDBRANCH  33  34
ENDBRANCH  28  33
ENDBRANCH  26  30
ENDBRANCH  22  26
ENDBRANCH   1  24
TORSDOF 10
ENDMDL
MODEL 4
REMARK VINA RESULT:      -6.8      2.846     10.624
REMARK  Name = 
REMARK  13 active torsions:
REMARK  status: ('A' for Active; 'I' for Inactive)
REMARK    1  A    between atoms: C_1  and  C_2
REMARK    2  A    between atoms: C_2  and  N_3
REMARK    3  A    between atoms: C_2  and  C_8
REMARK    4  A    between atoms: C_4  and  C_6
REMARK    5  A    between atoms: C_6  and  N_7
REMARK    6  A    between atoms: N_10  and  C_11
REMARK    7  A    between atoms: C_11  and  C_12
REMARK    8  A    between atoms: C_11  and  C_13
REMARK    9  A    between atoms: N_15  and  C_16
REMARK   10  A    between atoms: C_16  and  C_17
REMARK   11  A    between atoms: C_16  and  C_18
REMARK   12  A    between atoms: C_24  and  C_25
REMARK   13  A    between atoms: C_31  and  C_32
REMARK                            x       y       z     vdW  Elec       q    Type
REMARK                         _______ _______ _______ _____ _____    ______ ____
ROOT
ATOM      1  C   UNL     1       1.797   9.324  19.060  0.00  0.00    +0.000 C 
ATOM      2  C   UNL     1       1.918   9.362  17.537  0.00  0.00    +0.000 C 
ENDROOT
BRANCH   1   3
ATOM      3  C   UNL     1       0.742  10.294  19.733  0.00  0.00    +0.000 C 
ATOM      4  O   UNL     1       0.038  10.999  18.994  0.00  0.00    +0.000 OA
ATOM      5  N   UNL     1       0.486  10.273  21.096  0.00  0.00    +0.000 N 
ATOM      6  C   UNL     1       1.200   9.570  22.141  0.00  0.00    +0.000 C 
ATOM      7  C   UNL     1       0.120   9.144  23.101  0.00  0.00    +0.000 C 
ATOM      8  C   UNL     1      -0.831  10.322  23.093  0.00  0.00    +0.000 C 
ATOM      9  C   UNL     1      -0.702  10.950  21.684  0.00  0.00    +0.000 C 
BRANCH   9  10
ATOM     10  C   UNL     1      -0.587  12.494  21.863  0.00  0.00    +0.000 C 
ATOM     11  O   UNL     1       0.506  13.054  21.985  0.00  0.00    +0.000 OA
ATOM     12  N   UNL     1      -1.768  13.218  21.999  0.00  0.00    +0.000 N 
ATOM     13  C   UNL     1      -3.129  12.724  21.862  0.00  0.00    +0.000 C 
ATOM     14  C   UNL     1      -3.909  13.918  21.351  0.00  0.00    +0.000 C 
ATOM     15  C   UNL     1      -3.232  15.111  22.013  0.00  0.00    +0.000 C 
ATOM     16  C   UNL     1      -1.779  14.668  22.274  0.00  0.00    +0.000 C 
BRANCH  16  17
ATOM     17  C   UNL     1      -1.387  15.042  23.724  0.00  0.00    +0.000 C 
ATOM     18  N   UNL     1      -2.303  14.761  24.698  0.00  0.00    +0.000 N 
ATOM     19  O   UNL     1      -0.271  15.441  24.052  0.00  0.00    +0.000 OA
ATOM     20  H   UNL     1      -2.982  14.025  24.509  0.00  0.00    +0.000 HD
ATOM     21  H   UNL     1      -1.977  14.847  25.651  0.00  0.00    +0.000 HD
ENDBRANCH  16  17
ENDBRANCH   9  10
ENDBRANCH   1   3
BRANCH   1  24
ATOM     22  C   UNL     1       2.423   6.897  19.246  0.00  0.00    +0.000 C 
ATOM     23  O   UNL     1       3.538   7.101  18.759  0.00  0.00    +0.000 OA
ATOM     24  N   UNL     1       1.521   7.925  19.469  0.00  0.00    +0.000 N 
ATOM     25  H   UNL     1       0.683   7.771  20.021  0.00  0.00    +0.000 HD
BRANCH  22  26
ATOM     26  C   UNL     1       1.943   5.463  19.594  0.00  0.00    +0.000 C 
ATOM     27  C   UNL     1       1.855   5.271  21.100  0.00  0.00    +0.000 C 
BRANCH  26  30
ATOM     28  C   UNL     1       2.584   3.791  17.838  0.00  0.00    +0.000 C 
ATOM     29  O   UNL     1       1.499   3.878  17.264  0.00  0.00    +0.000 OA
ATOM     30  N   UNL     1       2.859   4.480  19.001  0.00  0.00    +0.000 N 
ATOM     31  H   UNL     1       3.740   4.314  19.484  0.00  0.00    +0.000 HD
BRANCH  28  33
ATOM     32  C   UNL     1       3.680   1.530  18.176  0.00  0.00    +0.000 C 
ATOM     33  C   UNL     1       3.700   2.826  17.372  0.00  0.00    +0.000 C 
BRANCH  33  34
ATOM     34  N   UNL     1       5.002   3.459  17.523  0.00  0.00    +0.000 N 
ATOM     35  C   UNL     1       5.637   4.108  16.500  0.00  0.00    +0.000 C 
ATOM     36  O   UNL     1       5.177   4.188  15.365  0.00  0.00    +0.000 OA
ATOM     37  H   UNL     1       5.395   3.608  18.449  0.00  0.00    +0.000 HD
BRANCH  35  38
ATOM     38  C   UNL     1       7.021   4.661  16.863  0.00  0.00    +0.000 C 
BRANCH  38  39
ATOM     39  N   UNL     1       7.303   5.910  16.125  0.00  0.00    +0.000 NA
ATOM     40  H   UNL     1       6.414   6.376  15.936  0.00  0.00    +0.000 HD
ATOM     41  H   UNL     1       7.673   5.655  15.207  0.00  0.00    +0.000 HD
ENDBRANCH  38  39
ENDBRANCH  35  38
ENDBRANCH  33  34
ENDBRANCH  28  33
ENDBRANCH  26  30
ENDBRANCH  22  26
ENDBRANCH   1  24
TORSDOF 10
ENDMDL
MODEL 5
REMARK VINA RESULT:      -6.5      2.144      2.888
REMARK  Name = 
REMARK  13 active torsions:
REMARK  status: ('A' for Active; 'I' for Inactive)
REMARK    1  A    between atoms: C_1  and  C_2
REMARK    2  A    between atoms: C_2  and  N_3
REMARK    3  A    between atoms: C_2  and  C_8
REMARK    4  A    between atoms: C_4  and  C_6
REMARK    5  A    between atoms: C_6  and  N_7
REMARK    6  A    between atoms: N_10  and  C_11
REMARK    7  A    between atoms: C_11  and  C_12
REMARK    8  A    between atoms: C_11  and  C_13
REMARK    9  A    between atoms: N_15  and  C_16
REMARK   10  A    between atoms: C_16  and  C_17
REMARK   11  A    between atoms: C_16  and  C_18
REMARK   12  A    between atoms: C_24  and  C_25
REMARK   13  A    between atoms: C_31  and  C_32
REMARK                            x       y       z     vdW  Elec       q    Type
REMARK                         _______ _______ _______ _____ _____    ______ ____
ROOT
ATOM      1  C   UNL     1       0.592   9.575  21.560  0.00  0.00    +0.000 C 
ATOM      2  C   UNL     1       0.188   9.596  23.034  0.00  0.00    +0.000 C 
ENDROOT
BRANCH   1   3
ATOM      3  C   UNL     1       1.035   8.185  20.944  0.00  0.00    +0.000 C 
ATOM      4  O   UNL     1       0.628   7.148  21.486  0.00  0.00    +0.000 OA
ATOM      5  N   UNL     1       1.735   8.098  19.749  0.00  0.00    +0.000 N 
ATOM      6  C   UNL     1       2.338   9.162  18.974  0.00  0.00    +0.000 C 
ATOM      7  C   UNL     1       2.123   8.739  17.543  0.00  0.00    +0.000 C 
ATOM      8  C   UNL     1       2.320   7.239  17.595  0.00  0.00    +0.000 C 
ATOM      9  C   UNL     1       1.884   6.811  19.017  0.00  0.00    +0.000 C 
BRANCH   9  10
ATOM     10  C   UNL     1       2.963   5.834  19.569  0.00  0.00    +0.000 C 
ATOM     11  O   UNL     1       4.168   6.097  19.512  0.00  0.00    +0.000 OA
ATOM     12  N   UNL     1       2.536   4.590  20.027  0.00  0.00    +0.000 N 
ATOM     13  C   UNL     1       1.166   4.128  20.181  0.00  0.00    +0.000 C 
ATOM     14  C   UNL     1       1.230   3.152  21.337  0.00  0.00    +0.000 C 
ATOM     15  C   UNL     1       2.601   2.505  21.198  0.00  0.00    +0.000 C 
ATOM     16  C   UNL     1       3.478   3.547  20.477  0.00  0.00    +0.000 C 
BRANCH  16  17
ATOM     17  C   UNL     1       4.253   2.853  19.330  0.00  0.00    +0.000 C 
ATOM     18  N   UNL     1       5.500   3.337  19.053  0.00  0.00    +0.000 N 
ATOM     19  O   UNL     1       3.870   1.831  18.763  0.00  0.00    +0.000 OA
ATOM     20  H   UNL     1       5.990   3.830  19.798  0.00  0.00    +0.000 HD
ATOM     21  H   UNL     1       6.063   2.778  18.427  0.00  0.00    +0.000 HD
ENDBRANCH  16  17
ENDBRANCH   9  10
ENDBRANCH   1   3
BRANCH   1  24
ATOM     22  C   UNL     1      -0.417  11.350  20.094  0.00  0.00    +0.000 C 
ATOM     23  O   UNL     1       0.637  11.988  20.063  0.00  0.00    +0.000 OA
ATOM     24  N   UNL     1      -0.524  10.141  20.764  0.00  0.00    +0.000 N 
ATOM     25  H   UNL     1      -1.340   9.549  20.641  0.00  0.00    +0.000 HD
BRANCH  22  26
ATOM     26  C   UNL     1      -1.708  11.889  19.423  0.00  0.00    +0.000 C 
ATOM     27  C   UNL     1      -1.496  12.104  17.933  0.00  0.00    +0.000 C 
BRANCH  26  30
ATOM     28  C   UNL     1      -2.572  13.212  21.371  0.00  0.00    +0.000 C 
ATOM     29  O   UNL     1      -2.769  12.206  22.052  0.00  0.00    +0.000 OA
ATOM     30  N   UNL     1      -2.113  13.143  20.072  0.00  0.00    +0.000 N 
ATOM     31  H   UNL     1      -2.042  13.997  19.521  0.00  0.00    +0.000 HD
BRANCH  28  33
ATOM     32  C   UNL     1      -2.439  15.695  20.876  0.00  0.00    +0.000 C 
ATOM     33  C   UNL     1      -2.913  14.637  21.868  0.00  0.00    +0.000 C 
BRANCH  33  34
ATOM     34  N   UNL     1      -2.285  14.880  23.158  0.00  0.00    +0.000 N 
ATOM     35  C   UNL     1      -2.999  15.061  24.311  0.00  0.00    +0.000 C 
ATOM     36  O   UNL     1      -4.226  15.059  24.350  0.00  0.00    +0.000 OA
ATOM     37  H   UNL     1      -1.287  14.730  23.278  0.00  0.00    +0.000 HD
BRANCH  35  38
ATOM     38  C   UNL     1      -2.140  15.350  25.549  0.00  0.00    +0.000 C 
BRANCH  38  39
ATOM     39  N   UNL     1      -0.711  15.453  25.190  0.00  0.00    +0.000 NA
ATOM     40  H   UNL     1      -0.641  15.937  24.294  0.00  0.00    +0.000 HD
ATOM     41  H   UNL     1      -0.362  14.509  25.013  0.00  0.00    +0.000 HD
ENDBRANCH  38  39
ENDBRANCH  35  38
ENDBRANCH  33  34
ENDBRANCH  28  33
ENDBRANCH  26  30
ENDBRANCH  22  26
ENDBRANCH   1  24
TORSDOF 10
ENDMDL
MODEL 6
REMARK VINA RESULT:      -6.4      2.317     10.999
REMARK  Name = 
REMARK  13 active torsions:
REMARK  status: ('A' for Active; 'I' for Inactive)
REMARK    1  A    between atoms: C_1  and  C_2
REMARK    2  A    between atoms: C_2  and  N_3
REMARK    3  A    between atoms: C_2  and  C_8
REMARK    4  A    between atoms: C_4  and  C_6
REMARK    5  A    between atoms: C_6  and  N_7
REMARK    6  A    between atoms: N_10  and  C_11
REMARK    7  A    between atoms: C_11  and  C_12
REMARK    8  A    between atoms: C_11  and  C_13
REMARK    9  A    between atoms: N_15  and  C_16
REMARK   10  A    between atoms: C_16  and  C_17
REMARK   11  A    between atoms: C_16  and  C_18
REMARK   12  A    between atoms: C_24  and  C_25
REMARK   13  A    between atoms: C_31  and  C_32
REMARK                            x       y       z     vdW  Elec       q    Type
REMARK                         _______ _______ _______ _____ _____    ______ ____
ROOT
ATOM      1  C   UNL     1      -1.243  11.037  18.811  0.00  0.00    +0.000 C 
ATOM      2  C   UNL     1      -1.589  10.401  17.465  0.00  0.00    +0.000 C 
ENDROOT
BRANCH   1   3
ATOM      3  C   UNL     1      -2.394  11.823  19.564  0.00  0.00    +0.000 C 
ATOM      4  O   UNL     1      -3.507  11.894  19.023  0.00  0.00    +0.000 OA
ATOM      5  N   UNL     1      -2.236  12.301  20.857  0.00  0.00    +0.000 N 
ATOM      6  C   UNL     1      -1.031  12.363  21.657  0.00  0.00    +0.000 C 
ATOM      7  C   UNL     1      -1.507  12.072  23.058  0.00  0.00    +0.000 C 
ATOM      8  C   UNL     1      -2.844  12.779  23.120  0.00  0.00    +0.000 C 
ATOM      9  C   UNL     1      -3.392  12.760  21.673  0.00  0.00    +0.000 C 
BRANCH   9  10
ATOM     10  C   UNL     1      -3.931  14.186  21.351  0.00  0.00    +0.000 C 
ATOM     11  O   UNL     1      -3.170  15.137  21.152  0.00  0.00    +0.000 OA
ATOM     12  N   UNL     1      -5.307  14.386  21.411  0.00  0.00    +0.000 N 
ATOM     13  C   UNL     1      -6.338  13.381  21.612  0.00  0.00    +0.000 C 
ATOM     14  C   UNL     1      -7.539  13.925  20.865  0.00  0.00    +0.000 C 
ATOM     15  C   UNL     1      -7.425  15.434  21.033  0.00  0.00    +0.000 C 
ATOM     16  C   UNL     1      -5.922  15.715  21.226  0.00  0.00    +0.000 C 
BRANCH  16  17
ATOM     17  C   UNL     1      -5.734  16.674  22.426  0.00  0.00    +0.000 C 
ATOM     18  N   UNL     1      -4.749  17.613  22.312  0.00  0.00    +0.000 N 
ATOM     19  O   UNL     1      -6.495  16.722  23.392  0.00  0.00    +0.000 OA
ATOM     20  H   UNL     1      -4.460  17.882  21.372  0.00  0.00    +0.000 HD
ATOM     21  H   UNL     1      -4.743  18.338  23.016  0.00  0.00    +0.000 HD
ENDBRANCH  16  17
ENDBRANCH   9  10
ENDBRANCH   1   3
BRANCH   1  24
ATOM     22  C   UNL     1       0.638   9.611  19.671  0.00  0.00    +0.000 C 
ATOM     23  O   UNL     1       1.462  10.189  18.959  0.00  0.00    +0.000 OA
ATOM     24  N   UNL     1      -0.697   9.981  19.697  0.00  0.00    +0.000 N 
ATOM     25  H   UNL     1      -1.325   9.613  20.405  0.00  0.00    +0.000 HD
BRANCH  22  26
ATOM     26  C   UNL     1       1.039   8.394  20.546  0.00  0.00    +0.000 C 
ATOM     27  C   UNL     1       1.469   8.843  21.934  0.00  0.00    +0.000 C 
BRANCH  26  30
ATOM     28  C   UNL     1       2.248   6.277  19.959  0.00  0.00    +0.000 C 
ATOM     29  O   UNL     1       1.518   5.585  20.666  0.00  0.00    +0.000 OA
ATOM     30  N   UNL     1       2.120   7.649  19.888  0.00  0.00    +0.000 N 
ATOM     31  H   UNL     1       2.799   8.188  19.353  0.00  0.00    +0.000 HD
BRANCH  28  33
ATOM     32  C   UNL     1       3.754   6.540  17.936  0.00  0.00    +0.000 C 
ATOM     33  C   UNL     1       3.441   5.691  19.165  0.00  0.00    +0.000 C 
BRANCH  33  34
ATOM     34  N   UNL     1       3.138   4.333  18.740  0.00  0.00    +0.000 N 
ATOM     35  C   UNL     1       3.983   3.280  18.957  0.00  0.00    +0.000 C 
ATOM     36  O   UNL     1       5.076   3.395  19.503  0.00  0.00    +0.000 OA
ATOM     37  H   UNL     1       2.198   4.088  18.440  0.00  0.00    +0.000 HD
BRANCH  35  38
ATOM     38  C   UNL     1       3.491   1.944  18.386  0.00  0.00    +0.000 C 
BRANCH  38  39
ATOM     39  N   UNL     1       2.034   1.789  18.581  0.00  0.00    +0.000 NA
ATOM     40  H   UNL     1       1.709   2.555  19.173  0.00  0.00    +0.000 HD
ATOM     41  H   UNL     1       1.880   0.941  19.129  0.00  0.00    +0.000 HD
ENDBRANCH  38  39
ENDBRANCH  35  38
ENDBRANCH  33  34
ENDBRANCH  28  33
ENDBRANCH  26  30
ENDBRANCH  22  26
ENDBRANCH   1  24
TORSDOF 10
ENDMDL
MODEL 7
REMARK VINA RESULT:      -6.4      2.815      4.539
REMARK  Name = 
REMARK  13 active torsions:
REMARK  status: ('A' for Active; 'I' for Inactive)
REMARK    1  A    between atoms: C_1  and  C_2
REMARK    2  A    between atoms: C_2  and  N_3
REMARK    3  A    between atoms: C_2  and  C_8
REMARK    4  A    between atoms: C_4  and  C_6
REMARK    5  A    between atoms: C_6  and  N_7
REMARK    6  A    between atoms: N_10  and  C_11
REMARK    7  A    between atoms: C_11  and  C_12
REMARK    8  A    between atoms: C_11  and  C_13
REMARK    9  A    between atoms: N_15  and  C_16
REMARK   10  A    between atoms: C_16  and  C_17
REMARK   11  A    between atoms: C_16  and  C_18
REMARK   12  A    between atoms: C_24  and  C_25
REMARK   13  A    between atoms: C_31  and  C_32
REMARK                            x       y       z     vdW  Elec       q    Type
REMARK                         _______ _______ _______ _____ _____    ______ ____
ROOT
ATOM      1  C   UNL     1       0.726   9.632  21.741  0.00  0.00    +0.000 C 
ATOM      2  C   UNL     1       0.002   9.569  23.086  0.00  0.00    +0.000 C 
ENDROOT
BRANCH   1   3
ATOM      3  C   UNL     1       1.119   8.258  21.059  0.00  0.00    +0.000 C 
ATOM      4  O   UNL     1       0.729   7.207  21.589  0.00  0.00    +0.000 OA
ATOM      5  N   UNL     1       1.753   8.202  19.826  0.00  0.00    +0.000 N 
ATOM      6  C   UNL     1       2.326   9.284  19.053  0.00  0.00    +0.000 C 
ATOM      7  C   UNL     1       2.030   8.909  17.624  0.00  0.00    +0.000 C 
ATOM      8  C   UNL     1       2.212   7.406  17.618  0.00  0.00    +0.000 C 
ATOM      9  C   UNL     1       1.847   6.938  19.047  0.00  0.00    +0.000 C 
BRANCH   9  10
ATOM     10  C   UNL     1       2.942   5.932  19.509  0.00  0.00    +0.000 C 
ATOM     11  O   UNL     1       4.145   6.188  19.405  0.00  0.00    +0.000 OA
ATOM     12  N   UNL     1       2.526   4.674  19.939  0.00  0.00    +0.000 N 
ATOM     13  C   UNL     1       1.160   4.217  20.139  0.00  0.00    +0.000 C 
ATOM     14  C   UNL     1       1.269   3.196  21.253  0.00  0.00    +0.000 C 
ATOM     15  C   UNL     1       2.627   2.544  21.024  0.00  0.00    +0.000 C 
ATOM     16  C   UNL     1       3.478   3.607  20.303  0.00  0.00    +0.000 C 
BRANCH  16  17
ATOM     17  C   UNL     1       4.192   2.953  19.095  0.00  0.00    +0.000 C 
ATOM     18  N   UNL     1       5.448   3.407  18.806  0.00  0.00    +0.000 N 
ATOM     19  O   UNL     1       3.754   1.979  18.484  0.00  0.00    +0.000 OA
ATOM     20  H   UNL     1       5.978   3.838  19.561  0.00  0.00    +0.000 HD
ATOM     21  H   UNL     1       5.970   2.865  18.133  0.00  0.00    +0.000 HD
ENDBRANCH  16  17
ENDBRANCH   9  10
ENDBRANCH   1   3
BRANCH   1  24
ATOM     22  C   UNL     1       0.099  11.796  20.628  0.00  0.00    +0.000 C 
ATOM     23  O   UNL     1       1.019  12.401  21.184  0.00  0.00    +0.000 OA
ATOM     24  N   UNL     1      -0.098  10.436  20.807  0.00  0.00    +0.000 N 
ATOM     25  H   UNL     1      -0.747   9.923  20.218  0.00  0.00    +0.000 HD
BRANCH  22  26
ATOM     26  C   UNL     1      -0.928  12.536  19.731  0.00  0.00    +0.000 C 
ATOM     27  C   UNL     1      -1.090  11.829  18.395  0.00  0.00    +0.000 C 
BRANCH  26  30
ATOM     28  C   UNL     1      -1.069  15.000  20.177  0.00  0.00    +0.000 C 
ATOM     29  O   UNL     1      -2.058  14.881  20.899  0.00  0.00    +0.000 OA
ATOM     30  N   UNL     1      -0.496  13.925  19.530  0.00  0.00    +0.000 N 
ATOM     31  H   UNL     1       0.271  14.085  18.878  0.00  0.00    +0.000 HD
BRANCH  28  33
ATOM     32  C   UNL     1      -1.460  17.305  19.197  0.00  0.00    +0.000 C 
ATOM     33  C   UNL     1      -0.439  16.374  19.844  0.00  0.00    +0.000 C 
BRANCH  33  34
ATOM     34  N   UNL     1       0.687  16.201  18.939  0.00  0.00    +0.000 N 
ATOM     35  C   UNL     1       1.918  16.749  19.170  0.00  0.00    +0.000 C 
ATOM     36  O   UNL     1       2.170  17.453  20.143  0.00  0.00    +0.000 OA
ATOM     37  H   UNL     1       0.648  15.502  18.201  0.00  0.00    +0.000 HD
BRANCH  35  38
ATOM     38  C   UNL     1       2.949  16.481  18.065  0.00  0.00    +0.000 C 
BRANCH  38  39
ATOM     39  N   UNL     1       2.734  17.379  16.912  0.00  0.00    +0.000 NA
ATOM     40  H   UNL     1       3.531  18.014  16.850  0.00  0.00    +0.000 HD
ATOM     41  H   UNL     1       1.932  17.975  17.123  0.00  0.00    +0.000 HD
ENDBRANCH  38  39
ENDBRANCH  35  38
ENDBRANCH  33  34
ENDBRANCH  28  33
ENDBRANCH  26  30
ENDBRANCH  22  26
ENDBRANCH   1  24
TORSDOF 10
ENDMDL
MODEL 8
REMARK VINA RESULT:      -6.4      2.315     10.577
REMARK  Name = 
REMARK  13 active torsions:
REMARK  status: ('A' for Active; 'I' for Inactive)
REMARK    1  A    between atoms: C_1  and  C_2
REMARK    2  A    between atoms: C_2  and  N_3
REMARK    3  A    between atoms: C_2  and  C_8
REMARK    4  A    between atoms: C_4  and  C_6
REMARK    5  A    between atoms: C_6  and  N_7
REMARK    6  A    between atoms: N_10  and  C_11
REMARK    7  A    between atoms: C_11  and  C_12
REMARK    8  A    between atoms: C_11  and  C_13
REMARK    9  A    between atoms: N_15  and  C_16
REMARK   10  A    between atoms: C_16  and  C_17
REMARK   11  A    between atoms: C_16  and  C_18
REMARK   12  A    between atoms: C_24  and  C_25
REMARK   13  A    between atoms: C_31  and  C_32
REMARK                            x       y       z     vdW  Elec       q    Type
REMARK                         _______ _______ _______ _____ _____    ______ ____
ROOT
ATOM      1  C   UNL     1       1.512   9.292  19.365  0.00  0.00    +0.000 C 
ATOM      2  C   UNL     1       1.462   9.404  17.841  0.00  0.00    +0.000 C 
ENDROOT
BRANCH   1   3
ATOM      3  C   UNL     1       0.471  10.150  20.194  0.00  0.00    +0.000 C 
ATOM      4  O   UNL     1      -0.307   9.554  20.953  0.00  0.00    +0.000 OA
ATOM      5  N   UNL     1       0.501  11.537  20.204  0.00  0.00    +0.000 N 
ATOM      6  C   UNL     1       1.285  12.431  19.379  0.00  0.00    +0.000 C 
ATOM      7  C   UNL     1       1.638  13.567  20.304  0.00  0.00    +0.000 C 
ATOM      8  C   UNL     1       0.384  13.737  21.135  0.00  0.00    +0.000 C 
ATOM      9  C   UNL     1      -0.262  12.332  21.204  0.00  0.00    +0.000 C 
BRANCH   9  10
ATOM     10  C   UNL     1      -1.785  12.498  20.926  0.00  0.00    +0.000 C 
ATOM     11  O   UNL     1      -2.236  12.529  19.777  0.00  0.00    +0.000 OA
ATOM     12  N   UNL     1      -2.621  12.729  22.015  0.00  0.00    +0.000 N 
ATOM     13  C   UNL     1      -2.262  12.705  23.424  0.00  0.00    +0.000 C 
ATOM     14  C   UNL     1      -3.530  12.258  24.123  0.00  0.00    +0.000 C 
ATOM     15  C   UNL     1      -4.647  12.859  23.281  0.00  0.00    +0.000 C 
ATOM     16  C   UNL     1      -4.064  13.001  21.862  0.00  0.00    +0.000 C 
BRANCH  16  17
ATOM     17  C   UNL     1      -4.389  14.414  21.318  0.00  0.00    +0.000 C 
ATOM     18  N   UNL     1      -4.751  14.495  20.003  0.00  0.00    +0.000 N 
ATOM     19  O   UNL     1      -4.469  15.419  22.022  0.00  0.00    +0.000 OA
ATOM     20  H   UNL     1      -5.142  13.660  19.569  0.00  0.00    +0.000 HD
ATOM     21  H   UNL     1      -5.125  15.384  19.701  0.00  0.00    +0.000 HD
ENDBRANCH  16  17
ENDBRANCH   9  10
ENDBRANCH   1   3
BRANCH   1  24
ATOM     22  C   UNL     1       2.262   6.896  19.263  0.00  0.00    +0.000 C 
ATOM     23  O   UNL     1       3.244   7.185  18.575  0.00  0.00    +0.000 OA
ATOM     24  N   UNL     1       1.384   7.861  19.730  0.00  0.00    +0.000 N 
ATOM     25  H   UNL     1       0.684   7.632  20.429  0.00  0.00    +0.000 HD
BRANCH  22  26
ATOM     26  C   UNL     1       1.923   5.422  19.608  0.00  0.00    +0.000 C 
ATOM     27  C   UNL     1       1.810   5.228  21.112  0.00  0.00    +0.000 C 
BRANCH  26  30
ATOM     28  C   UNL     1       2.773   3.790  17.904  0.00  0.00    +0.000 C 
ATOM     29  O   UNL     1       1.693   3.737  17.317  0.00  0.00    +0.000 OA
ATOM     30  N   UNL     1       2.954   4.536  19.050  0.00  0.00    +0.000 N 
ATOM     31  H   UNL     1       3.842   4.485  19.546  0.00  0.00    +0.000 HD
BRANCH  28  33
ATOM     32  C   UNL     1       3.861   1.500  17.930  0.00  0.00    +0.000 C 
ATOM     33  C   UNL     1       3.999   2.949  17.473  0.00  0.00    +0.000 C 
BRANCH  33  34
ATOM     34  N   UNL     1       5.215   3.513  18.040  0.00  0.00    +0.000 N 
ATOM     35  C   UNL     1       5.924   4.515  17.436  0.00  0.00    +0.000 C 
ATOM     36  O   UNL     1       5.609   5.004  16.354  0.00  0.00    +0.000 OA
ATOM     37  H   UNL     1       5.471   3.313  19.004  0.00  0.00    +0.000 HD
BRANCH  35  38
ATOM     38  C   UNL     1       7.199   4.928  18.181  0.00  0.00    +0.000 C 
BRANCH  38  39
ATOM     39  N   UNL     1       6.898   5.309  19.576  0.00  0.00    +0.000 NA
ATOM     40  H   UNL     1       5.903   5.530  19.638  0.00  0.00    +0.000 HD
ATOM     41  H   UNL     1       7.382   6.187  19.773  0.00  0.00    +0.000 HD
ENDBRANCH  38  39
ENDBRANCH  35  38
ENDBRANCH  33  34
ENDBRANCH  28  33
ENDBRANCH  26  30
ENDBRANCH  22  26
ENDBRANCH   1  24
TORSDOF 10
ENDMDL
MODEL 9
REMARK VINA RESULT:      -6.4      3.413     10.695
REMARK  Name = 
REMARK  13 active torsions:
REMARK  status: ('A' for Active; 'I' for Inactive)
REMARK    1  A    between atoms: C_1  and  C_2
REMARK    2  A    between atoms: C_2  and  N_3
REMARK    3  A    between atoms: C_2  and  C_8
REMARK    4  A    between atoms: C_4  and  C_6
REMARK    5  A    between atoms: C_6  and  N_7
REMARK    6  A    between atoms: N_10  and  C_11
REMARK    7  A    between atoms: C_11  and  C_12
REMARK    8  A    between atoms: C_11  and  C_13
REMARK    9  A    between atoms: N_15  and  C_16
REMARK   10  A    between atoms: C_16  and  C_17
REMARK   11  A    between atoms: C_16  and  C_18
REMARK   12  A    between atoms: C_24  and  C_25
REMARK   13  A    between atoms: C_31  and  C_32
REMARK                            x       y       z     vdW  Elec       q    Type
REMARK                         _______ _______ _______ _____ _____    ______ ____
ROOT
ATOM      1  C   UNL     1      -0.241  10.563  18.295  0.00  0.00    +0.000 C 
ATOM      2  C   UNL     1      -1.479  10.236  17.461  0.00  0.00    +0.000 C 
ENDROOT
BRANCH   1   3
ATOM      3  C   UNL     1      -0.440  11.492  19.562  0.00  0.00    +0.000 C 
ATOM      4  O   UNL     1      -1.275  11.152  20.413  0.00  0.00    +0.000 OA
ATOM      5  N   UNL     1       0.383  12.580  19.815  0.00  0.00    +0.000 N 
ATOM      6  C   UNL     1       1.384  13.176  18.956  0.00  0.00    +0.000 C 
ATOM      7  C   UNL     1       2.478  13.595  19.904  0.00  0.00    +0.000 C 
ATOM      8  C   UNL     1       1.714  14.082  21.117  0.00  0.00    +0.000 C 
ATOM      9  C   UNL     1       0.401  13.262  21.137  0.00  0.00    +0.000 C 
BRANCH   9  10
ATOM     10  C   UNL     1      -0.771  14.251  21.410  0.00  0.00    +0.000 C 
ATOM     11  O   UNL     1      -0.851  15.338  20.831  0.00  0.00    +0.000 OA
ATOM     12  N   UNL     1      -1.671  13.925  22.421  0.00  0.00    +0.000 N 
ATOM     13  C   UNL     1      -1.732  12.688  23.183  0.00  0.00    +0.000 C 
ATOM     14  C   UNL     1      -3.200  12.535  23.526  0.00  0.00    +0.000 C 
ATOM     15  C   UNL     1      -3.688  13.966  23.708  0.00  0.00    +0.000 C 
ATOM     16  C   UNL     1      -2.758  14.832  22.836  0.00  0.00    +0.000 C 
BRANCH  16  17
ATOM     17  C   UNL     1      -2.285  16.056  23.657  0.00  0.00    +0.000 C 
ATOM     18  N   UNL     1      -1.739  15.797  24.883  0.00  0.00    +0.000 N 
ATOM     19  O   UNL     1      -2.250  17.205  23.219  0.00  0.00    +0.000 OA
ATOM     20  H   UNL     1      -1.337  14.874  25.034  0.00  0.00    +0.000 HD
ATOM     21  H   UNL     1      -1.280  16.575  25.336  0.00  0.00    +0.000 HD
ENDBRANCH  16  17
ENDBRANCH   9  10
ENDBRANCH   1   3
BRANCH   1  24
ATOM     22  C   UNL     1       1.598   8.855  18.174  0.00  0.00    +0.000 C 
ATOM     23  O   UNL     1       2.246   9.542  17.382  0.00  0.00    +0.000 OA
ATOM     24  N   UNL     1       0.393   9.287  18.705  0.00  0.00    +0.000 N 
ATOM     25  H   UNL     1      -0.042   8.792  19.478  0.00  0.00    +0.000 HD
BRANCH  22  26
ATOM     26  C   UNL     1       2.070   7.436  18.586  0.00  0.00    +0.000 C 
ATOM     27  C   UNL     1       2.161   7.312  20.099  0.00  0.00    +0.000 C 
BRANCH  26  30
ATOM     28  C   UNL     1       3.719   5.912  17.470  0.00  0.00    +0.000 C 
ATOM     29  O   UNL     1       2.997   4.924  17.600  0.00  0.00    +0.000 OA
ATOM     30  N   UNL     1       3.371   7.150  17.967  0.00  0.00    +0.000 N 
ATOM     31  H   UNL     1       4.037   7.919  17.906  0.00  0.00    +0.000 HD
BRANCH  28  33
ATOM     32  C   UNL     1       5.318   4.528  16.071  0.00  0.00    +0.000 C 
ATOM     33  C   UNL     1       5.126   5.838  16.829  0.00  0.00    +0.000 C 
BRANCH  33  34
ATOM     34  N   UNL     1       6.149   5.946  17.858  0.00  0.00    +0.000 N 
ATOM     35  C   UNL     1       7.267   6.723  17.718  0.00  0.00    +0.000 C 
ATOM     36  O   UNL     1       7.512   7.372  16.706  0.00  0.00    +0.000 OA
ATOM     37  H   UNL     1       5.970   5.598  18.797  0.00  0.00    +0.000 HD
BRANCH  35  38
ATOM     38  C   UNL     1       8.238   6.655  18.904  0.00  0.00    +0.000 C 
BRANCH  38  39
ATOM     39  N   UNL     1       7.952   5.483  19.756  0.00  0.00    +0.000 NA
ATOM     40  H   UNL     1       7.791   4.678  19.149  0.00  0.00    +0.000 HD
ATOM     41  H   UNL     1       7.061   5.647  20.227  0.00  0.00    +0.000 HD
ENDBRANCH  38  39
ENDBRANCH  35  38
ENDBRANCH  33  34
ENDBRANCH  28  33
ENDBRANCH  26  30
ENDBRANCH  22  26
ENDBRANCH   1  24
TORSDOF 10
ENDMDL
