MODEL 1
REMARK VINA RESULT:      -8.8      0.000      0.000
REMARK  Name = 
REMARK  8 active torsions:
REMARK  status: ('A' for Active; 'I' for Inactive)
REMARK    1  A    between atoms: C_2  and  C_3
REMARK    2  A    between atoms: C_2  and  C_12
REMARK    3  A    between atoms: C_4  and  C_5
REMARK    4  A    between atoms: C_10  and  O_11
REMARK    5  A    between atoms: C_16  and  N_17
REMARK    6  A    between atoms: N_17  and  S_18
REMARK    7  A    between atoms: S_18  and  C_21
REMARK    8  A    between atoms: C_25  and  O_26
REMARK                            x       y       z     vdW  Elec       q    Type
REMARK                         _______ _______ _______ _____ _____    ______ ____
ROOT
ATOM      1  C   UNL     1       5.307   5.756  18.250  0.00  0.00    +0.000 A 
ATOM      2  C   UNL     1       4.739   6.748  17.435  0.00  0.00    +0.000 A 
ATOM      3  C   UNL     1       3.493   7.291  17.754  0.00  0.00    +0.000 A 
ATOM      4  C   UNL     1       2.817   6.856  18.892  0.00  0.00    +0.000 A 
ATOM      5  C   UNL     1       3.395   5.903  19.731  0.00  0.00    +0.000 A 
ATOM      6  C   UNL     1       4.630   5.339  19.408  0.00  0.00    +0.000 A 
ENDROOT
BRANCH   1   8
ATOM      7  O   UNL     1       7.505   5.111  18.821  0.00  0.00    +0.000 OA
ATOM      8  C   UNL     1       6.643   5.169  17.951  0.00  0.00    +0.000 C 
BRANCH   8   9
ATOM      9  C   UNL     1       6.872   4.635  16.581  0.00  0.00    +0.000 C 
ATOM     10  C   UNL     1       6.193   5.137  15.540  0.00  0.00    +0.000 C 
BRANCH  10  11
ATOM     11  C   UNL     1       6.379   4.587  14.195  0.00  0.00    +0.000 A 
ATOM     12  C   UNL     1       5.421   3.704  13.682  0.00  0.00    +0.000 A 
ATOM     13  C   UNL     1       5.537   3.211  12.380  0.00  0.00    +0.000 A 
ATOM     14  C   UNL     1       6.615   3.597  11.581  0.00  0.00    +0.000 A 
ATOM     15  C   UNL     1       7.588   4.459  12.087  0.00  0.00    +0.000 A 
ATOM     16  C   UNL     1       7.467   4.949  13.388  0.00  0.00    +0.000 A 
BRANCH  16  17
ATOM     17  O   UNL     1       8.420   5.800  13.882  0.00  0.00    +0.000 OA
ATOM     18  H   UNL     1       9.180   5.799  13.277  0.00  0.00    +0.000 HD
ENDBRANCH  16  17
ENDBRANCH  10  11
ENDBRANCH   8   9
ENDBRANCH   1   8
BRANCH   5  19
ATOM     19  N   UNL     1       2.693   5.496  20.889  0.00  0.00    +0.000 N 
ATOM     20  H   UNL     1       2.719   6.048  21.744  0.00  0.00    +0.000 HD
BRANCH  19  21
ATOM     21  S   UNL     1       1.722   4.131  20.886  0.00  0.00    +0.000 S 
ATOM     22  O   UNL     1       2.028   3.413  22.106  0.00  0.00    +0.000 OA
ATOM     23  O   UNL     1       0.365   4.517  20.568  0.00  0.00    +0.000 OA
BRANCH  21  24
ATOM     24  C   UNL     1       2.353   3.177  19.524  0.00  0.00    +0.000 A 
ATOM     25  C   UNL     1       1.899   3.464  18.231  0.00  0.00    +0.000 A 
ATOM     26  C   UNL     1       2.380   2.731  17.147  0.00  0.00    +0.000 A 
ATOM     27  C   UNL     1       3.299   1.701  17.357  0.00  0.00    +0.000 A 
ATOM     28  C   UNL     1       3.722   1.407  18.653  0.00  0.00    +0.000 A 
ATOM     29  C   UNL     1       3.255   2.132  19.746  0.00  0.00    +0.000 A 
BRANCH  28  30
ATOM     30  O   UNL     1       4.614   0.400  18.886  0.00  0.00    +0.000 OA
ATOM     31  H   UNL     1       5.139   0.621  19.672  0.00  0.00    +0.000 HD
ENDBRANCH  28  30
ENDBRANCH  21  24
ENDBRANCH  19  21
ENDBRANCH   5  19
TORSDOF 8
ENDMDL
MODEL 2
REMARK VINA RESULT:      -8.5      3.916      8.236
REMARK  Name = 
REMARK  8 active torsions:
REMARK  status: ('A' for Active; 'I' for Inactive)
REMARK    1  A    between atoms: C_2  and  C_3
REMARK    2  A    between atoms: C_2  and  C_12
REMARK    3  A    between atoms: C_4  and  C_5
REMARK    4  A    between atoms: C_10  and  O_11
REMARK    5  A    between atoms: C_16  and  N_17
REMARK    6  A    between atoms: N_17  and  S_18
REMARK    7  A    between atoms: S_18  and  C_21
REMARK    8  A    between atoms: C_25  and  O_26
REMARK                            x       y       z     vdW  Elec       q    Type
REMARK                         _______ _______ _______ _____ _____    ______ ____
ROOT
ATOM      1  C   UNL     1       2.843   6.035  19.010  0.00  0.00    +0.000 A 
ATOM      2  C   UNL     1       2.497   5.258  20.127  0.00  0.00    +0.000 A 
ATOM      3  C   UNL     1       2.911   3.928  20.212  0.00  0.00    +0.000 A 
ATOM      4  C   UNL     1       3.681   3.372  19.193  0.00  0.00    +0.000 A 
ATOM      5  C   UNL     1       4.065   4.151  18.101  0.00  0.00    +0.000 A 
ATOM      6  C   UNL     1       3.638   5.475  17.997  0.00  0.00    +0.000 A 
ENDROOT
BRANCH   1   8
ATOM      7  O   UNL     1       2.799   8.138  17.938  0.00  0.00    +0.000 OA
ATOM      8  C   UNL     1       2.436   7.464  18.895  0.00  0.00    +0.000 C 
BRANCH   8   9
ATOM      9  C   UNL     1       1.556   8.019  19.958  0.00  0.00    +0.000 C 
ATOM     10  C   UNL     1       1.141   9.292  19.892  0.00  0.00    +0.000 C 
BRANCH  10  11
ATOM     11  C   UNL     1       0.310   9.861  20.957  0.00  0.00    +0.000 A 
ATOM     12  C   UNL     1       0.281   9.231  22.207  0.00  0.00    +0.000 A 
ATOM     13  C   UNL     1      -0.451   9.782  23.261  0.00  0.00    +0.000 A 
ATOM     14  C   UNL     1      -1.162  10.968  23.072  0.00  0.00    +0.000 A 
ATOM     15  C   UNL     1      -1.159  11.595  21.825  0.00  0.00    +0.000 A 
ATOM     16  C   UNL     1      -0.426  11.041  20.775  0.00  0.00    +0.000 A 
BRANCH  16  17
ATOM     17  O   UNL     1      -0.419  11.659  19.553  0.00  0.00    +0.000 OA
ATOM     18  H   UNL     1       0.496  11.700  19.232  0.00  0.00    +0.000 HD
ENDBRANCH  16  17
ENDBRANCH  10  11
ENDBRANCH   8   9
ENDBRANCH   1   8
BRANCH   5  19
ATOM     19  N   UNL     1       4.864   3.566  17.091  0.00  0.00    +0.000 N 
ATOM     20  H   UNL     1       4.865   2.560  16.935  0.00  0.00    +0.000 HD
BRANCH  19  21
ATOM     21  S   UNL     1       5.783   4.505  16.052  0.00  0.00    +0.000 S 
ATOM     22  O   UNL     1       6.699   3.600  15.390  0.00  0.00    +0.000 OA
ATOM     23  O   UNL     1       4.905   5.367  15.291  0.00  0.00    +0.000 OA
BRANCH  21  24
ATOM     24  C   UNL     1       6.735   5.529  17.152  0.00  0.00    +0.000 A 
ATOM     25  C   UNL     1       6.957   6.867  16.804  0.00  0.00    +0.000 A 
ATOM     26  C   UNL     1       7.699   7.691  17.651  0.00  0.00    +0.000 A 
ATOM     27  C   UNL     1       8.233   7.173  18.832  0.00  0.00    +0.000 A 
ATOM     28  C   UNL     1       8.028   5.831  19.152  0.00  0.00    +0.000 A 
ATOM     29  C   UNL     1       7.285   4.997  18.321  0.00  0.00    +0.000 A 
BRANCH  28  30
ATOM     30  O   UNL     1       8.546   5.298  20.298  0.00  0.00    +0.000 OA
ATOM     31  H   UNL     1       7.818   5.098  20.908  0.00  0.00    +0.000 HD
ENDBRANCH  28  30
ENDBRANCH  21  24
ENDBRANCH  19  21
ENDBRANCH   5  19
TORSDOF 8
ENDMDL
MODEL 3
REMARK VINA RESULT:      -8.5      3.213      7.673
REMARK  Name = 
REMARK  8 active torsions:
REMARK  status: ('A' for Active; 'I' for Inactive)
REMARK    1  A    between atoms: C_2  and  C_3
REMARK    2  A    between atoms: C_2  and  C_12
REMARK    3  A    between atoms: C_4  and  C_5
REMARK    4  A    between atoms: C_10  and  O_11
REMARK    5  A    between atoms: C_16  and  N_17
REMARK    6  A    between atoms: N_17  and  S_18
REMARK    7  A    between atoms: S_18  and  C_21
REMARK    8  A    between atoms: C_25  and  O_26
REMARK                            x       y       z     vdW  Elec       q    Type
REMARK                         _______ _______ _______ _____ _____    ______ ____
ROOT
ATOM      1  C   UNL     1       2.208   4.220  19.612  0.00  0.00    +0.000 A 
ATOM      2  C   UNL     1       1.193   3.357  19.172  0.00  0.00    +0.000 A 
ATOM      3  C   UNL     1       1.437   2.457  18.134  0.00  0.00    +0.000 A 
ATOM      4  C   UNL     1       2.697   2.406  17.540  0.00  0.00    +0.000 A 
ATOM      5  C   UNL     1       3.724   3.230  18.002  0.00  0.00    +0.000 A 
ATOM      6  C   UNL     1       3.482   4.148  19.025  0.00  0.00    +0.000 A 
ENDROOT
BRANCH   1   8
ATOM      7  O   UNL     1       2.369   4.909  21.865  0.00  0.00    +0.000 OA
ATOM      8  C   UNL     1       1.988   5.179  20.732  0.00  0.00    +0.000 C 
BRANCH   8   9
ATOM      9  C   UNL     1       1.326   6.473  20.413  0.00  0.00    +0.000 C 
ATOM     10  C   UNL     1       1.821   7.621  20.898  0.00  0.00    +0.000 C 
BRANCH  10  11
ATOM     11  C   UNL     1       1.150   8.895  20.627  0.00  0.00    +0.000 A 
ATOM     12  C   UNL     1       0.877   9.251  19.301  0.00  0.00    +0.000 A 
ATOM     13  C   UNL     1       0.184  10.429  19.012  0.00  0.00    +0.000 A 
ATOM     14  C   UNL     1      -0.239  11.262  20.049  0.00  0.00    +0.000 A 
ATOM     15  C   UNL     1       0.046  10.930  21.374  0.00  0.00    +0.000 A 
ATOM     16  C   UNL     1       0.738   9.752  21.657  0.00  0.00    +0.000 A 
BRANCH  16  17
ATOM     17  O   UNL     1       1.013   9.424  22.958  0.00  0.00    +0.000 OA
ATOM     18  H   UNL     1       0.220   9.591  23.494  0.00  0.00    +0.000 HD
ENDBRANCH  16  17
ENDBRANCH  10  11
ENDBRANCH   8   9
ENDBRANCH   1   8
BRANCH   5  19
ATOM     19  N   UNL     1       4.997   3.142  17.394  0.00  0.00    +0.000 N 
ATOM     20  H   UNL     1       5.610   2.347  17.562  0.00  0.00    +0.000 HD
BRANCH  19  21
ATOM     21  S   UNL     1       5.525   4.301  16.306  0.00  0.00    +0.000 S 
ATOM     22  O   UNL     1       6.388   3.613  15.367  0.00  0.00    +0.000 OA
ATOM     23  O   UNL     1       4.391   5.073  15.848  0.00  0.00    +0.000 OA
BRANCH  21  24
ATOM     24  C   UNL     1       6.548   5.366  17.297  0.00  0.00    +0.000 A 
ATOM     25  C   UNL     1       6.880   6.633  16.804  0.00  0.00    +0.000 A 
ATOM     26  C   UNL     1       7.678   7.488  17.563  0.00  0.00    +0.000 A 
ATOM     27  C   UNL     1       8.159   7.069  18.805  0.00  0.00    +0.000 A 
ATOM     28  C   UNL     1       7.843   5.794  19.273  0.00  0.00    +0.000 A 
ATOM     29  C   UNL     1       7.043   4.930  18.529  0.00  0.00    +0.000 A 
BRANCH  28  30
ATOM     30  O   UNL     1       8.307   5.357  20.481  0.00  0.00    +0.000 OA
ATOM     31  H   UNL     1       7.803   5.792  21.187  0.00  0.00    +0.000 HD
ENDBRANCH  28  30
ENDBRANCH  21  24
ENDBRANCH  19  21
ENDBRANCH   5  19
TORSDOF 8
ENDMDL
MODEL 4
REMARK VINA RESULT:      -8.5      4.985      8.242
REMARK  Name = 
REMARK  8 active torsions:
REMARK  status: ('A' for Active; 'I' for Inactive)
REMARK    1  A    between atoms: C_2  and  C_3
REMARK    2  A    between atoms: C_2  and  C_12
REMARK    3  A    between atoms: C_4  and  C_5
REMARK    4  A    between atoms: C_10  and  O_11
REMARK    5  A    between atoms: C_16  and  N_17
REMARK    6  A    between atoms: N_17  and  S_18
REMARK    7  A    between atoms: S_18  and  C_21
REMARK    8  A    between atoms: C_25  and  O_26
REMARK                            x       y       z     vdW  Elec       q    Type
REMARK                         _______ _______ _______ _____ _____    ______ ____
ROOT
ATOM      1  C   UNL     1       1.201   9.192  19.405  0.00  0.00    +0.000 A 
ATOM      2  C   UNL     1       1.666   9.393  18.096  0.00  0.00    +0.000 A 
ATOM      3  C   UNL     1       2.550   8.481  17.517  0.00  0.00    +0.000 A 
ATOM      4  C   UNL     1       2.962   7.361  18.236  0.00  0.00    +0.000 A 
ATOM      5  C   UNL     1       2.469   7.132  19.521  0.00  0.00    +0.000 A 
ATOM      6  C   UNL     1       1.602   8.050  20.115  0.00  0.00    +0.000 A 
ENDROOT
BRANCH   1   8
ATOM      7  O   UNL     1       0.581  10.802  21.017  0.00  0.00    +0.000 OA
ATOM      8  C   UNL     1       0.241  10.135  20.046  0.00  0.00    +0.000 C 
BRANCH   8   9
ATOM      9  C   UNL     1      -1.116  10.254  19.447  0.00  0.00    +0.000 C 
ATOM     10  C   UNL     1      -1.539  11.432  18.967  0.00  0.00    +0.000 C 
BRANCH  10  11
ATOM     11  C   UNL     1      -2.890  11.569  18.416  0.00  0.00    +0.000 A 
ATOM     12  C   UNL     1      -3.927  11.995  19.254  0.00  0.00    +0.000 A 
ATOM     13  C   UNL     1      -5.213  12.195  18.746  0.00  0.00    +0.000 A 
ATOM     14  C   UNL     1      -5.471  11.969  17.393  0.00  0.00    +0.000 A 
ATOM     15  C   UNL     1      -4.451  11.523  16.551  0.00  0.00    +0.000 A 
ATOM     16  C   UNL     1      -3.169  11.325  17.063  0.00  0.00    +0.000 A 
BRANCH  16  17
ATOM     17  O   UNL     1      -2.168  10.893  16.235  0.00  0.00    +0.000 OA
ATOM     18  H   UNL     1      -1.330  11.288  16.529  0.00  0.00    +0.000 HD
ENDBRANCH  16  17
ENDBRANCH  10  11
ENDBRANCH   8   9
ENDBRANCH   1   8
BRANCH   5  19
ATOM     19  N   UNL     1       2.890   5.976  20.219  0.00  0.00    +0.000 N 
ATOM     20  H   UNL     1       3.219   6.028  21.180  0.00  0.00    +0.000 HD
BRANCH  19  21
ATOM     21  S   UNL     1       2.789   4.454  19.524  0.00  0.00    +0.000 S 
ATOM     22  O   UNL     1       3.038   3.505  20.589  0.00  0.00    +0.000 OA
ATOM     23  O   UNL     1       1.588   4.378  18.723  0.00  0.00    +0.000 OA
BRANCH  21  24
ATOM     24  C   UNL     1       4.185   4.408  18.423  0.00  0.00    +0.000 A 
ATOM     25  C   UNL     1       3.971   4.097  17.075  0.00  0.00    +0.000 A 
ATOM     26  C   UNL     1       5.049   4.057  16.191  0.00  0.00    +0.000 A 
ATOM     27  C   UNL     1       6.340   4.308  16.658  0.00  0.00    +0.000 A 
ATOM     28  C   UNL     1       6.543   4.590  18.009  0.00  0.00    +0.000 A 
ATOM     29  C   UNL     1       5.477   4.639  18.903  0.00  0.00    +0.000 A 
BRANCH  28  30
ATOM     30  O   UNL     1       7.797   4.832  18.493  0.00  0.00    +0.000 OA
ATOM     31  H   UNL     1       8.247   3.984  18.636  0.00  0.00    +0.000 HD
ENDBRANCH  28  30
ENDBRANCH  21  24
ENDBRANCH  19  21
ENDBRANCH   5  19
TORSDOF 8
ENDMDL
MODEL 5
REMARK VINA RESULT:      -8.5      4.116      8.615
REMARK  Name = 
REMARK  8 active torsions:
REMARK  status: ('A' for Active; 'I' for Inactive)
REMARK    1  A    between atoms: C_2  and  C_3
REMARK    2  A    between atoms: C_2  and  C_12
REMARK    3  A    between atoms: C_4  and  C_5
REMARK    4  A    between atoms: C_10  and  O_11
REMARK    5  A    between atoms: C_16  and  N_17
REMARK    6  A    between atoms: N_17  and  S_18
REMARK    7  A    between atoms: S_18  and  C_21
REMARK    8  A    between atoms: C_25  and  O_26
REMARK                            x       y       z     vdW  Elec       q    Type
REMARK                         _______ _______ _______ _____ _____    ______ ____
ROOT
ATOM      1  C   UNL     1       2.723   7.126  18.509  0.00  0.00    +0.000 A 
ATOM      2  C   UNL     1       2.613   6.384  19.695  0.00  0.00    +0.000 A 
ATOM      3  C   UNL     1       3.208   5.125  19.792  0.00  0.00    +0.000 A 
ATOM      4  C   UNL     1       3.924   4.608  18.714  0.00  0.00    +0.000 A 
ATOM      5  C   UNL     1       4.074   5.360  17.548  0.00  0.00    +0.000 A 
ATOM      6  C   UNL     1       3.464   6.609  17.434  0.00  0.00    +0.000 A 
ENDROOT
BRANCH   1   8
ATOM      7  O   UNL     1       2.113   9.056  17.293  0.00  0.00    +0.000 OA
ATOM      8  C   UNL     1       2.117   8.481  18.376  0.00  0.00    +0.000 C 
BRANCH   8   9
ATOM      9  C   UNL     1       1.500   9.084  19.588  0.00  0.00    +0.000 C 
ATOM     10  C   UNL     1       0.247   9.559  19.540  0.00  0.00    +0.000 C 
BRANCH  10  11
ATOM     11  C   UNL     1      -0.354  10.194  20.716  0.00  0.00    +0.000 A 
ATOM     12  C   UNL     1      -0.253   9.559  21.959  0.00  0.00    +0.000 A 
ATOM     13  C   UNL     1      -0.761  10.167  23.110  0.00  0.00    +0.000 A 
ATOM     14  C   UNL     1      -1.376  11.417  23.024  0.00  0.00    +0.000 A 
ATOM     15  C   UNL     1      -1.503  12.052  21.788  0.00  0.00    +0.000 A 
ATOM     16  C   UNL     1      -0.994  11.440  20.642  0.00  0.00    +0.000 A 
BRANCH  16  17
ATOM     17  O   UNL     1      -1.114  12.066  19.430  0.00  0.00    +0.000 OA
ATOM     18  H   UNL     1      -1.965  11.814  19.035  0.00  0.00    +0.000 HD
ENDBRANCH  16  17
ENDBRANCH  10  11
ENDBRANCH   8   9
ENDBRANCH   1   8
BRANCH   5  19
ATOM     19  N   UNL     1       4.823   4.818  16.478  0.00  0.00    +0.000 N 
ATOM     20  H   UNL     1       4.393   4.207  15.787  0.00  0.00    +0.000 HD
BRANCH  19  21
ATOM     21  S   UNL     1       6.433   5.220  16.250  0.00  0.00    +0.000 S 
ATOM     22  O   UNL     1       6.512   6.662  16.364  0.00  0.00    +0.000 OA
ATOM     23  O   UNL     1       7.257   4.361  17.073  0.00  0.00    +0.000 OA
BRANCH  21  24
ATOM     24  C   UNL     1       6.730   4.795  14.548  0.00  0.00    +0.000 A 
ATOM     25  C   UNL     1       7.656   5.549  13.817  0.00  0.00    +0.000 A 
ATOM     26  C   UNL     1       7.907   5.234  12.482  0.00  0.00    +0.000 A 
ATOM     27  C   UNL     1       7.220   4.182  11.874  0.00  0.00    +0.000 A 
ATOM     28  C   UNL     1       6.280   3.457  12.606  0.00  0.00    +0.000 A 
ATOM     29  C   UNL     1       6.021   3.755  13.942  0.00  0.00    +0.000 A 
BRANCH  28  30
ATOM     30  O   UNL     1       5.589   2.428  12.033  0.00  0.00    +0.000 OA
ATOM     31  H   UNL     1       6.222   1.786  11.675  0.00  0.00    +0.000 HD
ENDBRANCH  28  30
ENDBRANCH  21  24
ENDBRANCH  19  21
ENDBRANCH   5  19
TORSDOF 8
ENDMDL
MODEL 6
REMARK VINA RESULT:      -8.4      3.402      8.117
REMARK  Name = 
REMARK  8 active torsions:
REMARK  status: ('A' for Active; 'I' for Inactive)
REMARK    1  A    between atoms: C_2  and  C_3
REMARK    2  A    between atoms: C_2  and  C_12
REMARK    3  A    between atoms: C_4  and  C_5
REMARK    4  A    between atoms: C_10  and  O_11
REMARK    5  A    between atoms: C_16  and  N_17
REMARK    6  A    between atoms: N_17  and  S_18
REMARK    7  A    between atoms: S_18  and  C_21
REMARK    8  A    between atoms: C_25  and  O_26
REMARK                            x       y       z     vdW  Elec       q    Type
REMARK                         _______ _______ _______ _____ _____    ______ ____
ROOT
ATOM      1  C   UNL     1       2.699   4.996  19.011  0.00  0.00    +0.000 A 
ATOM      2  C   UNL     1       2.388   3.667  18.685  0.00  0.00    +0.000 A 
ATOM      3  C   UNL     1       2.954   3.071  17.557  0.00  0.00    +0.000 A 
ATOM      4  C   UNL     1       3.840   3.793  16.760  0.00  0.00    +0.000 A 
ATOM      5  C   UNL     1       4.188   5.100  17.103  0.00  0.00    +0.000 A 
ATOM      6  C   UNL     1       3.610   5.711  18.217  0.00  0.00    +0.000 A 
ENDROOT
BRANCH   1   8
ATOM      7  O   UNL     1       2.173   5.102  21.310  0.00  0.00    +0.000 OA
ATOM      8  C   UNL     1       2.129   5.658  20.219  0.00  0.00    +0.000 C 
BRANCH   8   9
ATOM      9  C   UNL     1       1.543   7.015  20.051  0.00  0.00    +0.000 C 
ATOM     10  C   UNL     1       1.466   7.850  21.098  0.00  0.00    +0.000 C 
BRANCH  10  11
ATOM     11  C   UNL     1       0.850   9.172  20.953  0.00  0.00    +0.000 A 
ATOM     12  C   UNL     1       0.569   9.654  19.669  0.00  0.00    +0.000 A 
ATOM     13  C   UNL     1      -0.073  10.883  19.499  0.00  0.00    +0.000 A 
ATOM     14  C   UNL     1      -0.438  11.640  20.614  0.00  0.00    +0.000 A 
ATOM     15  C   UNL     1      -0.144  11.181  21.898  0.00  0.00    +0.000 A 
ATOM     16  C   UNL     1       0.497   9.953  22.063  0.00  0.00    +0.000 A 
BRANCH  16  17
ATOM     17  O   UNL     1       0.781   9.501  23.324  0.00  0.00    +0.000 OA
ATOM     18  H   UNL     1       0.087   8.876  23.592  0.00  0.00    +0.000 HD
ENDBRANCH  16  17
ENDBRANCH  10  11
ENDBRANCH   8   9
ENDBRANCH   1   8
BRANCH   5  19
ATOM     19  N   UNL     1       5.105   5.800  16.287  0.00  0.00    +0.000 N 
ATOM     20  H   UNL     1       4.830   6.638  15.780  0.00  0.00    +0.000 HD
BRANCH  19  21
ATOM     21  S   UNL     1       6.710   5.332  16.179  0.00  0.00    +0.000 S 
ATOM     22  O   UNL     1       7.498   6.528  16.396  0.00  0.00    +0.000 OA
ATOM     23  O   UNL     1       6.914   4.148  16.985  0.00  0.00    +0.000 OA
BRANCH  21  24
ATOM     24  C   UNL     1       6.893   4.868  14.471  0.00  0.00    +0.000 A 
ATOM     25  C   UNL     1       7.742   5.624  13.654  0.00  0.00    +0.000 A 
ATOM     26  C   UNL     1       7.904   5.280  12.313  0.00  0.00    +0.000 A 
ATOM     27  C   UNL     1       7.203   4.194  11.785  0.00  0.00    +0.000 A 
ATOM     28  C   UNL     1       6.339   3.466  12.602  0.00  0.00    +0.000 A 
ATOM     29  C   UNL     1       6.170   3.794  13.945  0.00  0.00    +0.000 A 
BRANCH  28  30
ATOM     30  O   UNL     1       5.636   2.405  12.108  0.00  0.00    +0.000 OA
ATOM     31  H   UNL     1       5.992   2.170  11.237  0.00  0.00    +0.000 HD
ENDBRANCH  28  30
ENDBRANCH  21  24
ENDBRANCH  19  21
ENDBRANCH   5  19
TORSDOF 8
ENDMDL
MODEL 7
REMARK VINA RESULT:      -8.3      4.747      7.923
REMARK  Name = 
REMARK  8 active torsions:
REMARK  status: ('A' for Active; 'I' for Inactive)
REMARK    1  A    between atoms: C_2  and  C_3
REMARK    2  A    between atoms: C_2  and  C_12
REMARK    3  A    between atoms: C_4  and  C_5
REMARK    4  A    between atoms: C_10  and  O_11
REMARK    5  A    between atoms: C_16  and  N_17
REMARK    6  A    between atoms: N_17  and  S_18
REMARK    7  A    between atoms: S_18  and  C_21
REMARK    8  A    between atoms: C_25  and  O_26
REMARK                            x       y       z     vdW  Elec       q    Type
REMARK                         _______ _______ _______ _____ _____    ______ ____
ROOT
ATOM      1  C   UNL     1       1.433   8.935  19.415  0.00  0.00    +0.000 A 
ATOM      2  C   UNL     1       1.959   8.904  18.113  0.00  0.00    +0.000 A 
ATOM      3  C   UNL     1       2.766   7.840  17.708  0.00  0.00    +0.000 A 
ATOM      4  C   UNL     1       3.041   6.799  18.592  0.00  0.00    +0.000 A 
ATOM      5  C   UNL     1       2.486   6.802  19.873  0.00  0.00    +0.000 A 
ATOM      6  C   UNL     1       1.696   7.872  20.294  0.00  0.00    +0.000 A 
ENDROOT
BRANCH   1   8
ATOM      7  O   UNL     1       0.948  10.845  20.714  0.00  0.00    +0.000 OA
ATOM      8  C   UNL     1       0.552  10.044  19.875  0.00  0.00    +0.000 C 
BRANCH   8   9
ATOM      9  C   UNL     1      -0.797  10.156  19.258  0.00  0.00    +0.000 C 
ATOM     10  C   UNL     1      -1.212  11.326  18.751  0.00  0.00    +0.000 C 
BRANCH  10  11
ATOM     11  C   UNL     1      -2.555  11.458  18.181  0.00  0.00    +0.000 A 
ATOM     12  C   UNL     1      -2.787  11.012  16.875  0.00  0.00    +0.000 A 
ATOM     13  C   UNL     1      -4.070  11.067  16.325  0.00  0.00    +0.000 A 
ATOM     14  C   UNL     1      -5.132  11.569  17.079  0.00  0.00    +0.000 A 
ATOM     15  C   UNL     1      -4.910  12.037  18.374  0.00  0.00    +0.000 A 
ATOM     16  C   UNL     1      -3.627  11.980  18.919  0.00  0.00    +0.000 A 
BRANCH  16  17
ATOM     17  O   UNL     1      -3.412  12.434  20.193  0.00  0.00    +0.000 OA
ATOM     18  H   UNL     1      -2.625  11.991  20.551  0.00  0.00    +0.000 HD
ENDBRANCH  16  17
ENDBRANCH  10  11
ENDBRANCH   8   9
ENDBRANCH   1   8
BRANCH   5  19
ATOM     19  N   UNL     1       2.767   5.722  20.741  0.00  0.00    +0.000 N 
ATOM     20  H   UNL     1       3.535   5.765  21.407  0.00  0.00    +0.000 HD
BRANCH  19  21
ATOM     21  S   UNL     1       1.800   4.354  20.773  0.00  0.00    +0.000 S 
ATOM     22  O   UNL     1       2.129   3.652  21.996  0.00  0.00    +0.000 OA
ATOM     23  O   UNL     1       0.436   4.732  20.474  0.00  0.00    +0.000 OA
BRANCH  21  24
ATOM     24  C   UNL     1       2.410   3.384  19.413  0.00  0.00    +0.000 A 
ATOM     25  C   UNL     1       2.015   3.722  18.112  0.00  0.00    +0.000 A 
ATOM     26  C   UNL     1       2.481   2.978  17.029  0.00  0.00    +0.000 A 
ATOM     27  C   UNL     1       3.324   1.887  17.246  0.00  0.00    +0.000 A 
ATOM     28  C   UNL     1       3.688   1.545  18.548  0.00  0.00    +0.000 A 
ATOM     29  C   UNL     1       3.235   2.280  19.641  0.00  0.00    +0.000 A 
BRANCH  28  30
ATOM     30  O   UNL     1       4.506   0.477  18.789  0.00  0.00    +0.000 OA
ATOM     31  H   UNL     1       5.344   0.612  18.319  0.00  0.00    +0.000 HD
ENDBRANCH  28  30
ENDBRANCH  21  24
ENDBRANCH  19  21
ENDBRANCH   5  19
TORSDOF 8
ENDMDL
MODEL 8
REMARK VINA RESULT:      -8.3      3.222      7.679
REMARK  Name = 
REMARK  8 active torsions:
REMARK  status: ('A' for Active; 'I' for Inactive)
REMARK    1  A    between atoms: C_2  and  C_3
REMARK    2  A    between atoms: C_2  and  C_12
REMARK    3  A    between atoms: C_4  and  C_5
REMARK    4  A    between atoms: C_10  and  O_11
REMARK    5  A    between atoms: C_16  and  N_17
REMARK    6  A    between atoms: N_17  and  S_18
REMARK    7  A    between atoms: S_18  and  C_21
REMARK    8  A    between atoms: C_25  and  O_26
REMARK                            x       y       z     vdW  Elec       q    Type
REMARK                         _______ _______ _______ _____ _____    ______ ____
ROOT
ATOM      1  C   UNL     1       2.417   4.290  19.353  0.00  0.00    +0.000 A 
ATOM      2  C   UNL     1       2.066   2.967  19.042  0.00  0.00    +0.000 A 
ATOM      3  C   UNL     1       2.431   2.415  17.813  0.00  0.00    +0.000 A 
ATOM      4  C   UNL     1       3.158   3.174  16.898  0.00  0.00    +0.000 A 
ATOM      5  C   UNL     1       3.548   4.474  17.219  0.00  0.00    +0.000 A 
ATOM      6  C   UNL     1       3.169   5.042  18.436  0.00  0.00    +0.000 A 
ENDROOT
BRANCH   1   8
ATOM      7  O   UNL     1       2.449   4.403  21.711  0.00  0.00    +0.000 OA
ATOM      8  C   UNL     1       2.061   4.906  20.663  0.00  0.00    +0.000 C 
BRANCH   8   9
ATOM      9  C   UNL     1       1.253   6.155  20.642  0.00  0.00    +0.000 C 
ATOM     10  C   UNL     1       1.842   7.341  20.852  0.00  0.00    +0.000 C 
BRANCH  10  11
ATOM     11  C   UNL     1       1.049   8.573  20.877  0.00  0.00    +0.000 A 
ATOM     12  C   UNL     1       0.382   8.929  22.056  0.00  0.00    +0.000 A 
ATOM     13  C   UNL     1      -0.332  10.126  22.133  0.00  0.00    +0.000 A 
ATOM     14  C   UNL     1      -0.386  10.978  21.028  0.00  0.00    +0.000 A 
ATOM     15  C   UNL     1       0.255  10.625  19.840  0.00  0.00    +0.000 A 
ATOM     16  C   UNL     1       0.967   9.428  19.769  0.00  0.00    +0.000 A 
BRANCH  16  17
ATOM     17  O   UNL     1       1.600   9.085  18.604  0.00  0.00    +0.000 OA
ATOM     18  H   UNL     1       2.238   9.782  18.381  0.00  0.00    +0.000 HD
ENDBRANCH  16  17
ENDBRANCH  10  11
ENDBRANCH   8   9
ENDBRANCH   1   8
BRANCH   5  19
ATOM     19  N   UNL     1       4.303   5.213  16.279  0.00  0.00    +0.000 N 
ATOM     20  H   UNL     1       3.916   6.033  15.817  0.00  0.00    +0.000 HD
BRANCH  19  21
ATOM     21  S   UNL     1       5.897   4.823  15.940  0.00  0.00    +0.000 S 
ATOM     22  O   UNL     1       6.041   3.413  16.236  0.00  0.00    +0.000 OA
ATOM     23  O   UNL     1       6.248   5.352  14.641  0.00  0.00    +0.000 OA
BRANCH  21  24
ATOM     24  C   UNL     1       6.814   5.729  17.165  0.00  0.00    +0.000 A 
ATOM     25  C   UNL     1       7.170   7.057  16.896  0.00  0.00    +0.000 A 
ATOM     26  C   UNL     1       7.888   7.789  17.842  0.00  0.00    +0.000 A 
ATOM     27  C   UNL     1       8.265   7.189  19.045  0.00  0.00    +0.000 A 
ATOM     28  C   UNL     1       7.928   5.858  19.289  0.00  0.00    +0.000 A 
ATOM     29  C   UNL     1       7.207   5.115  18.358  0.00  0.00    +0.000 A 
BRANCH  28  30
ATOM     30  O   UNL     1       8.291   5.246  20.454  0.00  0.00    +0.000 OA
ATOM     31  H   UNL     1       8.977   5.779  20.888  0.00  0.00    +0.000 HD
ENDBRANCH  28  30
ENDBRANCH  21  24
ENDBRANCH  19  21
ENDBRANCH   5  19
TORSDOF 8
ENDMDL
MODEL 9
REMARK VINA RESULT:      -8.3      3.209      7.320
REMARK  Name = 
REMARK  8 active torsions:
REMARK  status: ('A' for Active; 'I' for Inactive)
REMARK    1  A    between atoms: C_2  and  C_3
REMARK    2  A    between atoms: C_2  and  C_12
REMARK    3  A    between atoms: C_4  and  C_5
REMARK    4  A    between atoms: C_10  and  O_11
REMARK    5  A    between atoms: C_16  and  N_17
REMARK    6  A    between atoms: N_17  and  S_18
REMARK    7  A    between atoms: S_18  and  C_21
REMARK    8  A    between atoms: C_25  and  O_26
REMARK                            x       y       z     vdW  Elec       q    Type
REMARK                         _______ _______ _______ _____ _____    ______ ____
ROOT
ATOM      1  C   UNL     1       2.402   3.672  19.722  0.00  0.00    +0.000 A 
ATOM      2  C   UNL     1       1.461   2.729  19.280  0.00  0.00    +0.000 A 
ATOM      3  C   UNL     1       1.743   1.919  18.179  0.00  0.00    +0.000 A 
ATOM      4  C   UNL     1       2.968   2.037  17.525  0.00  0.00    +0.000 A 
ATOM      5  C   UNL     1       3.925   2.941  17.986  0.00  0.00    +0.000 A 
ATOM      6  C   UNL     1       3.643   3.770  19.072  0.00  0.00    +0.000 A 
ENDROOT
BRANCH   1   8
ATOM      7  O   UNL     1       2.378   4.132  22.037  0.00  0.00    +0.000 OA
ATOM      8  C   UNL     1       2.142   4.539  20.906  0.00  0.00    +0.000 C 
BRANCH   8   9
ATOM      9  C   UNL     1       1.624   5.912  20.656  0.00  0.00    +0.000 C 
ATOM     10  C   UNL     1       2.312   6.761  19.880  0.00  0.00    +0.000 C 
BRANCH  10  11
ATOM     11  C   UNL     1       1.833   8.129  19.664  0.00  0.00    +0.000 A 
ATOM     12  C   UNL     1       1.785   8.636  18.361  0.00  0.00    +0.000 A 
ATOM     13  C   UNL     1       1.276   9.913  18.115  0.00  0.00    +0.000 A 
ATOM     14  C   UNL     1       0.810  10.694  19.174  0.00  0.00    +0.000 A 
ATOM     15  C   UNL     1       0.872  10.209  20.481  0.00  0.00    +0.000 A 
ATOM     16  C   UNL     1       1.382   8.933  20.721  0.00  0.00    +0.000 A 
BRANCH  16  17
ATOM     17  O   UNL     1       1.437   8.456  22.004  0.00  0.00    +0.000 OA
ATOM     18  H   UNL     1       0.531   8.308  22.318  0.00  0.00    +0.000 HD
ENDBRANCH  16  17
ENDBRANCH  10  11
ENDBRANCH   8   9
ENDBRANCH   1   8
BRANCH   5  19
ATOM     19  N   UNL     1       5.166   3.024  17.314  0.00  0.00    +0.000 N 
ATOM     20  H   UNL     1       5.869   2.295  17.409  0.00  0.00    +0.000 HD
BRANCH  19  21
ATOM     21  S   UNL     1       5.507   4.286  16.265  0.00  0.00    +0.000 S 
ATOM     22  O   UNL     1       6.314   3.724  15.202  0.00  0.00    +0.000 OA
ATOM     23  O   UNL     1       4.284   5.002  15.973  0.00  0.00    +0.000 OA
BRANCH  21  24
ATOM     24  C   UNL     1       6.551   5.356  17.229  0.00  0.00    +0.000 A 
ATOM     25  C   UNL     1       7.149   4.848  18.388  0.00  0.00    +0.000 A 
ATOM     26  C   UNL     1       7.974   5.667  19.160  0.00  0.00    +0.000 A 
ATOM     27  C   UNL     1       8.184   6.994  18.783  0.00  0.00    +0.000 A 
ATOM     28  C   UNL     1       7.560   7.495  17.641  0.00  0.00    +0.000 A 
ATOM     29  C   UNL     1       6.737   6.690  16.857  0.00  0.00    +0.000 A 
BRANCH  28  30
ATOM     30  O   UNL     1       7.742   8.792  17.255  0.00  0.00    +0.000 OA
ATOM     31  H   UNL     1       7.847   8.821  16.291  0.00  0.00    +0.000 HD
ENDBRANCH  28  30
ENDBRANCH  21  24
ENDBRANCH  19  21
ENDBRANCH   5  19
TORSDOF 8
ENDMDL
