MODEL 1
REMARK VINA RESULT:      -6.7      0.000      0.000
REMARK  Name = 
REMARK  7 active torsions:
REMARK  status: ('A' for Active; 'I' for Inactive)
REMARK    1  A    between atoms: C_1  and  C_2
REMARK    2  A    between atoms: C_2  and  S_3
REMARK    3  A    between atoms: S_3  and  N_6
REMARK    4  A    between atoms: N_6  and  N_7
REMARK    5  A    between atoms: N_7  and  C_8
REMARK    6  A    between atoms: N_7  and  S_9
REMARK    7  A    between atoms: S_9  and  C_12
REMARK                            x       y       z     vdW  Elec       q    Type
REMARK                         _______ _______ _______ _____ _____    ______ ____
ROOT
ATOM      1  S   UNL     1       3.387   3.837  18.601  0.00  0.00    +0.000 S 
ATOM      2  O   UNL     1       2.478   3.287  17.612  0.00  0.00    +0.000 OA
ATOM      3  O   UNL     1       3.724   3.111  19.808  0.00  0.00    +0.000 OA
ENDROOT
BRANCH   1   4
ATOM      4  C   UNL     1       2.763   5.437  19.084  0.00  0.00    +0.000 A 
ATOM      5  C   UNL     1       2.204   5.606  20.353  0.00  0.00    +0.000 A 
ATOM      6  C   UNL     1       1.662   6.843  20.706  0.00  0.00    +0.000 A 
ATOM      7  C   UNL     1       1.695   7.902  19.797  0.00  0.00    +0.000 A 
ATOM      8  I   UNL     1       0.836   9.726  20.307  0.00  0.00    +0.000 I 
ATOM      9  C   UNL     1       2.291   7.745  18.545  0.00  0.00    +0.000 A 
ATOM     10  C   UNL     1       2.839   6.511  18.188  0.00  0.00    +0.000 A 
ENDBRANCH   1   4
BRANCH   1  11
ATOM     11  N   UNL     1       4.847   4.251  17.768  0.00  0.00    +0.000 NA
ATOM     12  C   UNL     1       4.817   4.073  16.299  0.00  0.00    +0.000 C 
BRANCH  11  13
ATOM     13  N   UNL     1       6.025   3.874  18.498  0.00  0.00    +0.000 NA
ATOM     14  H   UNL     1       5.804   3.888  19.510  0.00  0.00    +0.000 HD
BRANCH  13  15
ATOM     15  S   UNL     1       7.369   4.918  18.230  0.00  0.00    +0.000 S 
ATOM     16  O   UNL     1       8.061   4.437  17.052  0.00  0.00    +0.000 OA
ATOM     17  O   UNL     1       8.047   5.120  19.494  0.00  0.00    +0.000 OA
BRANCH  15  19
ATOM     18  C   UNL     1       7.542   7.523  17.453  0.00  0.00    +0.000 C 
ATOM     19  C   UNL     1       6.536   6.444  17.814  0.00  0.00    +0.000 C 
ENDBRANCH  15  19
ENDBRANCH  13  15
ENDBRANCH  11  13
ENDBRANCH   1  11
TORSDOF 5
ENDMDL
MODEL 2
REMARK VINA RESULT:      -6.5      1.441      2.345
REMARK  Name = 
REMARK  7 active torsions:
REMARK  status: ('A' for Active; 'I' for Inactive)
REMARK    1  A    between atoms: C_1  and  C_2
REMARK    2  A    between atoms: C_2  and  S_3
REMARK    3  A    between atoms: S_3  and  N_6
REMARK    4  A    between atoms: N_6  and  N_7
REMARK    5  A    between atoms: N_7  and  C_8
REMARK    6  A    between atoms: N_7  and  S_9
REMARK    7  A    between atoms: S_9  and  C_12
REMARK                            x       y       z     vdW  Elec       q    Type
REMARK                         _______ _______ _______ _____ _____    ______ ____
ROOT
ATOM      1  S   UNL     1       3.918   3.813  18.448  0.00  0.00    +0.000 S 
ATOM      2  O   UNL     1       3.333   3.522  17.152  0.00  0.00    +0.000 OA
ATOM      3  O   UNL     1       4.056   2.793  19.465  0.00  0.00    +0.000 OA
ENDROOT
BRANCH   1   4
ATOM      4  C   UNL     1       3.012   5.175  19.161  0.00  0.00    +0.000 A 
ATOM      5  C   UNL     1       2.975   6.403  18.496  0.00  0.00    +0.000 A 
ATOM      6  C   UNL     1       2.315   7.484  19.085  0.00  0.00    +0.000 A 
ATOM      7  C   UNL     1       1.688   7.326  20.322  0.00  0.00    +0.000 A 
ATOM      8  I   UNL     1       0.757   8.954  21.220  0.00  0.00    +0.000 I 
ATOM      9  C   UNL     1       1.689   6.088  20.966  0.00  0.00    +0.000 A 
ATOM     10  C   UNL     1       2.344   5.002  20.380  0.00  0.00    +0.000 A 
ENDBRANCH   1   4
BRANCH   1  11
ATOM     11  N   UNL     1       5.468   4.524  18.151  0.00  0.00    +0.000 NA
ATOM     12  C   UNL     1       6.051   5.284  19.280  0.00  0.00    +0.000 C 
BRANCH  11  13
ATOM     13  N   UNL     1       5.590   5.043  16.817  0.00  0.00    +0.000 NA
ATOM     14  H   UNL     1       5.108   4.397  16.167  0.00  0.00    +0.000 HD
BRANCH  13  15
ATOM     15  S   UNL     1       7.221   5.215  16.288  0.00  0.00    +0.000 S 
ATOM     16  O   UNL     1       7.991   4.157  16.910  0.00  0.00    +0.000 OA
ATOM     17  O   UNL     1       7.592   6.610  16.404  0.00  0.00    +0.000 OA
BRANCH  15  19
ATOM     18  C   UNL     1       5.686   4.251  14.254  0.00  0.00    +0.000 C 
ATOM     19  C   UNL     1       7.053   4.845  14.547  0.00  0.00    +0.000 C 
ENDBRANCH  15  19
ENDBRANCH  13  15
ENDBRANCH  11  13
ENDBRANCH   1  11
TORSDOF 5
ENDMDL
MODEL 3
REMARK VINA RESULT:      -6.4      2.116      3.594
REMARK  Name = 
REMARK  7 active torsions:
REMARK  status: ('A' for Active; 'I' for Inactive)
REMARK    1  A    between atoms: C_1  and  C_2
REMARK    2  A    between atoms: C_2  and  S_3
REMARK    3  A    between atoms: S_3  and  N_6
REMARK    4  A    between atoms: N_6  and  N_7
REMARK    5  A    between atoms: N_7  and  C_8
REMARK    6  A    between atoms: N_7  and  S_9
REMARK    7  A    between atoms: S_9  and  C_12
REMARK                            x       y       z     vdW  Elec       q    Type
REMARK                         _______ _______ _______ _____ _____    ______ ____
ROOT
ATOM      1  S   UNL     1       4.144   5.404  17.508  0.00  0.00    +0.000 S 
ATOM      2  O   UNL     1       5.077   6.071  16.617  0.00  0.00    +0.000 OA
ATOM      3  O   UNL     1       3.239   4.381  17.030  0.00  0.00    +0.000 OA
ENDROOT
BRANCH   1   4
ATOM      4  C   UNL     1       3.169   6.661  18.315  0.00  0.00    +0.000 A 
ATOM      5  C   UNL     1       2.698   6.444  19.612  0.00  0.00    +0.000 A 
ATOM      6  C   UNL     1       1.885   7.403  20.219  0.00  0.00    +0.000 A 
ATOM      7  C   UNL     1       1.561   8.575  19.532  0.00  0.00    +0.000 A 
ATOM      8  I   UNL     1       0.304   9.973  20.418  0.00  0.00    +0.000 I 
ATOM      9  C   UNL     1       2.065   8.811  18.252  0.00  0.00    +0.000 A 
ATOM     10  C   UNL     1       2.883   7.857  17.642  0.00  0.00    +0.000 A 
ENDBRANCH   1   4
BRANCH   1  11
ATOM     11  N   UNL     1       5.073   4.765  18.821  0.00  0.00    +0.000 NA
ATOM     12  C   UNL     1       6.224   5.590  19.252  0.00  0.00    +0.000 C 
BRANCH  11  13
ATOM     13  N   UNL     1       5.218   3.338  18.751  0.00  0.00    +0.000 NA
ATOM     14  H   UNL     1       4.934   3.024  17.806  0.00  0.00    +0.000 HD
BRANCH  13  15
ATOM     15  S   UNL     1       4.263   2.487  19.906  0.00  0.00    +0.000 S 
ATOM     16  O   UNL     1       3.424   3.461  20.573  0.00  0.00    +0.000 OA
ATOM     17  O   UNL     1       5.130   1.586  20.636  0.00  0.00    +0.000 OA
BRANCH  15  19
ATOM     18  C   UNL     1       1.776   1.897  18.964  0.00  0.00    +0.000 C 
ATOM     19  C   UNL     1       3.235   1.496  18.831  0.00  0.00    +0.000 C 
ENDBRANCH  15  19
ENDBRANCH  13  15
ENDBRANCH  11  13
ENDBRANCH   1  11
TORSDOF 5
ENDMDL
MODEL 4
REMARK VINA RESULT:      -6.4      2.050      3.743
REMARK  Name = 
REMARK  7 active torsions:
REMARK  status: ('A' for Active; 'I' for Inactive)
REMARK    1  A    between atoms: C_1  and  C_2
REMARK    2  A    between atoms: C_2  and  S_3
REMARK    3  A    between atoms: S_3  and  N_6
REMARK    4  A    between atoms: N_6  and  N_7
REMARK    5  A    between atoms: N_7  and  C_8
REMARK    6  A    between atoms: N_7  and  S_9
REMARK    7  A    between atoms: S_9  and  C_12
REMARK                            x       y       z     vdW  Elec       q    Type
REMARK                         _______ _______ _______ _____ _____    ______ ____
ROOT
ATOM      1  S   UNL     1       4.449   5.494  17.448  0.00  0.00    +0.000 S 
ATOM      2  O   UNL     1       5.440   6.274  16.730  0.00  0.00    +0.000 OA
ATOM      3  O   UNL     1       3.658   4.478  16.787  0.00  0.00    +0.000 OA
ENDROOT
BRANCH   1   4
ATOM      4  C   UNL     1       3.324   6.635  18.233  0.00  0.00    +0.000 A 
ATOM      5  C   UNL     1       2.960   7.811  17.572  0.00  0.00    +0.000 A 
ATOM      6  C   UNL     1       2.128   8.731  18.212  0.00  0.00    +0.000 A 
ATOM      7  C   UNL     1       1.656   8.464  19.499  0.00  0.00    +0.000 A 
ATOM      8  I   UNL     1       0.463   9.863  20.470  0.00  0.00    +0.000 I 
ATOM      9  C   UNL     1       1.986   7.270  20.143  0.00  0.00    +0.000 A 
ATOM     10  C   UNL     1       2.814   6.345  19.505  0.00  0.00    +0.000 A 
ENDBRANCH   1   4
BRANCH   1  11
ATOM     11  N   UNL     1       5.255   4.785  18.806  0.00  0.00    +0.000 NA
ATOM     12  C   UNL     1       6.399   5.554  19.344  0.00  0.00    +0.000 C 
BRANCH  11  13
ATOM     13  N   UNL     1       5.354   3.356  18.704  0.00  0.00    +0.000 NA
ATOM     14  H   UNL     1       5.104   3.076  17.739  0.00  0.00    +0.000 HD
BRANCH  13  15
ATOM     15  S   UNL     1       4.318   2.511  19.791  0.00  0.00    +0.000 S 
ATOM     16  O   UNL     1       3.443   3.490  20.403  0.00  0.00    +0.000 OA
ATOM     17  O   UNL     1       5.127   1.602  20.576  0.00  0.00    +0.000 OA
BRANCH  15  19
ATOM     18  C   UNL     1       1.941   2.068  18.536  0.00  0.00    +0.000 C 
ATOM     19  C   UNL     1       3.357   1.529  18.648  0.00  0.00    +0.000 C 
ENDBRANCH  15  19
ENDBRANCH  13  15
ENDBRANCH  11  13
ENDBRANCH   1  11
TORSDOF 5
ENDMDL
MODEL 5
REMARK VINA RESULT:      -6.3      1.832      2.157
REMARK  Name = 
REMARK  7 active torsions:
REMARK  status: ('A' for Active; 'I' for Inactive)
REMARK    1  A    between atoms: C_1  and  C_2
REMARK    2  A    between atoms: C_2  and  S_3
REMARK    3  A    between atoms: S_3  and  N_6
REMARK    4  A    between atoms: N_6  and  N_7
REMARK    5  A    between atoms: N_7  and  C_8
REMARK    6  A    between atoms: N_7  and  S_9
REMARK    7  A    between atoms: S_9  and  C_12
REMARK                            x       y       z     vdW  Elec       q    Type
REMARK                         _______ _______ _______ _____ _____    ______ ____
ROOT
ATOM      1  S   UNL     1       4.130   4.764  19.256  0.00  0.00    +0.000 S 
ATOM      2  O   UNL     1       3.264   3.763  19.854  0.00  0.00    +0.000 OA
ATOM      3  O   UNL     1       5.429   5.074  19.813  0.00  0.00    +0.000 OA
ENDROOT
BRANCH   1   4
ATOM      4  C   UNL     1       3.206   6.286  19.146  0.00  0.00    +0.000 A 
ATOM      5  C   UNL     1       2.428   6.701  20.230  0.00  0.00    +0.000 A 
ATOM      6  C   UNL     1       1.658   7.861  20.120  0.00  0.00    +0.000 A 
ATOM      7  C   UNL     1       1.683   8.602  18.937  0.00  0.00    +0.000 A 
ATOM      8  I   UNL     1       0.492  10.297  18.758  0.00  0.00    +0.000 I 
ATOM      9  C   UNL     1       2.492   8.210  17.869  0.00  0.00    +0.000 A 
ATOM     10  C   UNL     1       3.267   7.053  17.976  0.00  0.00    +0.000 A 
ENDBRANCH   1   4
BRANCH   1  11
ATOM     11  N   UNL     1       4.320   4.332  17.590  0.00  0.00    +0.000 NA
ATOM     12  C   UNL     1       3.180   3.610  16.982  0.00  0.00    +0.000 C 
BRANCH  11  13
ATOM     13  N   UNL     1       5.660   3.921  17.277  0.00  0.00    +0.000 NA
ATOM     14  H   UNL     1       6.167   3.747  18.163  0.00  0.00    +0.000 HD
BRANCH  13  15
ATOM     15  S   UNL     1       6.548   5.088  16.373  0.00  0.00    +0.000 S 
ATOM     16  O   UNL     1       7.873   4.546  16.151  0.00  0.00    +0.000 OA
ATOM     17  O   UNL     1       6.338   6.387  16.976  0.00  0.00    +0.000 OA
BRANCH  15  19
ATOM     18  C   UNL     1       6.066   3.859  13.990  0.00  0.00    +0.000 C 
ATOM     19  C   UNL     1       5.660   5.063  14.822  0.00  0.00    +0.000 C 
ENDBRANCH  15  19
ENDBRANCH  13  15
ENDBRANCH  11  13
ENDBRANCH   1  11
TORSDOF 5
ENDMDL
MODEL 6
REMARK VINA RESULT:      -6.3      1.359      2.011
REMARK  Name = 
REMARK  7 active torsions:
REMARK  status: ('A' for Active; 'I' for Inactive)
REMARK    1  A    between atoms: C_1  and  C_2
REMARK    2  A    between atoms: C_2  and  S_3
REMARK    3  A    between atoms: S_3  and  N_6
REMARK    4  A    between atoms: N_6  and  N_7
REMARK    5  A    between atoms: N_7  and  C_8
REMARK    6  A    between atoms: N_7  and  S_9
REMARK    7  A    between atoms: S_9  and  C_12
REMARK                            x       y       z     vdW  Elec       q    Type
REMARK                         _______ _______ _______ _____ _____    ______ ____
ROOT
ATOM      1  S   UNL     1       3.698   4.204  18.458  0.00  0.00    +0.000 S 
ATOM      2  O   UNL     1       3.118   3.800  17.190  0.00  0.00    +0.000 OA
ATOM      3  O   UNL     1       3.680   3.331  19.612  0.00  0.00    +0.000 OA
ENDROOT
BRANCH   1   4
ATOM      4  C   UNL     1       2.947   5.751  18.932  0.00  0.00    +0.000 A 
ATOM      5  C   UNL     1       2.386   5.885  20.205  0.00  0.00    +0.000 A 
ATOM      6  C   UNL     1       1.746   7.076  20.553  0.00  0.00    +0.000 A 
ATOM      7  C   UNL     1       1.683   8.125  19.634  0.00  0.00    +0.000 A 
ATOM      8  I   UNL     1       0.678   9.875  20.136  0.00  0.00    +0.000 I 
ATOM      9  C   UNL     1       2.279   8.007  18.377  0.00  0.00    +0.000 A 
ATOM     10  C   UNL     1       2.925   6.819  18.026  0.00  0.00    +0.000 A 
ENDBRANCH   1   4
BRANCH   1  11
ATOM     11  N   UNL     1       5.332   4.676  18.135  0.00  0.00    +0.000 NA
ATOM     12  C   UNL     1       6.016   5.403  19.228  0.00  0.00    +0.000 C 
BRANCH  11  13
ATOM     13  N   UNL     1       5.524   5.105  16.778  0.00  0.00    +0.000 NA
ATOM     14  H   UNL     1       5.083   4.412  16.148  0.00  0.00    +0.000 HD
BRANCH  13  15
ATOM     15  S   UNL     1       7.181   5.258  16.328  0.00  0.00    +0.000 S 
ATOM     16  O   UNL     1       7.908   4.194  16.991  0.00  0.00    +0.000 OA
ATOM     17  O   UNL     1       7.561   6.649  16.458  0.00  0.00    +0.000 OA
BRANCH  15  19
ATOM     18  C   UNL     1       5.862   4.050  14.273  0.00  0.00    +0.000 C 
ATOM     19  C   UNL     1       7.094   4.882  14.583  0.00  0.00    +0.000 C 
ENDBRANCH  15  19
ENDBRANCH  13  15
ENDBRANCH  11  13
ENDBRANCH   1  11
TORSDOF 5
ENDMDL
MODEL 7
REMARK VINA RESULT:      -6.3      2.197      3.563
REMARK  Name = 
REMARK  7 active torsions:
REMARK  status: ('A' for Active; 'I' for Inactive)
REMARK    1  A    between atoms: C_1  and  C_2
REMARK    2  A    between atoms: C_2  and  S_3
REMARK    3  A    between atoms: S_3  and  N_6
REMARK    4  A    between atoms: N_6  and  N_7
REMARK    5  A    between atoms: N_7  and  C_8
REMARK    6  A    between atoms: N_7  and  S_9
REMARK    7  A    between atoms: S_9  and  C_12
REMARK                            x       y       z     vdW  Elec       q    Type
REMARK                         _______ _______ _______ _____ _____    ______ ____
ROOT
ATOM      1  S   UNL     1       3.930   5.224  17.509  0.00  0.00    +0.000 S 
ATOM      2  O   UNL     1       4.854   5.772  16.532  0.00  0.00    +0.000 OA
ATOM      3  O   UNL     1       2.948   4.225  17.147  0.00  0.00    +0.000 OA
ENDROOT
BRANCH   1   4
ATOM      4  C   UNL     1       3.066   6.589  18.266  0.00  0.00    +0.000 A 
ATOM      5  C   UNL     1       2.590   6.465  19.573  0.00  0.00    +0.000 A 
ATOM      6  C   UNL     1       1.862   7.512  20.142  0.00  0.00    +0.000 A 
ATOM      7  C   UNL     1       1.628   8.676  19.408  0.00  0.00    +0.000 A 
ATOM      8  I   UNL     1       0.495  10.208  20.239  0.00  0.00    +0.000 I 
ATOM      9  C   UNL     1       2.139   8.816  18.116  0.00  0.00    +0.000 A 
ATOM     10  C   UNL     1       2.872   7.774  17.544  0.00  0.00    +0.000 A 
ENDBRANCH   1   4
BRANCH   1  11
ATOM     11  N   UNL     1       4.885   4.624  18.822  0.00  0.00    +0.000 NA
ATOM     12  C   UNL     1       5.927   5.546  19.329  0.00  0.00    +0.000 C 
BRANCH  11  13
ATOM     13  N   UNL     1       5.188   3.227  18.691  0.00  0.00    +0.000 NA
ATOM     14  H   UNL     1       5.003   2.940  17.713  0.00  0.00    +0.000 HD
BRANCH  13  15
ATOM     15  S   UNL     1       4.255   2.216  19.729  0.00  0.00    +0.000 S 
ATOM     16  O   UNL     1       5.164   1.632  20.694  0.00  0.00    +0.000 OA
ATOM     17  O   UNL     1       3.378   1.408  18.908  0.00  0.00    +0.000 OA
BRANCH  15  19
ATOM     18  C   UNL     1       2.223   2.751  21.462  0.00  0.00    +0.000 C 
ATOM     19  C   UNL     1       3.245   3.430  20.566  0.00  0.00    +0.000 C 
ENDBRANCH  15  19
ENDBRANCH  13  15
ENDBRANCH  11  13
ENDBRANCH   1  11
TORSDOF 5
ENDMDL
MODEL 8
REMARK VINA RESULT:      -6.3      1.948      2.935
REMARK  Name = 
REMARK  7 active torsions:
REMARK  status: ('A' for Active; 'I' for Inactive)
REMARK    1  A    between atoms: C_1  and  C_2
REMARK    2  A    between atoms: C_2  and  S_3
REMARK    3  A    between atoms: S_3  and  N_6
REMARK    4  A    between atoms: N_6  and  N_7
REMARK    5  A    between atoms: N_7  and  C_8
REMARK    6  A    between atoms: N_7  and  S_9
REMARK    7  A    between atoms: S_9  and  C_12
REMARK                            x       y       z     vdW  Elec       q    Type
REMARK                         _______ _______ _______ _____ _____    ______ ____
ROOT
ATOM      1  S   UNL     1       4.733   4.749  18.804  0.00  0.00    +0.000 S 
ATOM      2  O   UNL     1       4.148   3.710  19.631  0.00  0.00    +0.000 OA
ATOM      3  O   UNL     1       6.074   5.240  19.038  0.00  0.00    +0.000 OA
ENDROOT
BRANCH   1   4
ATOM      4  C   UNL     1       3.628   6.150  18.827  0.00  0.00    +0.000 A 
ATOM      5  C   UNL     1       3.592   7.019  17.733  0.00  0.00    +0.000 A 
ATOM      6  C   UNL     1       2.771   8.147  17.778  0.00  0.00    +0.000 A 
ATOM      7  C   UNL     1       1.985   8.391  18.906  0.00  0.00    +0.000 A 
ATOM      8  I   UNL     1       0.808  10.102  18.992  0.00  0.00    +0.000 I 
ATOM      9  C   UNL     1       1.990   7.501  19.982  0.00  0.00    +0.000 A 
ATOM     10  C   UNL     1       2.806   6.368  19.940  0.00  0.00    +0.000 A 
ENDBRANCH   1   4
BRANCH   1  11
ATOM     11  N   UNL     1       4.609   4.214  17.162  0.00  0.00    +0.000 NA
ATOM     12  C   UNL     1       3.424   3.384  16.848  0.00  0.00    +0.000 C 
BRANCH  11  13
ATOM     13  N   UNL     1       5.882   3.864  16.598  0.00  0.00    +0.000 NA
ATOM     14  H   UNL     1       6.605   3.956  17.334  0.00  0.00    +0.000 HD
BRANCH  13  15
ATOM     15  S   UNL     1       6.346   4.855  15.267  0.00  0.00    +0.000 S 
ATOM     16  O   UNL     1       7.793   4.836  15.198  0.00  0.00    +0.000 OA
ATOM     17  O   UNL     1       5.593   6.091  15.336  0.00  0.00    +0.000 OA
BRANCH  15  19
ATOM     18  C   UNL     1       6.609   4.029  12.685  0.00  0.00    +0.000 C 
ATOM     19  C   UNL     1       5.701   3.906  13.897  0.00  0.00    +0.000 C 
ENDBRANCH  15  19
ENDBRANCH  13  15
ENDBRANCH  11  13
ENDBRANCH   1  11
TORSDOF 5
ENDMDL
MODEL 9
REMARK VINA RESULT:      -6.3      1.932      2.608
REMARK  Name = 
REMARK  7 active torsions:
REMARK  status: ('A' for Active; 'I' for Inactive)
REMARK    1  A    between atoms: C_1  and  C_2
REMARK    2  A    between atoms: C_2  and  S_3
REMARK    3  A    between atoms: S_3  and  N_6
REMARK    4  A    between atoms: N_6  and  N_7
REMARK    5  A    between atoms: N_7  and  C_8
REMARK    6  A    between atoms: N_7  and  S_9
REMARK    7  A    between atoms: S_9  and  C_12
REMARK                            x       y       z     vdW  Elec       q    Type
REMARK                         _______ _______ _______ _____ _____    ______ ____
ROOT
ATOM      1  S   UNL     1       4.391   3.830  19.110  0.00  0.00    +0.000 S 
ATOM      2  O   UNL     1       3.828   2.630  19.703  0.00  0.00    +0.000 OA
ATOM      3  O   UNL     1       5.754   4.237  19.372  0.00  0.00    +0.000 OA
ENDROOT
BRANCH   1   4
ATOM      4  C   UNL     1       3.323   5.196  19.530  0.00  0.00    +0.000 A 
ATOM      5  C   UNL     1       3.391   6.378  18.789  0.00  0.00    +0.000 A 
ATOM      6  C   UNL     1       2.597   7.467  19.157  0.00  0.00    +0.000 A 
ATOM      7  C   UNL     1       1.735   7.361  20.250  0.00  0.00    +0.000 A 
ATOM      8  I   UNL     1       0.598   9.003  20.828  0.00  0.00    +0.000 I 
ATOM      9  C   UNL     1       1.637   6.166  20.964  0.00  0.00    +0.000 A 
ATOM     10  C   UNL     1       2.425   5.073  20.598  0.00  0.00    +0.000 A 
ENDBRANCH   1   4
BRANCH   1  11
ATOM     11  N   UNL     1       4.161   3.700  17.399  0.00  0.00    +0.000 NA
ATOM     12  C   UNL     1       2.850   3.164  16.969  0.00  0.00    +0.000 C 
BRANCH  11  13
ATOM     13  N   UNL     1       5.351   3.282  16.713  0.00  0.00    +0.000 NA
ATOM     14  H   UNL     1       6.003   2.871  17.404  0.00  0.00    +0.000 HD
BRANCH  13  15
ATOM     15  S   UNL     1       6.169   4.563  15.902  0.00  0.00    +0.000 S 
ATOM     16  O   UNL     1       7.532   4.582  16.391  0.00  0.00    +0.000 OA
ATOM     17  O   UNL     1       5.321   5.737  15.935  0.00  0.00    +0.000 OA
BRANCH  15  19
ATOM     18  C   UNL     1       7.163   4.733  13.371  0.00  0.00    +0.000 C 
ATOM     19  C   UNL     1       6.178   3.951  14.223  0.00  0.00    +0.000 C 
ENDBRANCH  15  19
ENDBRANCH  13  15
ENDBRANCH  11  13
ENDBRANCH   1  11
TORSDOF 5
ENDMDL
