MODEL 1
REMARK VINA RESULT:      -7.1      0.000      0.000
REMARK  Name = 
REMARK  6 active torsions:
REMARK  status: ('A' for Active; 'I' for Inactive)
REMARK    1  A    between atoms: C_1  and  O_2
REMARK    2  A    between atoms: O_2  and  N_3
REMARK    3  A    between atoms: C_4  and  C_5
REMARK    4  A    between atoms: C_4  and  C_13
REMARK    5  A    between atoms: C_5  and  C_6
REMARK    6  A    between atoms: C_11  and  C_12
REMARK                            x       y       z     vdW  Elec       q    Type
REMARK                         _______ _______ _______ _____ _____    ______ ____
ROOT
ATOM      1  N   UNL     1       3.386   7.471  17.902  0.00  0.00    +0.000 NA
ATOM      2  C   UNL     1       3.409   6.166  17.834  0.00  0.00    +0.000 C 
ENDROOT
BRANCH   2   3
ATOM      3  C   UNL     1       4.736   5.497  17.681  0.00  0.00    +0.000 A 
ATOM      4  C   UNL     1       5.205   5.175  16.404  0.00  0.00    +0.000 A 
ATOM      5  C   UNL     1       6.518   4.740  16.242  0.00  0.00    +0.000 A 
ATOM      6  C   UNL     1       7.306   4.599  17.372  0.00  0.00    +0.000 A 
ATOM      7  N   UNL     1       6.864   4.826  18.629  0.00  0.00    +0.000 NA
ATOM      8  C   UNL     1       5.591   5.276  18.755  0.00  0.00    +0.000 A 
ENDBRANCH   2   3
BRANCH   1  10
ATOM      9  C   UNL     1       2.085   9.371  17.883  0.00  0.00    +0.000 C 
ATOM     10  O   UNL     1       2.074   7.957  18.032  0.00  0.00    +0.000 OA
ENDBRANCH   1  10
BRANCH   2  11
ATOM     11  C   UNL     1       2.159   5.294  17.914  0.00  0.00    +0.000 C 
BRANCH  11  12
ATOM     12  C   UNL     1       2.059   4.269  19.038  0.00  0.00    +0.000 A 
ATOM     13  C   UNL     1       1.859   4.799  20.330  0.00  0.00    +0.000 A 
ATOM     14  C   UNL     1       1.790   3.985  21.455  0.00  0.00    +0.000 A 
ATOM     15  C   UNL     1       1.916   2.611  21.319  0.00  0.00    +0.000 A 
ATOM     16  C   UNL     1       2.139   2.063  20.062  0.00  0.00    +0.000 A 
ATOM     17  C   UNL     1       2.251   2.876  18.911  0.00  0.00    +0.000 A 
ATOM     18  C   UNL     1       2.530   2.165  17.617  0.00  0.00    +0.000 C 
ENDBRANCH  11  12
ENDBRANCH   2  11
TORSDOF 4
ENDMDL
MODEL 2
REMARK VINA RESULT:      -7.0      1.405      2.349
REMARK  Name = 
REMARK  6 active torsions:
REMARK  status: ('A' for Active; 'I' for Inactive)
REMARK    1  A    between atoms: C_1  and  O_2
REMARK    2  A    between atoms: O_2  and  N_3
REMARK    3  A    between atoms: C_4  and  C_5
REMARK    4  A    between atoms: C_4  and  C_13
REMARK    5  A    between atoms: C_5  and  C_6
REMARK    6  A    between atoms: C_11  and  C_12
REMARK                            x       y       z     vdW  Elec       q    Type
REMARK                         _______ _______ _______ _____ _____    ______ ____
ROOT
ATOM      1  N   UNL     1       3.777   7.196  17.291  0.00  0.00    +0.000 NA
ATOM      2  C   UNL     1       4.396   6.088  17.601  0.00  0.00    +0.000 C 
ENDROOT
BRANCH   2   3
ATOM      3  C   UNL     1       5.372   5.532  16.616  0.00  0.00    +0.000 A 
ATOM      4  C   UNL     1       4.927   4.659  15.619  0.00  0.00    +0.000 A 
ATOM      5  C   UNL     1       5.786   4.301  14.583  0.00  0.00    +0.000 A 
ATOM      6  C   UNL     1       7.080   4.794  14.605  0.00  0.00    +0.000 A 
ATOM      7  N   UNL     1       7.569   5.577  15.591  0.00  0.00    +0.000 NA
ATOM      8  C   UNL     1       6.702   5.934  16.572  0.00  0.00    +0.000 A 
ENDBRANCH   2   3
BRANCH   1  10
ATOM      9  C   UNL     1       2.147   8.720  17.859  0.00  0.00    +0.000 C 
ATOM     10  O   UNL     1       2.885   7.590  18.302  0.00  0.00    +0.000 OA
ENDBRANCH   1  10
BRANCH   2  11
ATOM     11  C   UNL     1       4.183   5.342  18.915  0.00  0.00    +0.000 C 
BRANCH  11  12
ATOM     12  C   UNL     1       3.028   4.352  19.010  0.00  0.00    +0.000 A 
ATOM     13  C   UNL     1       3.082   3.265  18.111  0.00  0.00    +0.000 A 
ATOM     14  C   UNL     1       2.077   2.307  18.057  0.00  0.00    +0.000 A 
ATOM     15  C   UNL     1       0.985   2.405  18.906  0.00  0.00    +0.000 A 
ATOM     16  C   UNL     1       0.892   3.479  19.783  0.00  0.00    +0.000 A 
ATOM     17  C   UNL     1       1.885   4.485  19.827  0.00  0.00    +0.000 A 
ATOM     18  C   UNL     1       1.649   5.611  20.794  0.00  0.00    +0.000 C 
ENDBRANCH  11  12
ENDBRANCH   2  11
TORSDOF 4
ENDMDL
MODEL 3
REMARK VINA RESULT:      -6.9      0.965      1.010
REMARK  Name = 
REMARK  6 active torsions:
REMARK  status: ('A' for Active; 'I' for Inactive)
REMARK    1  A    between atoms: C_1  and  O_2
REMARK    2  A    between atoms: O_2  and  N_3
REMARK    3  A    between atoms: C_4  and  C_5
REMARK    4  A    between atoms: C_4  and  C_13
REMARK    5  A    between atoms: C_5  and  C_6
REMARK    6  A    between atoms: C_11  and  C_12
REMARK                            x       y       z     vdW  Elec       q    Type
REMARK                         _______ _______ _______ _____ _____    ______ ____
ROOT
ATOM      1  N   UNL     1       3.584   7.541  17.981  0.00  0.00    +0.000 NA
ATOM      2  C   UNL     1       3.562   6.284  17.626  0.00  0.00    +0.000 C 
ENDROOT
BRANCH   2   3
ATOM      3  C   UNL     1       4.808   5.696  17.049  0.00  0.00    +0.000 A 
ATOM      4  C   UNL     1       4.763   4.437  16.444  0.00  0.00    +0.000 A 
ATOM      5  C   UNL     1       5.865   3.976  15.729  0.00  0.00    +0.000 A 
ATOM      6  C   UNL     1       6.996   4.774  15.682  0.00  0.00    +0.000 A 
ATOM      7  N   UNL     1       7.104   5.962  16.318  0.00  0.00    +0.000 NA
ATOM      8  C   UNL     1       6.005   6.400  16.982  0.00  0.00    +0.000 A 
ENDBRANCH   2   3
BRANCH   1  10
ATOM      9  C   UNL     1       1.914   9.115  17.792  0.00  0.00    +0.000 C 
ATOM     10  O   UNL     1       2.344   7.956  18.494  0.00  0.00    +0.000 OA
ENDBRANCH   1  10
BRANCH   2  11
ATOM     11  C   UNL     1       2.337   5.386  17.781  0.00  0.00    +0.000 C 
BRANCH  11  12
ATOM     12  C   UNL     1       2.266   4.456  18.987  0.00  0.00    +0.000 A 
ATOM     13  C   UNL     1       2.258   5.092  20.247  0.00  0.00    +0.000 A 
ATOM     14  C   UNL     1       2.237   4.369  21.434  0.00  0.00    +0.000 A 
ATOM     15  C   UNL     1       2.219   2.983  21.396  0.00  0.00    +0.000 A 
ATOM     16  C   UNL     1       2.252   2.330  20.169  0.00  0.00    +0.000 A 
ATOM     17  C   UNL     1       2.312   3.046  18.953  0.00  0.00    +0.000 A 
ATOM     18  C   UNL     1       2.381   2.222  17.698  0.00  0.00    +0.000 C 
ENDBRANCH  11  12
ENDBRANCH   2  11
TORSDOF 4
ENDMDL
MODEL 4
REMARK VINA RESULT:      -6.9      0.491      1.701
REMARK  Name = 
REMARK  6 active torsions:
REMARK  status: ('A' for Active; 'I' for Inactive)
REMARK    1  A    between atoms: C_1  and  O_2
REMARK    2  A    between atoms: O_2  and  N_3
REMARK    3  A    between atoms: C_4  and  C_5
REMARK    4  A    between atoms: C_4  and  C_13
REMARK    5  A    between atoms: C_5  and  C_6
REMARK    6  A    between atoms: C_11  and  C_12
REMARK                            x       y       z     vdW  Elec       q    Type
REMARK                         _______ _______ _______ _____ _____    ______ ____
ROOT
ATOM      1  N   UNL     1       3.455   7.559  17.678  0.00  0.00    +0.000 NA
ATOM      2  C   UNL     1       3.491   6.253  17.692  0.00  0.00    +0.000 C 
ENDROOT
BRANCH   2   3
ATOM      3  C   UNL     1       4.829   5.589  17.687  0.00  0.00    +0.000 A 
ATOM      4  C   UNL     1       5.527   5.447  16.484  0.00  0.00    +0.000 A 
ATOM      5  C   UNL     1       6.851   5.017  16.502  0.00  0.00    +0.000 A 
ATOM      6  C   UNL     1       7.419   4.698  17.724  0.00  0.00    +0.000 A 
ATOM      7  N   UNL     1       6.753   4.748  18.899  0.00  0.00    +0.000 NA
ATOM      8  C   UNL     1       5.474   5.198  18.855  0.00  0.00    +0.000 A 
ENDBRANCH   2   3
BRANCH   1  10
ATOM      9  C   UNL     1       2.137   9.412  18.043  0.00  0.00    +0.000 C 
ATOM     10  O   UNL     1       2.135   8.039  17.672  0.00  0.00    +0.000 OA
ENDBRANCH   1  10
BRANCH   2  11
ATOM     11  C   UNL     1       2.242   5.375  17.722  0.00  0.00    +0.000 C 
BRANCH  11  12
ATOM     12  C   UNL     1       2.040   4.442  18.910  0.00  0.00    +0.000 A 
ATOM     13  C   UNL     1       2.004   3.065  18.603  0.00  0.00    +0.000 A 
ATOM     14  C   UNL     1       1.785   2.101  19.581  0.00  0.00    +0.000 A 
ATOM     15  C   UNL     1       1.599   2.487  20.900  0.00  0.00    +0.000 A 
ATOM     16  C   UNL     1       1.604   3.837  21.227  0.00  0.00    +0.000 A 
ATOM     17  C   UNL     1       1.786   4.835  20.242  0.00  0.00    +0.000 A 
ATOM     18  C   UNL     1       1.733   6.259  20.719  0.00  0.00    +0.000 C 
ENDBRANCH  11  12
ENDBRANCH   2  11
TORSDOF 4
ENDMDL
MODEL 5
REMARK VINA RESULT:      -6.9      1.619      4.637
REMARK  Name = 
REMARK  6 active torsions:
REMARK  status: ('A' for Active; 'I' for Inactive)
REMARK    1  A    between atoms: C_1  and  O_2
REMARK    2  A    between atoms: O_2  and  N_3
REMARK    3  A    between atoms: C_4  and  C_5
REMARK    4  A    between atoms: C_4  and  C_13
REMARK    5  A    between atoms: C_5  and  C_6
REMARK    6  A    between atoms: C_11  and  C_12
REMARK                            x       y       z     vdW  Elec       q    Type
REMARK                         _______ _______ _______ _____ _____    ______ ____
ROOT
ATOM      1  N   UNL     1       2.385   6.977  18.962  0.00  0.00    +0.000 NA
ATOM      2  C   UNL     1       2.642   5.720  18.713  0.00  0.00    +0.000 C 
ENDROOT
BRANCH   2   3
ATOM      3  C   UNL     1       2.117   4.696  19.664  0.00  0.00    +0.000 A 
ATOM      4  C   UNL     1       1.318   3.653  19.186  0.00  0.00    +0.000 A 
ATOM      5  C   UNL     1       0.996   2.591  20.027  0.00  0.00    +0.000 A 
ATOM      6  C   UNL     1       1.448   2.631  21.336  0.00  0.00    +0.000 A 
ATOM      7  N   UNL     1       2.156   3.658  21.855  0.00  0.00    +0.000 NA
ATOM      8  C   UNL     1       2.480   4.665  21.006  0.00  0.00    +0.000 A 
ENDBRANCH   2   3
BRANCH   1  10
ATOM      9  C   UNL     1       2.112   8.956  17.816  0.00  0.00    +0.000 C 
ATOM     10  O   UNL     1       2.951   7.822  17.992  0.00  0.00    +0.000 OA
ENDBRANCH   1  10
BRANCH   2  11
ATOM     11  C   UNL     1       3.438   5.247  17.500  0.00  0.00    +0.000 C 
BRANCH  11  12
ATOM     12  C   UNL     1       4.948   5.085  17.639  0.00  0.00    +0.000 A 
ATOM     13  C   UNL     1       5.489   5.474  18.884  0.00  0.00    +0.000 A 
ATOM     14  C   UNL     1       6.854   5.420  19.138  0.00  0.00    +0.000 A 
ATOM     15  C   UNL     1       7.722   4.969  18.154  0.00  0.00    +0.000 A 
ATOM     16  C   UNL     1       7.219   4.604  16.912  0.00  0.00    +0.000 A 
ATOM     17  C   UNL     1       5.839   4.688  16.619  0.00  0.00    +0.000 A 
ATOM     18  C   UNL     1       5.428   4.298  15.227  0.00  0.00    +0.000 C 
ENDBRANCH  11  12
ENDBRANCH   2  11
TORSDOF 4
ENDMDL
MODEL 6
REMARK VINA RESULT:      -6.8      2.602      4.170
REMARK  Name = 
REMARK  6 active torsions:
REMARK  status: ('A' for Active; 'I' for Inactive)
REMARK    1  A    between atoms: C_1  and  O_2
REMARK    2  A    between atoms: O_2  and  N_3
REMARK    3  A    between atoms: C_4  and  C_5
REMARK    4  A    between atoms: C_4  and  C_13
REMARK    5  A    between atoms: C_5  and  C_6
REMARK    6  A    between atoms: C_11  and  C_12
REMARK                            x       y       z     vdW  Elec       q    Type
REMARK                         _______ _______ _______ _____ _____    ______ ____
ROOT
ATOM      1  N   UNL     1       6.838   4.309  14.606  0.00  0.00    +0.000 NA
ATOM      2  C   UNL     1       6.193   4.727  15.662  0.00  0.00    +0.000 C 
ENDROOT
BRANCH   2   3
ATOM      3  C   UNL     1       6.990   5.307  16.785  0.00  0.00    +0.000 A 
ATOM      4  C   UNL     1       7.137   6.694  16.884  0.00  0.00    +0.000 A 
ATOM      5  C   UNL     1       7.701   7.247  18.031  0.00  0.00    +0.000 A 
ATOM      6  C   UNL     1       8.142   6.388  19.024  0.00  0.00    +0.000 A 
ATOM      7  N   UNL     1       8.088   5.041  18.930  0.00  0.00    +0.000 NA
ATOM      8  C   UNL     1       7.507   4.530  17.815  0.00  0.00    +0.000 A 
ENDBRANCH   2   3
BRANCH   1  10
ATOM      9  C   UNL     1       6.645   3.679  12.399  0.00  0.00    +0.000 C 
ATOM     10  O   UNL     1       5.963   3.779  13.643  0.00  0.00    +0.000 OA
ENDBRANCH   1  10
BRANCH   2  11
ATOM     11  C   UNL     1       4.675   4.663  15.804  0.00  0.00    +0.000 C 
BRANCH  11  12
ATOM     12  C   UNL     1       4.081   4.509  17.199  0.00  0.00    +0.000 A 
ATOM     13  C   UNL     1       3.945   3.182  17.660  0.00  0.00    +0.000 A 
ATOM     14  C   UNL     1       3.381   2.889  18.896  0.00  0.00    +0.000 A 
ATOM     15  C   UNL     1       2.940   3.918  19.714  0.00  0.00    +0.000 A 
ATOM     16  C   UNL     1       3.038   5.233  19.275  0.00  0.00    +0.000 A 
ATOM     17  C   UNL     1       3.573   5.550  18.005  0.00  0.00    +0.000 A 
ATOM     18  C   UNL     1       3.590   7.007  17.635  0.00  0.00    +0.000 C 
ENDBRANCH  11  12
ENDBRANCH   2  11
TORSDOF 4
ENDMDL
MODEL 7
REMARK VINA RESULT:      -6.8      1.425      1.619
REMARK  Name = 
REMARK  6 active torsions:
REMARK  status: ('A' for Active; 'I' for Inactive)
REMARK    1  A    between atoms: C_1  and  O_2
REMARK    2  A    between atoms: O_2  and  N_3
REMARK    3  A    between atoms: C_4  and  C_5
REMARK    4  A    between atoms: C_4  and  C_13
REMARK    5  A    between atoms: C_5  and  C_6
REMARK    6  A    between atoms: C_11  and  C_12
REMARK                            x       y       z     vdW  Elec       q    Type
REMARK                         _______ _______ _______ _____ _____    ______ ____
ROOT
ATOM      1  N   UNL     1       3.656   7.325  17.544  0.00  0.00    +0.000 NA
ATOM      2  C   UNL     1       4.324   6.289  17.979  0.00  0.00    +0.000 C 
ENDROOT
BRANCH   2   3
ATOM      3  C   UNL     1       5.277   5.625  17.040  0.00  0.00    +0.000 A 
ATOM      4  C   UNL     1       4.842   4.550  16.259  0.00  0.00    +0.000 A 
ATOM      5  C   UNL     1       5.659   4.062  15.243  0.00  0.00    +0.000 A 
ATOM      6  C   UNL     1       6.907   4.639  15.071  0.00  0.00    +0.000 A 
ATOM      7  N   UNL     1       7.392   5.627  15.855  0.00  0.00    +0.000 NA
ATOM      8  C   UNL     1       6.563   6.103  16.818  0.00  0.00    +0.000 A 
ENDBRANCH   2   3
BRANCH   1  10
ATOM      9  C   UNL     1       1.826   8.673  17.913  0.00  0.00    +0.000 C 
ATOM     10  O   UNL     1       2.794   7.834  18.529  0.00  0.00    +0.000 OA
ENDBRANCH   1  10
BRANCH   2  11
ATOM     11  C   UNL     1       4.190   5.733  19.395  0.00  0.00    +0.000 C 
BRANCH  11  12
ATOM     12  C   UNL     1       3.145   4.655  19.655  0.00  0.00    +0.000 A 
ATOM     13  C   UNL     1       1.880   5.121  20.074  0.00  0.00    +0.000 A 
ATOM     14  C   UNL     1       0.844   4.249  20.387  0.00  0.00    +0.000 A 
ATOM     15  C   UNL     1       1.041   2.879  20.286  0.00  0.00    +0.000 A 
ATOM     16  C   UNL     1       2.285   2.392  19.901  0.00  0.00    +0.000 A 
ATOM     17  C   UNL     1       3.362   3.261  19.616  0.00  0.00    +0.000 A 
ATOM     18  C   UNL     1       4.664   2.607  19.246  0.00  0.00    +0.000 C 
ENDBRANCH  11  12
ENDBRANCH   2  11
TORSDOF 4
ENDMDL
MODEL 8
REMARK VINA RESULT:      -6.7      1.475      2.410
REMARK  Name = 
REMARK  6 active torsions:
REMARK  status: ('A' for Active; 'I' for Inactive)
REMARK    1  A    between atoms: C_1  and  O_2
REMARK    2  A    between atoms: O_2  and  N_3
REMARK    3  A    between atoms: C_4  and  C_5
REMARK    4  A    between atoms: C_4  and  C_13
REMARK    5  A    between atoms: C_5  and  C_6
REMARK    6  A    between atoms: C_11  and  C_12
REMARK                            x       y       z     vdW  Elec       q    Type
REMARK                         _______ _______ _______ _____ _____    ______ ____
ROOT
ATOM      1  N   UNL     1       3.614   7.396  17.536  0.00  0.00    +0.000 NA
ATOM      2  C   UNL     1       4.277   6.317  17.859  0.00  0.00    +0.000 C 
ENDROOT
BRANCH   2   3
ATOM      3  C   UNL     1       5.355   5.854  16.935  0.00  0.00    +0.000 A 
ATOM      4  C   UNL     1       6.407   5.079  17.432  0.00  0.00    +0.000 A 
ATOM      5  C   UNL     1       7.299   4.479  16.547  0.00  0.00    +0.000 A 
ATOM      6  C   UNL     1       7.135   4.713  15.192  0.00  0.00    +0.000 A 
ATOM      7  N   UNL     1       6.178   5.518  14.679  0.00  0.00    +0.000 NA
ATOM      8  C   UNL     1       5.306   6.066  15.562  0.00  0.00    +0.000 A 
ENDBRANCH   2   3
BRANCH   1  10
ATOM      9  C   UNL     1       1.875   8.819  18.037  0.00  0.00    +0.000 C 
ATOM     10  O   UNL     1       2.628   7.701  18.488  0.00  0.00    +0.000 OA
ENDBRANCH   1  10
BRANCH   2  11
ATOM     11  C   UNL     1       4.013   5.515  19.130  0.00  0.00    +0.000 C 
BRANCH  11  12
ATOM     12  C   UNL     1       2.951   4.422  19.093  0.00  0.00    +0.000 A 
ATOM     13  C   UNL     1       3.150   3.412  18.128  0.00  0.00    +0.000 A 
ATOM     14  C   UNL     1       2.240   2.375  17.953  0.00  0.00    +0.000 A 
ATOM     15  C   UNL     1       1.102   2.316  18.744  0.00  0.00    +0.000 A 
ATOM     16  C   UNL     1       0.868   3.312  19.685  0.00  0.00    +0.000 A 
ATOM     17  C   UNL     1       1.761   4.395  19.852  0.00  0.00    +0.000 A 
ATOM     18  C   UNL     1       1.375   5.424  20.877  0.00  0.00    +0.000 C 
ENDBRANCH  11  12
ENDBRANCH   2  11
TORSDOF 4
ENDMDL
MODEL 9
REMARK VINA RESULT:      -6.7      1.895      4.941
REMARK  Name = 
REMARK  6 active torsions:
REMARK  status: ('A' for Active; 'I' for Inactive)
REMARK    1  A    between atoms: C_1  and  O_2
REMARK    2  A    between atoms: O_2  and  N_3
REMARK    3  A    between atoms: C_4  and  C_5
REMARK    4  A    between atoms: C_4  and  C_13
REMARK    5  A    between atoms: C_5  and  C_6
REMARK    6  A    between atoms: C_11  and  C_12
REMARK                            x       y       z     vdW  Elec       q    Type
REMARK                         _______ _______ _______ _____ _____    ______ ____
ROOT
ATOM      1  N   UNL     1       2.256   7.230  18.445  0.00  0.00    +0.000 NA
ATOM      2  C   UNL     1       2.790   6.092  18.090  0.00  0.00    +0.000 C 
ENDROOT
BRANCH   2   3
ATOM      3  C   UNL     1       2.181   4.836  18.623  0.00  0.00    +0.000 A 
ATOM      4  C   UNL     1       1.781   4.775  19.961  0.00  0.00    +0.000 A 
ATOM      5  C   UNL     1       1.033   3.689  20.407  0.00  0.00    +0.000 A 
ATOM      6  C   UNL     1       0.749   2.674  19.508  0.00  0.00    +0.000 A 
ATOM      7  N   UNL     1       1.184   2.661  18.228  0.00  0.00    +0.000 NA
ATOM      8  C   UNL     1       1.885   3.746  17.812  0.00  0.00    +0.000 A 
ENDBRANCH   2   3
BRANCH   1  10
ATOM      9  C   UNL     1       2.068   9.441  17.832  0.00  0.00    +0.000 C 
ATOM     10  O   UNL     1       2.939   8.319  17.879  0.00  0.00    +0.000 OA
ENDBRANCH   1  10
BRANCH   2  11
ATOM     11  C   UNL     1       3.990   5.979  17.153  0.00  0.00    +0.000 C 
BRANCH  11  12
ATOM     12  C   UNL     1       5.387   6.157  17.738  0.00  0.00    +0.000 A 
ATOM     13  C   UNL     1       6.139   7.225  17.202  0.00  0.00    +0.000 A 
ATOM     14  C   UNL     1       7.442   7.481  17.611  0.00  0.00    +0.000 A 
ATOM     15  C   UNL     1       8.034   6.677  18.574  0.00  0.00    +0.000 A 
ATOM     16  C   UNL     1       7.325   5.603  19.100  0.00  0.00    +0.000 A 
ATOM     17  C   UNL     1       6.013   5.302  18.670  0.00  0.00    +0.000 A 
ATOM     18  C   UNL     1       5.370   4.093  19.289  0.00  0.00    +0.000 C 
ENDBRANCH  11  12
ENDBRANCH   2  11
TORSDOF 4
ENDMDL
