MODEL 1
REMARK VINA RESULT:      -4.7      0.000      0.000
REMARK  Name = 
REMARK  2 active torsions:
REMARK  status: ('A' for Active; 'I' for Inactive)
REMARK    1  A    between atoms: C_2  and  C_3
REMARK    2  A    between atoms: C_3  and  C_4
REMARK                            x       y       z     vdW  Elec       q    Type
REMARK                         _______ _______ _______ _____ _____    ______ ____
ROOT
ATOM      1  C   UNL     1       2.225   5.167  18.756  0.00  0.00    +0.000 A 
ATOM      2  C   UNL     1       1.864   4.089  17.936  0.00  0.00    +0.000 A 
ATOM      3  C   UNL     1       1.173   2.997  18.461  0.00  0.00    +0.000 A 
ATOM      4  C   UNL     1       0.848   2.962  19.816  0.00  0.00    +0.000 A 
ATOM      5  C   UNL     1       1.213   4.021  20.645  0.00  0.00    +0.000 A 
ATOM      6  C   UNL     1       1.899   5.118  20.118  0.00  0.00    +0.000 A 
ENDROOT
BRANCH   1   7
ATOM      7  C   UNL     1       2.969   6.353  18.190  0.00  0.00    +0.000 C 
BRANCH   7   9
ATOM      8 BR   UNL     1       5.459   5.178  18.927  0.00  0.00    +0.000 Br
ATOM      9  C   UNL     1       4.299   5.957  17.568  0.00  0.00    +0.000 C 
ENDBRANCH   7   9
ENDBRANCH   1   7
TORSDOF 2
ENDMDL
MODEL 2
REMARK VINA RESULT:      -4.7      0.029      1.609
REMARK  Name = 
REMARK  2 active torsions:
REMARK  status: ('A' for Active; 'I' for Inactive)
REMARK    1  A    between atoms: C_2  and  C_3
REMARK    2  A    between atoms: C_3  and  C_4
REMARK                            x       y       z     vdW  Elec       q    Type
REMARK                         _______ _______ _______ _____ _____    ______ ____
ROOT
ATOM      1  C   UNL     1       2.230   5.188  18.749  0.00  0.00    +0.000 A 
ATOM      2  C   UNL     1       1.882   5.140  20.107  0.00  0.00    +0.000 A 
ATOM      3  C   UNL     1       1.204   4.037  20.627  0.00  0.00    +0.000 A 
ATOM      4  C   UNL     1       0.854   2.975  19.794  0.00  0.00    +0.000 A 
ATOM      5  C   UNL     1       1.183   3.018  18.440  0.00  0.00    +0.000 A 
ATOM      6  C   UNL     1       1.867   4.118  17.920  0.00  0.00    +0.000 A 
ENDROOT
BRANCH   1   7
ATOM      7  C   UNL     1       2.967   6.379  18.184  0.00  0.00    +0.000 C 
BRANCH   7   9
ATOM      8 BR   UNL     1       5.459   5.199  18.909  0.00  0.00    +0.000 Br
ATOM      9  C   UNL     1       4.298   5.990  17.558  0.00  0.00    +0.000 C 
ENDBRANCH   7   9
ENDBRANCH   1   7
TORSDOF 2
ENDMDL
MODEL 3
REMARK VINA RESULT:      -4.7      1.978      2.523
REMARK  Name = 
REMARK  2 active torsions:
REMARK  status: ('A' for Active; 'I' for Inactive)
REMARK    1  A    between atoms: C_2  and  C_3
REMARK    2  A    between atoms: C_3  and  C_4
REMARK                            x       y       z     vdW  Elec       q    Type
REMARK                         _______ _______ _______ _____ _____    ______ ____
ROOT
ATOM      1  C   UNL     1       2.020   5.264  19.422  0.00  0.00    +0.000 A 
ATOM      2  C   UNL     1       1.518   4.623  20.564  0.00  0.00    +0.000 A 
ATOM      3  C   UNL     1       0.993   3.333  20.481  0.00  0.00    +0.000 A 
ATOM      4  C   UNL     1       0.952   2.673  19.254  0.00  0.00    +0.000 A 
ATOM      5  C   UNL     1       1.435   3.304  18.110  0.00  0.00    +0.000 A 
ATOM      6  C   UNL     1       1.967   4.593  18.193  0.00  0.00    +0.000 A 
ENDROOT
BRANCH   1   7
ATOM      7  C   UNL     1       2.593   6.658  19.510  0.00  0.00    +0.000 C 
BRANCH   7   9
ATOM      8 BR   UNL     1       1.876   8.920  17.930  0.00  0.00    +0.000 Br
ATOM      9  C   UNL     1       2.868   7.256  18.138  0.00  0.00    +0.000 C 
ENDBRANCH   7   9
ENDBRANCH   1   7
TORSDOF 2
ENDMDL
MODEL 4
REMARK VINA RESULT:      -4.7      1.008      1.008
REMARK  Name = 
REMARK  2 active torsions:
REMARK  status: ('A' for Active; 'I' for Inactive)
REMARK    1  A    between atoms: C_2  and  C_3
REMARK    2  A    between atoms: C_3  and  C_4
REMARK                            x       y       z     vdW  Elec       q    Type
REMARK                         _______ _______ _______ _____ _____    ______ ____
ROOT
ATOM      1  C   UNL     1       2.255   5.147  18.668  0.00  0.00    +0.000 A 
ATOM      2  C   UNL     1       1.820   4.054  17.904  0.00  0.00    +0.000 A 
ATOM      3  C   UNL     1       1.123   3.004  18.501  0.00  0.00    +0.000 A 
ATOM      4  C   UNL     1       0.865   3.026  19.870  0.00  0.00    +0.000 A 
ATOM      5  C   UNL     1       1.304   4.100  20.643  0.00  0.00    +0.000 A 
ATOM      6  C   UNL     1       1.996   5.155  20.045  0.00  0.00    +0.000 A 
ENDROOT
BRANCH   1   7
ATOM      7  C   UNL     1       3.006   6.288  18.024  0.00  0.00    +0.000 C 
BRANCH   7   9
ATOM      8 BR   UNL     1       5.172   6.250  16.172  0.00  0.00    +0.000 Br
ATOM      9  C   UNL     1       4.508   6.046  17.992  0.00  0.00    +0.000 C 
ENDBRANCH   7   9
ENDBRANCH   1   7
TORSDOF 2
ENDMDL
MODEL 5
REMARK VINA RESULT:      -4.7      1.949      2.107
REMARK  Name = 
REMARK  2 active torsions:
REMARK  status: ('A' for Active; 'I' for Inactive)
REMARK    1  A    between atoms: C_2  and  C_3
REMARK    2  A    between atoms: C_3  and  C_4
REMARK                            x       y       z     vdW  Elec       q    Type
REMARK                         _______ _______ _______ _____ _____    ______ ____
ROOT
ATOM      1  C   UNL     1       2.036   5.160  18.849  0.00  0.00    +0.000 A 
ATOM      2  C   UNL     1       1.643   4.106  18.011  0.00  0.00    +0.000 A 
ATOM      3  C   UNL     1       1.085   2.944  18.545  0.00  0.00    +0.000 A 
ATOM      4  C   UNL     1       0.926   2.815  19.923  0.00  0.00    +0.000 A 
ATOM      5  C   UNL     1       1.325   3.850  20.768  0.00  0.00    +0.000 A 
ATOM      6  C   UNL     1       1.877   5.016  20.234  0.00  0.00    +0.000 A 
ENDROOT
BRANCH   1   7
ATOM      7  C   UNL     1       2.636   6.420  18.273  0.00  0.00    +0.000 C 
BRANCH   7   9
ATOM      8 BR   UNL     1       1.721   9.097  17.922  0.00  0.00    +0.000 Br
ATOM      9  C   UNL     1       2.292   7.652  19.097  0.00  0.00    +0.000 C 
ENDBRANCH   7   9
ENDBRANCH   1   7
TORSDOF 2
ENDMDL
MODEL 6
REMARK VINA RESULT:      -4.6      1.063      1.885
REMARK  Name = 
REMARK  2 active torsions:
REMARK  status: ('A' for Active; 'I' for Inactive)
REMARK    1  A    between atoms: C_2  and  C_3
REMARK    2  A    between atoms: C_3  and  C_4
REMARK                            x       y       z     vdW  Elec       q    Type
REMARK                         _______ _______ _______ _____ _____    ______ ____
ROOT
ATOM      1  C   UNL     1       2.124   4.827  19.009  0.00  0.00    +0.000 A 
ATOM      2  C   UNL     1       2.468   4.935  20.364  0.00  0.00    +0.000 A 
ATOM      3  C   UNL     1       2.045   3.975  21.283  0.00  0.00    +0.000 A 
ATOM      4  C   UNL     1       1.262   2.902  20.862  0.00  0.00    +0.000 A 
ATOM      5  C   UNL     1       0.902   2.790  19.520  0.00  0.00    +0.000 A 
ATOM      6  C   UNL     1       1.331   3.747  18.598  0.00  0.00    +0.000 A 
ENDROOT
BRANCH   1   7
ATOM      7  C   UNL     1       2.584   5.862  18.011  0.00  0.00    +0.000 C 
BRANCH   7   9
ATOM      8 BR   UNL     1       4.652   4.322  16.797  0.00  0.00    +0.000 Br
ATOM      9  C   UNL     1       4.096   5.869  17.842  0.00  0.00    +0.000 C 
ENDBRANCH   7   9
ENDBRANCH   1   7
TORSDOF 2
ENDMDL
MODEL 7
REMARK VINA RESULT:      -4.6      1.870      3.739
REMARK  Name = 
REMARK  2 active torsions:
REMARK  status: ('A' for Active; 'I' for Inactive)
REMARK    1  A    between atoms: C_2  and  C_3
REMARK    2  A    between atoms: C_3  and  C_4
REMARK                            x       y       z     vdW  Elec       q    Type
REMARK                         _______ _______ _______ _____ _____    ______ ____
ROOT
ATOM      1  C   UNL     1       2.310   3.965  18.140  0.00  0.00    +0.000 A 
ATOM      2  C   UNL     1       3.266   3.328  17.334  0.00  0.00    +0.000 A 
ATOM      3  C   UNL     1       4.322   4.051  16.780  0.00  0.00    +0.000 A 
ATOM      4  C   UNL     1       4.430   5.421  17.013  0.00  0.00    +0.000 A 
ATOM      5  C   UNL     1       3.479   6.068  17.801  0.00  0.00    +0.000 A 
ATOM      6  C   UNL     1       2.425   5.344  18.362  0.00  0.00    +0.000 A 
ENDROOT
BRANCH   1   7
ATOM      7  C   UNL     1       1.168   3.184  18.745  0.00  0.00    +0.000 C 
BRANCH   7   9
ATOM      8 BR   UNL     1       2.160   2.930  21.405  0.00  0.00    +0.000 Br
ATOM      9  C   UNL     1       0.841   3.641  20.159  0.00  0.00    +0.000 C 
ENDBRANCH   7   9
ENDBRANCH   1   7
TORSDOF 2
ENDMDL
MODEL 8
REMARK VINA RESULT:      -4.6      1.869      3.976
REMARK  Name = 
REMARK  2 active torsions:
REMARK  status: ('A' for Active; 'I' for Inactive)
REMARK    1  A    between atoms: C_2  and  C_3
REMARK    2  A    between atoms: C_3  and  C_4
REMARK                            x       y       z     vdW  Elec       q    Type
REMARK                         _______ _______ _______ _____ _____    ______ ____
ROOT
ATOM      1  C   UNL     1       2.278   3.947  18.148  0.00  0.00    +0.000 A 
ATOM      2  C   UNL     1       2.408   5.326  18.368  0.00  0.00    +0.000 A 
ATOM      3  C   UNL     1       3.464   6.039  17.801  0.00  0.00    +0.000 A 
ATOM      4  C   UNL     1       4.412   5.381  17.019  0.00  0.00    +0.000 A 
ATOM      5  C   UNL     1       4.302   4.008  16.804  0.00  0.00    +0.000 A 
ATOM      6  C   UNL     1       3.241   3.294  17.366  0.00  0.00    +0.000 A 
ENDROOT
BRANCH   1   7
ATOM      7  C   UNL     1       1.134   3.173  18.757  0.00  0.00    +0.000 C 
BRANCH   7   9
ATOM      8 BR   UNL     1       2.186   2.904  21.392  0.00  0.00    +0.000 Br
ATOM      9  C   UNL     1       0.833   3.612  20.182  0.00  0.00    +0.000 C 
ENDBRANCH   7   9
ENDBRANCH   1   7
TORSDOF 2
ENDMDL
MODEL 9
REMARK VINA RESULT:      -4.5      1.478      2.173
REMARK  Name = 
REMARK  2 active torsions:
REMARK  status: ('A' for Active; 'I' for Inactive)
REMARK    1  A    between atoms: C_2  and  C_3
REMARK    2  A    between atoms: C_3  and  C_4
REMARK                            x       y       z     vdW  Elec       q    Type
REMARK                         _______ _______ _______ _____ _____    ______ ____
ROOT
ATOM      1  C   UNL     1       2.642   4.536  18.440  0.00  0.00    +0.000 A 
ATOM      2  C   UNL     1       2.356   5.091  19.696  0.00  0.00    +0.000 A 
ATOM      3  C   UNL     1       1.417   4.495  20.538  0.00  0.00    +0.000 A 
ATOM      4  C   UNL     1       0.742   3.346  20.130  0.00  0.00    +0.000 A 
ATOM      5  C   UNL     1       1.007   2.793  18.878  0.00  0.00    +0.000 A 
ATOM      6  C   UNL     1       1.952   3.384  18.037  0.00  0.00    +0.000 A 
ENDROOT
BRANCH   1   7
ATOM      7  C   UNL     1       3.662   5.176  17.528  0.00  0.00    +0.000 C 
BRANCH   7   9
ATOM      8 BR   UNL     1       5.511   4.846  15.384  0.00  0.00    +0.000 Br
ATOM      9  C   UNL     1       4.689   4.176  17.019  0.00  0.00    +0.000 C 
ENDBRANCH   7   9
ENDBRANCH   1   7
TORSDOF 2
ENDMDL
