MODEL 1
REMARK VINA RESULT:      -8.7      0.000      0.000
REMARK  Name = 
REMARK  13 active torsions:
REMARK  status: ('A' for Active; 'I' for Inactive)
REMARK    1  A    between atoms: C_1  and  C_2
REMARK    2  A    between atoms: C_2  and  C_3
REMARK    3  A    between atoms: C_3  and  C_4
REMARK    4  A    between atoms: C_3  and  O_6
REMARK    5  A    between atoms: C_4  and  C_5
REMARK    6  A    between atoms: O_6  and  C_7
REMARK    7  A    between atoms: C_9  and  C_10
REMARK    8  A    between atoms: C_10  and  O_12
REMARK    9  A    between atoms: C_14  and  N_15
REMARK   10  A    between atoms: C_19  and  C_21
REMARK   11  A    between atoms: C_26  and  C_27
REMARK   12  A    between atoms: C_31  and  N_32
REMARK   13  A    between atoms: C_33  and  C_34
REMARK                            x       y       z     vdW  Elec       q    Type
REMARK                         _______ _______ _______ _____ _____    ______ ____
ROOT
ATOM      1  C   UNL     1       4.296   3.934  18.073  0.00  0.00    +0.000 C 
ATOM      2  C   UNL     1       5.460   4.306  18.976  0.00  0.00    +0.000 C 
ATOM      3  C   UNL     1       6.227   5.406  18.810  0.00  0.00    +0.000 C 
ATOM      4  C   UNL     1       5.926   6.443  17.742  0.00  0.00    +0.000 C 
ATOM      5  C   UNL     1       4.510   6.321  17.185  0.00  0.00    +0.000 C 
ATOM      6  C   UNL     1       4.263   4.827  16.793  0.00  0.00    +0.000 C 
ENDROOT
BRANCH   5   7
ATOM      7  N   UNL     1       3.423   6.854  18.035  0.00  0.00    +0.000 N 
ATOM      8  C   UNL     1       2.711   8.023  17.998  0.00  0.00    +0.000 C 
ATOM      9  N   UNL     1       2.561   8.834  17.028  0.00  0.00    +0.000 NA
ATOM     10  N   UNL     1       2.063   8.355  19.165  0.00  0.00    +0.000 N 
ATOM     11  C   UNL     1       1.023   9.285  19.293  0.00  0.00    +0.000 C 
ATOM     12  O   UNL     1       0.284   9.657  18.387  0.00  0.00    +0.000 OA
ATOM     13  H   UNL     1       3.121   6.193  18.742  0.00  0.00    +0.000 HD
ATOM     14  H   UNL     1       2.935   8.510  16.154  0.00  0.00    +0.000 HD
ATOM     15  H   UNL     1       2.460   7.949  19.993  0.00  0.00    +0.000 HD
BRANCH  11  16
ATOM     16  C   UNL     1       0.601   9.686  20.669  0.00  0.00    +0.000 A 
ATOM     17  C   UNL     1       0.162   8.685  21.559  0.00  0.00    +0.000 A 
ATOM     18  C   UNL     1      -0.475   9.016  22.756  0.00  0.00    +0.000 A 
ATOM     19  C   UNL     1      -0.692  10.346  23.082  0.00  0.00    +0.000 A 
ATOM     20  C   UNL     1      -0.234  11.348  22.231  0.00  0.00    +0.000 A 
ATOM     21  C   UNL     1       0.435  11.043  21.022  0.00  0.00    +0.000 A 
BRANCH  21  22
ATOM     22  C   UNL     1       0.879  12.239  20.201  0.00  0.00    +0.000 C 
ATOM     23  F   UNL     1       1.007  13.428  20.835  0.00  0.00    +0.000 F 
ATOM     24  F   UNL     1       2.045  12.004  19.534  0.00  0.00    +0.000 F 
ATOM     25  F   UNL     1      -0.036  12.495  19.209  0.00  0.00    +0.000 F 
ENDBRANCH  21  22
ENDBRANCH  11  16
ENDBRANCH   5   7
BRANCH   6  26
ATOM     26  N   UNL     1       5.241   4.309  15.800  0.00  0.00    +0.000 N 
ATOM     27  C   UNL     1       5.692   5.047  14.737  0.00  0.00    +0.000 C 
ATOM     28  C   UNL     1       6.672   4.331  13.842  0.00  0.00    +0.000 C 
ATOM     29  O   UNL     1       5.319   6.201  14.520  0.00  0.00    +0.000 OA
ATOM     30  H   UNL     1       5.524   3.336  15.861  0.00  0.00    +0.000 HD
ENDBRANCH   6  26
BRANCH   3  31
ATOM     31  C   UNL     1       7.426   5.740  19.625  0.00  0.00    +0.000 C 
ATOM     32  O   UNL     1       7.667   5.178  20.680  0.00  0.00    +0.000 OA
BRANCH  31  33
ATOM     33  O   UNL     1       8.203   6.712  19.123  0.00  0.00    +0.000 OA
ATOM     34  H   UNL     1       9.026   6.383  18.717  0.00  0.00    +0.000 HD
ENDBRANCH  31  33
ENDBRANCH   3  31
BRANCH   1  35
ATOM     35  O   UNL     1       3.090   3.925  18.856  0.00  0.00    +0.000 OA
BRANCH  35  36
ATOM     36  C   UNL     1       2.959   2.876  19.832  0.00  0.00    +0.000 C 
BRANCH  36  38
ATOM     37  C   UNL     1       2.113   4.867  21.197  0.00  0.00    +0.000 C 
ATOM     38  C   UNL     1       2.506   3.396  21.209  0.00  0.00    +0.000 C 
ENDBRANCH  36  38
BRANCH  36  39
ATOM     39  C   UNL     1       2.043   1.772  19.269  0.00  0.00    +0.000 C 
ATOM     40  C   UNL     1       0.739   2.248  18.652  0.00  0.00    +0.000 C 
ENDBRANCH  36  39
ENDBRANCH  35  36
ENDBRANCH   1  35
TORSDOF 10
ENDMDL
MODEL 2
REMARK VINA RESULT:      -8.6      4.017      9.018
REMARK  Name = 
REMARK  13 active torsions:
REMARK  status: ('A' for Active; 'I' for Inactive)
REMARK    1  A    between atoms: C_1  and  C_2
REMARK    2  A    between atoms: C_2  and  C_3
REMARK    3  A    between atoms: C_3  and  C_4
REMARK    4  A    between atoms: C_3  and  O_6
REMARK    5  A    between atoms: C_4  and  C_5
REMARK    6  A    between atoms: O_6  and  C_7
REMARK    7  A    between atoms: C_9  and  C_10
REMARK    8  A    between atoms: C_10  and  O_12
REMARK    9  A    between atoms: C_14  and  N_15
REMARK   10  A    between atoms: C_19  and  C_21
REMARK   11  A    between atoms: C_26  and  C_27
REMARK   12  A    between atoms: C_31  and  N_32
REMARK   13  A    between atoms: C_33  and  C_34
REMARK                            x       y       z     vdW  Elec       q    Type
REMARK                         _______ _______ _______ _____ _____    ______ ____
ROOT
ATOM      1  C   UNL     1      -1.301  11.186  18.798  0.00  0.00    +0.000 C 
ATOM      2  C   UNL     1      -0.291  12.183  18.253  0.00  0.00    +0.000 C 
ATOM      3  C   UNL     1       0.820  12.575  18.913  0.00  0.00    +0.000 C 
ATOM      4  C   UNL     1       1.221  11.967  20.245  0.00  0.00    +0.000 C 
ATOM      5  C   UNL     1       0.497  10.654  20.535  0.00  0.00    +0.000 C 
ATOM      6  C   UNL     1      -1.034  10.876  20.304  0.00  0.00    +0.000 C 
ENDROOT
BRANCH   5   7
ATOM      7  N   UNL     1       0.993   9.459  19.819  0.00  0.00    +0.000 N 
ATOM      8  C   UNL     1       1.629   8.325  20.248  0.00  0.00    +0.000 C 
ATOM      9  N   UNL     1       1.678   7.833  21.421  0.00  0.00    +0.000 NA
ATOM     10  N   UNL     1       2.293   7.617  19.271  0.00  0.00    +0.000 N 
ATOM     11  C   UNL     1       2.722   6.287  19.367  0.00  0.00    +0.000 C 
ATOM     12  O   UNL     1       2.266   5.445  20.133  0.00  0.00    +0.000 OA
ATOM     13  H   UNL     1       0.763   9.472  18.831  0.00  0.00    +0.000 HD
ATOM     14  H   UNL     1       1.086   8.294  22.088  0.00  0.00    +0.000 HD
ATOM     15  H   UNL     1       2.563   8.162  18.472  0.00  0.00    +0.000 HD
BRANCH  11  16
ATOM     16  C   UNL     1       3.628   5.760  18.302  0.00  0.00    +0.000 A 
ATOM     17  C   UNL     1       4.680   6.580  17.844  0.00  0.00    +0.000 A 
ATOM     18  C   UNL     1       5.397   6.254  16.693  0.00  0.00    +0.000 A 
ATOM     19  C   UNL     1       5.075   5.111  15.975  0.00  0.00    +0.000 A 
ATOM     20  C   UNL     1       4.064   4.273  16.433  0.00  0.00    +0.000 A 
ATOM     21  C   UNL     1       3.335   4.566  17.610  0.00  0.00    +0.000 A 
BRANCH  21  22
ATOM     22  C   UNL     1       2.265   3.557  17.985  0.00  0.00    +0.000 C 
ATOM     23  F   UNL     1       2.331   2.995  19.214  0.00  0.00    +0.000 F 
ATOM     24  F   UNL     1       1.006   4.058  17.831  0.00  0.00    +0.000 F 
ATOM     25  F   UNL     1       2.312   2.482  17.131  0.00  0.00    +0.000 F 
ENDBRANCH  21  22
ENDBRANCH  11  16
ENDBRANCH   5   7
BRANCH   6  26
ATOM     26  N   UNL     1      -1.605  11.963  21.143  0.00  0.00    +0.000 N 
ATOM     27  C   UNL     1      -1.780  11.849  22.498  0.00  0.00    +0.000 C 
ATOM     28  C   UNL     1      -2.386  13.062  23.160  0.00  0.00    +0.000 C 
ATOM     29  O   UNL     1      -1.478  10.834  23.127  0.00  0.00    +0.000 OA
ATOM     30  H   UNL     1      -1.961  12.795  20.684  0.00  0.00    +0.000 HD
ENDBRANCH   6  26
BRANCH   3  31
ATOM     31  C   UNL     1       1.771  13.616  18.438  0.00  0.00    +0.000 C 
ATOM     32  O   UNL     1       1.908  14.680  19.018  0.00  0.00    +0.000 OA
BRANCH  31  33
ATOM     33  O   UNL     1       2.445  13.304  17.320  0.00  0.00    +0.000 OA
ATOM     34  H   UNL     1       1.904  12.842  16.654  0.00  0.00    +0.000 HD
ENDBRANCH  31  33
ENDBRANCH   3  31
BRANCH   1  35
ATOM     35  O   UNL     1      -1.337  10.044  17.925  0.00  0.00    +0.000 OA
BRANCH  35  36
ATOM     36  C   UNL     1      -2.538   9.854  17.155  0.00  0.00    +0.000 C 
BRANCH  36  38
ATOM     37  C   UNL     1      -4.567  11.350  17.587  0.00  0.00    +0.000 C 
ATOM     38  C   UNL     1      -3.818  10.086  17.980  0.00  0.00    +0.000 C 
ENDBRANCH  36  38
BRANCH  36  39
ATOM     39  C   UNL     1      -2.469  10.724  15.885  0.00  0.00    +0.000 C 
ATOM     40  C   UNL     1      -3.015  10.086  14.619  0.00  0.00    +0.000 C 
ENDBRANCH  36  39
ENDBRANCH  35  36
ENDBRANCH   1  35
TORSDOF 10
ENDMDL
MODEL 3
REMARK VINA RESULT:      -8.4      4.088      9.044
REMARK  Name = 
REMARK  13 active torsions:
REMARK  status: ('A' for Active; 'I' for Inactive)
REMARK    1  A    between atoms: C_1  and  C_2
REMARK    2  A    between atoms: C_2  and  C_3
REMARK    3  A    between atoms: C_3  and  C_4
REMARK    4  A    between atoms: C_3  and  O_6
REMARK    5  A    between atoms: C_4  and  C_5
REMARK    6  A    between atoms: O_6  and  C_7
REMARK    7  A    between atoms: C_9  and  C_10
REMARK    8  A    between atoms: C_10  and  O_12
REMARK    9  A    between atoms: C_14  and  N_15
REMARK   10  A    between atoms: C_19  and  C_21
REMARK   11  A    between atoms: C_26  and  C_27
REMARK   12  A    between atoms: C_31  and  N_32
REMARK   13  A    between atoms: C_33  and  C_34
REMARK                            x       y       z     vdW  Elec       q    Type
REMARK                         _______ _______ _______ _____ _____    ______ ____
ROOT
ATOM      1  C   UNL     1      -1.388  11.309  19.193  0.00  0.00    +0.000 C 
ATOM      2  C   UNL     1      -0.343  12.105  18.429  0.00  0.00    +0.000 C 
ATOM      3  C   UNL     1       0.861  12.456  18.933  0.00  0.00    +0.000 C 
ATOM      4  C   UNL     1       1.326  11.990  20.302  0.00  0.00    +0.000 C 
ATOM      5  C   UNL     1       0.508  10.817  20.835  0.00  0.00    +0.000 C 
ATOM      6  C   UNL     1      -1.009  11.175  20.700  0.00  0.00    +0.000 C 
ENDROOT
BRANCH   5   7
ATOM      7  N   UNL     1       0.812   9.489  20.259  0.00  0.00    +0.000 N 
ATOM      8  C   UNL     1       1.451   8.388  20.764  0.00  0.00    +0.000 C 
ATOM      9  N   UNL     1       1.673   8.084  21.980  0.00  0.00    +0.000 NA
ATOM     10  N   UNL     1       1.901   7.487  19.827  0.00  0.00    +0.000 N 
ATOM     11  C   UNL     1       2.270   6.158  20.074  0.00  0.00    +0.000 C 
ATOM     12  O   UNL     1       1.907   5.485  21.033  0.00  0.00    +0.000 OA
ATOM     13  H   UNL     1       0.419   9.366  19.332  0.00  0.00    +0.000 HD
ATOM     14  H   UNL     1       1.227   8.688  22.647  0.00  0.00    +0.000 HD
ATOM     15  H   UNL     1       2.061   7.877  18.916  0.00  0.00    +0.000 HD
BRANCH  11  16
ATOM     16  C   UNL     1       2.954   5.401  18.982  0.00  0.00    +0.000 A 
ATOM     17  C   UNL     1       3.965   6.049  18.242  0.00  0.00    +0.000 A 
ATOM     18  C   UNL     1       4.461   5.493  17.063  0.00  0.00    +0.000 A 
ATOM     19  C   UNL     1       3.954   4.289  16.596  0.00  0.00    +0.000 A 
ATOM     20  C   UNL     1       2.981   3.620  17.332  0.00  0.00    +0.000 A 
ATOM     21  C   UNL     1       2.476   4.148  18.544  0.00  0.00    +0.000 A 
BRANCH  21  22
ATOM     22  C   UNL     1       1.421   3.303  19.235  0.00  0.00    +0.000 C 
ATOM     23  F   UNL     1       0.311   3.929  19.691  0.00  0.00    +0.000 F 
ATOM     24  F   UNL     1       1.013   2.255  18.465  0.00  0.00    +0.000 F 
ATOM     25  F   UNL     1       1.951   2.716  20.359  0.00  0.00    +0.000 F 
ENDBRANCH  21  22
ENDBRANCH  11  16
ENDBRANCH   5   7
BRANCH   6  26
ATOM     26  N   UNL     1      -1.386  12.420  21.420  0.00  0.00    +0.000 N 
ATOM     27  C   UNL     1      -1.884  12.426  22.698  0.00  0.00    +0.000 C 
ATOM     28  C   UNL     1      -2.215  13.794  23.240  0.00  0.00    +0.000 C 
ATOM     29  O   UNL     1      -2.059  11.396  23.350  0.00  0.00    +0.000 OA
ATOM     30  H   UNL     1      -1.356  13.300  20.915  0.00  0.00    +0.000 HD
ENDBRANCH   6  26
BRANCH   3  31
ATOM     31  C   UNL     1       1.859  13.312  18.238  0.00  0.00    +0.000 C 
ATOM     32  O   UNL     1       1.984  14.497  18.494  0.00  0.00    +0.000 OA
BRANCH  31  33
ATOM     33  O   UNL     1       2.592  12.687  17.303  0.00  0.00    +0.000 OA
ATOM     34  H   UNL     1       2.654  11.723  17.435  0.00  0.00    +0.000 HD
ENDBRANCH  31  33
ENDBRANCH   3  31
BRANCH   1  35
ATOM     35  O   UNL     1      -1.621  10.071  18.498  0.00  0.00    +0.000 OA
BRANCH  35  36
ATOM     36  C   UNL     1      -2.825   9.985  17.714  0.00  0.00    +0.000 C 
BRANCH  36  38
ATOM     37  C   UNL     1      -5.180  10.873  18.167  0.00  0.00    +0.000 C 
ATOM     38  C   UNL     1      -3.729  11.222  17.871  0.00  0.00    +0.000 C 
ENDBRANCH  36  38
BRANCH  36  39
ATOM     39  C   UNL     1      -2.454   9.686  16.248  0.00  0.00    +0.000 C 
ATOM     40  C   UNL     1      -2.988  10.669  15.220  0.00  0.00    +0.000 C 
ENDBRANCH  36  39
ENDBRANCH  35  36
ENDBRANCH   1  35
TORSDOF 10
ENDMDL
MODEL 4
REMARK VINA RESULT:      -8.3      0.603      1.333
REMARK  Name = 
REMARK  13 active torsions:
REMARK  status: ('A' for Active; 'I' for Inactive)
REMARK    1  A    between atoms: C_1  and  C_2
REMARK    2  A    between atoms: C_2  and  C_3
REMARK    3  A    between atoms: C_3  and  C_4
REMARK    4  A    between atoms: C_3  and  O_6
REMARK    5  A    between atoms: C_4  and  C_5
REMARK    6  A    between atoms: O_6  and  C_7
REMARK    7  A    between atoms: C_9  and  C_10
REMARK    8  A    between atoms: C_10  and  O_12
REMARK    9  A    between atoms: C_14  and  N_15
REMARK   10  A    between atoms: C_19  and  C_21
REMARK   11  A    between atoms: C_26  and  C_27
REMARK   12  A    between atoms: C_31  and  N_32
REMARK   13  A    between atoms: C_33  and  C_34
REMARK                            x       y       z     vdW  Elec       q    Type
REMARK                         _______ _______ _______ _____ _____    ______ ____
ROOT
ATOM      1  C   UNL     1       4.400   4.024  18.065  0.00  0.00    +0.000 C 
ATOM      2  C   UNL     1       5.558   4.396  18.977  0.00  0.00    +0.000 C 
ATOM      3  C   UNL     1       6.314   5.506  18.829  0.00  0.00    +0.000 C 
ATOM      4  C   UNL     1       6.005   6.554  17.775  0.00  0.00    +0.000 C 
ATOM      5  C   UNL     1       4.592   6.426  17.212  0.00  0.00    +0.000 C 
ATOM      6  C   UNL     1       4.362   4.935  16.799  0.00  0.00    +0.000 C 
ENDROOT
BRANCH   5   7
ATOM      7  N   UNL     1       3.496   6.935  18.066  0.00  0.00    +0.000 N 
ATOM      8  C   UNL     1       2.745   8.078  18.018  0.00  0.00    +0.000 C 
ATOM      9  N   UNL     1       2.556   8.867  17.037  0.00  0.00    +0.000 NA
ATOM     10  N   UNL     1       2.098   8.407  19.187  0.00  0.00    +0.000 N 
ATOM     11  C   UNL     1       1.028   9.303  19.313  0.00  0.00    +0.000 C 
ATOM     12  O   UNL     1       0.267   9.634  18.409  0.00  0.00    +0.000 OA
ATOM     13  H   UNL     1       3.225   6.275  18.787  0.00  0.00    +0.000 HD
ATOM     14  H   UNL     1       2.932   8.542  16.165  0.00  0.00    +0.000 HD
ATOM     15  H   UNL     1       2.518   8.029  20.017  0.00  0.00    +0.000 HD
BRANCH  11  16
ATOM     16  C   UNL     1       0.608   9.712  20.686  0.00  0.00    +0.000 A 
ATOM     17  C   UNL     1       0.196   8.713  21.592  0.00  0.00    +0.000 A 
ATOM     18  C   UNL     1      -0.438   9.044  22.790  0.00  0.00    +0.000 A 
ATOM     19  C   UNL     1      -0.681  10.374  23.101  0.00  0.00    +0.000 A 
ATOM     20  C   UNL     1      -0.251  11.374  22.235  0.00  0.00    +0.000 A 
ATOM     21  C   UNL     1       0.416  11.068  21.025  0.00  0.00    +0.000 A 
BRANCH  21  22
ATOM     22  C   UNL     1       0.829  12.264  20.186  0.00  0.00    +0.000 C 
ATOM     23  F   UNL     1       2.057  12.243  19.617  0.00  0.00    +0.000 F 
ATOM     24  F   UNL     1      -0.073  12.539  19.200  0.00  0.00    +0.000 F 
ATOM     25  F   UNL     1       0.846  13.399  20.959  0.00  0.00    +0.000 F 
ENDBRANCH  21  22
ENDBRANCH  11  16
ENDBRANCH   5   7
BRANCH   6  26
ATOM     26  N   UNL     1       5.348   4.441  15.801  0.00  0.00    +0.000 N 
ATOM     27  C   UNL     1       5.745   5.174  14.713  0.00  0.00    +0.000 C 
ATOM     28  C   UNL     1       6.745   4.486  13.818  0.00  0.00    +0.000 C 
ATOM     29  O   UNL     1       5.311   6.303  14.475  0.00  0.00    +0.000 OA
ATOM     30  H   UNL     1       5.681   3.486  15.880  0.00  0.00    +0.000 HD
ENDBRANCH   6  26
BRANCH   3  31
ATOM     31  C   UNL     1       7.506   5.841  19.653  0.00  0.00    +0.000 C 
ATOM     32  O   UNL     1       7.734   5.288  20.716  0.00  0.00    +0.000 OA
BRANCH  31  33
ATOM     33  O   UNL     1       8.294   6.804  19.149  0.00  0.00    +0.000 OA
ATOM     34  H   UNL     1       7.945   7.206  18.333  0.00  0.00    +0.000 HD
ENDBRANCH  31  33
ENDBRANCH   3  31
BRANCH   1  35
ATOM     35  O   UNL     1       3.192   3.992  18.844  0.00  0.00    +0.000 OA
BRANCH  35  36
ATOM     36  C   UNL     1       2.238   2.964  18.519  0.00  0.00    +0.000 C 
BRANCH  36  38
ATOM     37  C   UNL     1       3.782   0.944  18.803  0.00  0.00    +0.000 C 
ATOM     38  C   UNL     1       2.889   1.735  17.858  0.00  0.00    +0.000 C 
ENDBRANCH  36  38
BRANCH  36  39
ATOM     39  C   UNL     1       1.421   2.615  19.778  0.00  0.00    +0.000 C 
ATOM     40  C   UNL     1       1.122   3.776  20.712  0.00  0.00    +0.000 C 
ENDBRANCH  36  39
ENDBRANCH  35  36
ENDBRANCH   1  35
TORSDOF 10
ENDMDL
MODEL 5
REMARK VINA RESULT:      -8.2      0.592      1.059
REMARK  Name = 
REMARK  13 active torsions:
REMARK  status: ('A' for Active; 'I' for Inactive)
REMARK    1  A    between atoms: C_1  and  C_2
REMARK    2  A    between atoms: C_2  and  C_3
REMARK    3  A    between atoms: C_3  and  C_4
REMARK    4  A    between atoms: C_3  and  O_6
REMARK    5  A    between atoms: C_4  and  C_5
REMARK    6  A    between atoms: O_6  and  C_7
REMARK    7  A    between atoms: C_9  and  C_10
REMARK    8  A    between atoms: C_10  and  O_12
REMARK    9  A    between atoms: C_14  and  N_15
REMARK   10  A    between atoms: C_19  and  C_21
REMARK   11  A    between atoms: C_26  and  C_27
REMARK   12  A    between atoms: C_31  and  N_32
REMARK   13  A    between atoms: C_33  and  C_34
REMARK                            x       y       z     vdW  Elec       q    Type
REMARK                         _______ _______ _______ _____ _____    ______ ____
ROOT
ATOM      1  C   UNL     1       4.315   3.986  18.145  0.00  0.00    +0.000 C 
ATOM      2  C   UNL     1       5.490   4.390  19.021  0.00  0.00    +0.000 C 
ATOM      3  C   UNL     1       6.242   5.494  18.820  0.00  0.00    +0.000 C 
ATOM      4  C   UNL     1       5.912   6.505  17.735  0.00  0.00    +0.000 C 
ATOM      5  C   UNL     1       4.489   6.356  17.204  0.00  0.00    +0.000 C 
ATOM      6  C   UNL     1       4.251   4.852  16.848  0.00  0.00    +0.000 C 
ENDROOT
BRANCH   5   7
ATOM      7  N   UNL     1       3.409   6.895  18.061  0.00  0.00    +0.000 N 
ATOM      8  C   UNL     1       2.694   8.062  18.018  0.00  0.00    +0.000 C 
ATOM      9  N   UNL     1       2.530   8.861  17.041  0.00  0.00    +0.000 NA
ATOM     10  N   UNL     1       2.058   8.405  19.190  0.00  0.00    +0.000 N 
ATOM     11  C   UNL     1       1.016   9.334  19.319  0.00  0.00    +0.000 C 
ATOM     12  O   UNL     1       0.266   9.692  18.417  0.00  0.00    +0.000 OA
ATOM     13  H   UNL     1       3.118   6.241  18.779  0.00  0.00    +0.000 HD
ATOM     14  H   UNL     1       2.895   8.528  16.167  0.00  0.00    +0.000 HD
ATOM     15  H   UNL     1       2.466   8.010  20.017  0.00  0.00    +0.000 HD
BRANCH  11  16
ATOM     16  C   UNL     1       0.609   9.749  20.695  0.00  0.00    +0.000 A 
ATOM     17  C   UNL     1       0.165   8.759  21.596  0.00  0.00    +0.000 A 
ATOM     18  C   UNL     1      -0.458   9.105  22.795  0.00  0.00    +0.000 A 
ATOM     19  C   UNL     1      -0.658  10.440  23.113  0.00  0.00    +0.000 A 
ATOM     20  C   UNL     1      -0.195  11.430  22.252  0.00  0.00    +0.000 A 
ATOM     21  C   UNL     1       0.462  11.109  21.040  0.00  0.00    +0.000 A 
BRANCH  21  22
ATOM     22  C   UNL     1       0.913  12.295  20.207  0.00  0.00    +0.000 C 
ATOM     23  F   UNL     1       2.030  12.150  19.456  0.00  0.00    +0.000 F 
ATOM     24  F   UNL     1      -0.074  12.756  19.388  0.00  0.00    +0.000 F 
ATOM     25  F   UNL     1       1.205  13.361  21.024  0.00  0.00    +0.000 F 
ENDBRANCH  21  22
ENDBRANCH  11  16
ENDBRANCH   5   7
BRANCH   6  26
ATOM     26  N   UNL     1       5.219   4.323  15.850  0.00  0.00    +0.000 N 
ATOM     27  C   UNL     1       5.656   5.049  14.773  0.00  0.00    +0.000 C 
ATOM     28  C   UNL     1       6.627   4.323  13.875  0.00  0.00    +0.000 C 
ATOM     29  O   UNL     1       5.278   6.199  14.546  0.00  0.00    +0.000 OA
ATOM     30  H   UNL     1       5.505   3.352  15.920  0.00  0.00    +0.000 HD
ENDBRANCH   6  26
BRANCH   3  31
ATOM     31  C   UNL     1       7.450   5.858  19.608  0.00  0.00    +0.000 C 
ATOM     32  O   UNL     1       7.703   5.336  20.680  0.00  0.00    +0.000 OA
BRANCH  31  33
ATOM     33  O   UNL     1       8.221   6.810  19.060  0.00  0.00    +0.000 OA
ATOM     34  H   UNL     1       8.024   7.707  19.386  0.00  0.00    +0.000 HD
ENDBRANCH  31  33
ENDBRANCH   3  31
BRANCH   1  35
ATOM     35  O   UNL     1       3.122   3.981  18.949  0.00  0.00    +0.000 OA
BRANCH  35  36
ATOM     36  C   UNL     1       2.718   2.716  19.502  0.00  0.00    +0.000 C 
BRANCH  36  38
ATOM     37  C   UNL     1       1.325   2.708  21.646  0.00  0.00    +0.000 C 
ATOM     38  C   UNL     1       1.311   2.760  20.126  0.00  0.00    +0.000 C 
ENDBRANCH  36  38
BRANCH  36  39
ATOM     39  C   UNL     1       2.874   1.621  18.429  0.00  0.00    +0.000 C 
ATOM     40  C   UNL     1       4.133   0.777  18.527  0.00  0.00    +0.000 C 
ENDBRANCH  36  39
ENDBRANCH  35  36
ENDBRANCH   1  35
TORSDOF 10
ENDMDL
MODEL 6
REMARK VINA RESULT:      -8.2      0.730      1.157
REMARK  Name = 
REMARK  13 active torsions:
REMARK  status: ('A' for Active; 'I' for Inactive)
REMARK    1  A    between atoms: C_1  and  C_2
REMARK    2  A    between atoms: C_2  and  C_3
REMARK    3  A    between atoms: C_3  and  C_4
REMARK    4  A    between atoms: C_3  and  O_6
REMARK    5  A    between atoms: C_4  and  C_5
REMARK    6  A    between atoms: O_6  and  C_7
REMARK    7  A    between atoms: C_9  and  C_10
REMARK    8  A    between atoms: C_10  and  O_12
REMARK    9  A    between atoms: C_14  and  N_15
REMARK   10  A    between atoms: C_19  and  C_21
REMARK   11  A    between atoms: C_26  and  C_27
REMARK   12  A    between atoms: C_31  and  N_32
REMARK   13  A    between atoms: C_33  and  C_34
REMARK                            x       y       z     vdW  Elec       q    Type
REMARK                         _______ _______ _______ _____ _____    ______ ____
ROOT
ATOM      1  C   UNL     1       4.350   3.902  18.084  0.00  0.00    +0.000 C 
ATOM      2  C   UNL     1       5.523   4.337  18.948  0.00  0.00    +0.000 C 
ATOM      3  C   UNL     1       6.259   5.448  18.724  0.00  0.00    +0.000 C 
ATOM      4  C   UNL     1       5.912   6.434  17.622  0.00  0.00    +0.000 C 
ATOM      5  C   UNL     1       4.489   6.257  17.099  0.00  0.00    +0.000 C 
ATOM      6  C   UNL     1       4.271   4.743  16.772  0.00  0.00    +0.000 C 
ENDROOT
BRANCH   5   7
ATOM      7  N   UNL     1       3.405   6.797  17.950  0.00  0.00    +0.000 N 
ATOM      8  C   UNL     1       2.741   7.994  17.949  0.00  0.00    +0.000 C 
ATOM      9  N   UNL     1       2.644   8.850  17.013  0.00  0.00    +0.000 NA
ATOM     10  N   UNL     1       2.082   8.302  19.117  0.00  0.00    +0.000 N 
ATOM     11  C   UNL     1       1.077   9.268  19.265  0.00  0.00    +0.000 C 
ATOM     12  O   UNL     1       0.373   9.706  18.361  0.00  0.00    +0.000 OA
ATOM     13  H   UNL     1       3.063   6.119  18.622  0.00  0.00    +0.000 HD
ATOM     14  H   UNL     1       3.024   8.549  16.133  0.00  0.00    +0.000 HD
ATOM     15  H   UNL     1       2.445   7.847  19.934  0.00  0.00    +0.000 HD
BRANCH  11  16
ATOM     16  C   UNL     1       0.642   9.627  20.648  0.00  0.00    +0.000 A 
ATOM     17  C   UNL     1       0.216   8.597  21.511  0.00  0.00    +0.000 A 
ATOM     18  C   UNL     1      -0.431   8.886  22.712  0.00  0.00    +0.000 A 
ATOM     19  C   UNL     1      -0.673  10.205  23.070  0.00  0.00    +0.000 A 
ATOM     20  C   UNL     1      -0.229  11.234  22.246  0.00  0.00    +0.000 A 
ATOM     21  C   UNL     1       0.451  10.971  21.034  0.00  0.00    +0.000 A 
BRANCH  21  22
ATOM     22  C   UNL     1       0.878  12.195  20.244  0.00  0.00    +0.000 C 
ATOM     23  F   UNL     1       2.067  12.147  19.599  0.00  0.00    +0.000 F 
ATOM     24  F   UNL     1      -0.065  12.579  19.337  0.00  0.00    +0.000 F 
ATOM     25  F   UNL     1       1.004  13.276  21.083  0.00  0.00    +0.000 F 
ENDBRANCH  21  22
ENDBRANCH  11  16
ENDBRANCH   5   7
BRANCH   6  26
ATOM     26  N   UNL     1       5.242   4.209  15.780  0.00  0.00    +0.000 N 
ATOM     27  C   UNL     1       5.669   4.923  14.690  0.00  0.00    +0.000 C 
ATOM     28  C   UNL     1       6.645   4.195  13.801  0.00  0.00    +0.000 C 
ATOM     29  O   UNL     1       5.277   6.066  14.447  0.00  0.00    +0.000 OA
ATOM     30  H   UNL     1       5.539   3.243  15.863  0.00  0.00    +0.000 HD
ENDBRANCH   6  26
BRANCH   3  31
ATOM     31  C   UNL     1       7.465   5.841  19.501  0.00  0.00    +0.000 C 
ATOM     32  O   UNL     1       8.250   6.682  19.095  0.00  0.00    +0.000 OA
BRANCH  31  33
ATOM     33  O   UNL     1       7.629   5.192  20.664  0.00  0.00    +0.000 OA
ATOM     34  H   UNL     1       8.109   4.348  20.574  0.00  0.00    +0.000 HD
ENDBRANCH  31  33
ENDBRANCH   3  31
BRANCH   1  35
ATOM     35  O   UNL     1       3.161   3.896  18.891  0.00  0.00    +0.000 OA
BRANCH  35  36
ATOM     36  C   UNL     1       3.345   3.963  20.317  0.00  0.00    +0.000 C 
BRANCH  36  38
ATOM     37  C   UNL     1       1.108   5.203  20.336  0.00  0.00    +0.000 C 
ATOM     38  C   UNL     1       2.479   5.051  20.979  0.00  0.00    +0.000 C 
ENDBRANCH  36  38
BRANCH  36  39
ATOM     39  C   UNL     1       3.129   2.562  20.923  0.00  0.00    +0.000 C 
ATOM     40  C   UNL     1       1.907   2.411  21.813  0.00  0.00    +0.000 C 
ENDBRANCH  36  39
ENDBRANCH  35  36
ENDBRANCH   1  35
TORSDOF 10
ENDMDL
MODEL 7
REMARK VINA RESULT:      -8.2      3.601      8.695
REMARK  Name = 
REMARK  13 active torsions:
REMARK  status: ('A' for Active; 'I' for Inactive)
REMARK    1  A    between atoms: C_1  and  C_2
REMARK    2  A    between atoms: C_2  and  C_3
REMARK    3  A    between atoms: C_3  and  C_4
REMARK    4  A    between atoms: C_3  and  O_6
REMARK    5  A    between atoms: C_4  and  C_5
REMARK    6  A    between atoms: O_6  and  C_7
REMARK    7  A    between atoms: C_9  and  C_10
REMARK    8  A    between atoms: C_10  and  O_12
REMARK    9  A    between atoms: C_14  and  N_15
REMARK   10  A    between atoms: C_19  and  C_21
REMARK   11  A    between atoms: C_26  and  C_27
REMARK   12  A    between atoms: C_31  and  N_32
REMARK   13  A    between atoms: C_33  and  C_34
REMARK                            x       y       z     vdW  Elec       q    Type
REMARK                         _______ _______ _______ _____ _____    ______ ____
ROOT
ATOM      1  C   UNL     1      -1.453  11.257  19.102  0.00  0.00    +0.000 C 
ATOM      2  C   UNL     1      -0.189  11.798  18.454  0.00  0.00    +0.000 C 
ATOM      3  C   UNL     1       0.972  12.009  19.113  0.00  0.00    +0.000 C 
ATOM      4  C   UNL     1       1.149  11.624  20.571  0.00  0.00    +0.000 C 
ATOM      5  C   UNL     1       0.076  10.654  21.060  0.00  0.00    +0.000 C 
ATOM      6  C   UNL     1      -1.323  11.226  20.657  0.00  0.00    +0.000 C 
ENDROOT
BRANCH   5   7
ATOM      7  N   UNL     1       0.232   9.241  20.648  0.00  0.00    +0.000 N 
ATOM      8  C   UNL     1       1.202   8.309  20.901  0.00  0.00    +0.000 C 
ATOM      9  N   UNL     1       2.073   8.296  21.829  0.00  0.00    +0.000 NA
ATOM     10  N   UNL     1       1.224   7.235  20.040  0.00  0.00    +0.000 N 
ATOM     11  C   UNL     1       1.867   6.011  20.268  0.00  0.00    +0.000 C 
ATOM     12  O   UNL     1       2.171   5.560  21.368  0.00  0.00    +0.000 OA
ATOM     13  H   UNL     1      -0.565   8.897  20.124  0.00  0.00    +0.000 HD
ATOM     14  H   UNL     1       1.958   9.020  22.516  0.00  0.00    +0.000 HD
ATOM     15  H   UNL     1       0.819   7.413  19.140  0.00  0.00    +0.000 HD
BRANCH  11  16
ATOM     16  C   UNL     1       1.982   5.052  19.129  0.00  0.00    +0.000 A 
ATOM     17  C   UNL     1       1.219   3.866  19.164  0.00  0.00    +0.000 A 
ATOM     18  C   UNL     1       1.465   2.826  18.268  0.00  0.00    +0.000 A 
ATOM     19  C   UNL     1       2.478   2.944  17.328  0.00  0.00    +0.000 A 
ATOM     20  C   UNL     1       3.218   4.121  17.257  0.00  0.00    +0.000 A 
ATOM     21  C   UNL     1       2.975   5.202  18.137  0.00  0.00    +0.000 A 
BRANCH  21  22
ATOM     22  C   UNL     1       3.858   6.420  17.936  0.00  0.00    +0.000 C 
ATOM     23  F   UNL     1       3.259   7.632  17.879  0.00  0.00    +0.000 F 
ATOM     24  F   UNL     1       4.850   6.498  18.869  0.00  0.00    +0.000 F 
ATOM     25  F   UNL     1       4.523   6.326  16.738  0.00  0.00    +0.000 F 
ENDBRANCH  21  22
ENDBRANCH  11  16
ENDBRANCH   5   7
BRANCH   6  26
ATOM     26  N   UNL     1      -1.584  12.583  21.205  0.00  0.00    +0.000 N 
ATOM     27  C   UNL     1      -2.160  12.799  22.430  0.00  0.00    +0.000 C 
ATOM     28  C   UNL     1      -2.348  14.250  22.793  0.00  0.00    +0.000 C 
ATOM     29  O   UNL     1      -2.508  11.880  23.174  0.00  0.00    +0.000 OA
ATOM     30  H   UNL     1      -1.408  13.388  20.612  0.00  0.00    +0.000 HD
ENDBRANCH   6  26
BRANCH   3  31
ATOM     31  C   UNL     1       2.190  12.623  18.520  0.00  0.00    +0.000 C 
ATOM     32  O   UNL     1       2.831  13.481  19.102  0.00  0.00    +0.000 OA
BRANCH  31  33
ATOM     33  O   UNL     1       2.513  12.176  17.296  0.00  0.00    +0.000 OA
ATOM     34  H   UNL     1       3.237  11.524  17.298  0.00  0.00    +0.000 HD
ENDBRANCH  31  33
ENDBRANCH   3  31
BRANCH   1  35
ATOM     35  O   UNL     1      -1.788  10.004  18.481  0.00  0.00    +0.000 OA
BRANCH  35  36
ATOM     36  C   UNL     1      -3.032   9.952  17.758  0.00  0.00    +0.000 C 
BRANCH  36  38
ATOM     37  C   UNL     1      -5.366  10.941  18.093  0.00  0.00    +0.000 C 
ATOM     38  C   UNL     1      -3.880  11.225  17.938  0.00  0.00    +0.000 C 
ENDBRANCH  36  38
BRANCH  36  39
ATOM     39  C   UNL     1      -2.746   9.616  16.281  0.00  0.00    +0.000 C 
ATOM     40  C   UNL     1      -2.835  10.783  15.311  0.00  0.00    +0.000 C 
ENDBRANCH  36  39
ENDBRANCH  35  36
ENDBRANCH   1  35
TORSDOF 10
ENDMDL
MODEL 8
REMARK VINA RESULT:      -8.2      0.898      1.154
REMARK  Name = 
REMARK  13 active torsions:
REMARK  status: ('A' for Active; 'I' for Inactive)
REMARK    1  A    between atoms: C_1  and  C_2
REMARK    2  A    between atoms: C_2  and  C_3
REMARK    3  A    between atoms: C_3  and  C_4
REMARK    4  A    between atoms: C_3  and  O_6
REMARK    5  A    between atoms: C_4  and  C_5
REMARK    6  A    between atoms: O_6  and  C_7
REMARK    7  A    between atoms: C_9  and  C_10
REMARK    8  A    between atoms: C_10  and  O_12
REMARK    9  A    between atoms: C_14  and  N_15
REMARK   10  A    between atoms: C_19  and  C_21
REMARK   11  A    between atoms: C_26  and  C_27
REMARK   12  A    between atoms: C_31  and  N_32
REMARK   13  A    between atoms: C_33  and  C_34
REMARK                            x       y       z     vdW  Elec       q    Type
REMARK                         _______ _______ _______ _____ _____    ______ ____
ROOT
ATOM      1  C   UNL     1       4.723   4.444  17.349  0.00  0.00    +0.000 C 
ATOM      2  C   UNL     1       5.821   4.624  18.384  0.00  0.00    +0.000 C 
ATOM      3  C   UNL     1       6.571   5.741  18.509  0.00  0.00    +0.000 C 
ATOM      4  C   UNL     1       6.310   6.982  17.673  0.00  0.00    +0.000 C 
ATOM      5  C   UNL     1       4.934   6.970  17.012  0.00  0.00    +0.000 C 
ATOM      6  C   UNL     1       4.746   5.594  16.293  0.00  0.00    +0.000 C 
ENDROOT
BRANCH   5   7
ATOM      7  N   UNL     1       3.785   7.294  17.886  0.00  0.00    +0.000 N 
ATOM      8  C   UNL     1       2.888   8.329  17.884  0.00  0.00    +0.000 C 
ATOM      9  N   UNL     1       2.592   9.125  16.935  0.00  0.00    +0.000 NA
ATOM     10  N   UNL     1       2.209   8.522  19.065  0.00  0.00    +0.000 N 
ATOM     11  C   UNL     1       1.031   9.263  19.226  0.00  0.00    +0.000 C 
ATOM     12  O   UNL     1       0.228   9.526  18.336  0.00  0.00    +0.000 OA
ATOM     13  H   UNL     1       3.607   6.576  18.579  0.00  0.00    +0.000 HD
ATOM     14  H   UNL     1       3.003   8.887  16.051  0.00  0.00    +0.000 HD
ATOM     15  H   UNL     1       2.679   8.170  19.879  0.00  0.00    +0.000 HD
BRANCH  11  16
ATOM     16  C   UNL     1       0.567   9.557  20.615  0.00  0.00    +0.000 A 
ATOM     17  C   UNL     1       0.169   8.482  21.436  0.00  0.00    +0.000 A 
ATOM     18  C   UNL     1      -0.503   8.706  22.638  0.00  0.00    +0.000 A 
ATOM     19  C   UNL     1      -0.797  10.001  23.038  0.00  0.00    +0.000 A 
ATOM     20  C   UNL     1      -0.381  11.074  22.257  0.00  0.00    +0.000 A 
ATOM     21  C   UNL     1       0.323  10.879  21.045  0.00  0.00    +0.000 A 
BRANCH  21  22
ATOM     22  C   UNL     1       0.714  12.145  20.305  0.00  0.00    +0.000 C 
ATOM     23  F   UNL     1       0.019  12.463  19.187  0.00  0.00    +0.000 F 
ATOM     24  F   UNL     1       0.706  13.240  21.116  0.00  0.00    +0.000 F 
ATOM     25  F   UNL     1       2.012  12.053  19.867  0.00  0.00    +0.000 F 
ENDBRANCH  21  22
ENDBRANCH  11  16
ENDBRANCH   5   7
BRANCH   6  26
ATOM     26  N   UNL     1       5.795   5.312  15.277  0.00  0.00    +0.000 N 
ATOM     27  C   UNL     1       5.627   4.412  14.256  0.00  0.00    +0.000 C 
ATOM     28  C   UNL     1       6.816   4.267  13.341  0.00  0.00    +0.000 C 
ATOM     29  O   UNL     1       4.591   3.763  14.103  0.00  0.00    +0.000 OA
ATOM     30  H   UNL     1       6.707   5.741  15.390  0.00  0.00    +0.000 HD
ENDBRANCH   6  26
BRANCH   3  31
ATOM     31  C   UNL     1       7.709   5.902  19.453  0.00  0.00    +0.000 C 
ATOM     32  O   UNL     1       7.845   5.187  20.431  0.00  0.00    +0.000 OA
BRANCH  31  33
ATOM     33  O   UNL     1       8.558   6.899  19.156  0.00  0.00    +0.000 OA
ATOM     34  H   UNL     1       9.358   6.909  19.712  0.00  0.00    +0.000 HD
ENDBRANCH  31  33
ENDBRANCH   3  31
BRANCH   1  35
ATOM     35  O   UNL     1       3.472   4.254  18.033  0.00  0.00    +0.000 OA
BRANCH  35  36
ATOM     36  C   UNL     1       3.542   3.929  19.433  0.00  0.00    +0.000 C 
BRANCH  36  38
ATOM     37  C   UNL     1       1.333   4.495  20.591  0.00  0.00    +0.000 C 
ATOM     38  C   UNL     1       2.767   4.925  20.315  0.00  0.00    +0.000 C 
ENDBRANCH  36  38
BRANCH  36  39
ATOM     39  C   UNL     1       3.102   2.466  19.636  0.00  0.00    +0.000 C 
ATOM     40  C   UNL     1       3.466   1.508  18.515  0.00  0.00    +0.000 C 
ENDBRANCH  36  39
ENDBRANCH  35  36
ENDBRANCH   1  35
TORSDOF 10
ENDMDL
MODEL 9
REMARK VINA RESULT:      -8.1      0.594      1.370
REMARK  Name = 
REMARK  13 active torsions:
REMARK  status: ('A' for Active; 'I' for Inactive)
REMARK    1  A    between atoms: C_1  and  C_2
REMARK    2  A    between atoms: C_2  and  C_3
REMARK    3  A    between atoms: C_3  and  C_4
REMARK    4  A    between atoms: C_3  and  O_6
REMARK    5  A    between atoms: C_4  and  C_5
REMARK    6  A    between atoms: O_6  and  C_7
REMARK    7  A    between atoms: C_9  and  C_10
REMARK    8  A    between atoms: C_10  and  O_12
REMARK    9  A    between atoms: C_14  and  N_15
REMARK   10  A    between atoms: C_19  and  C_21
REMARK   11  A    between atoms: C_26  and  C_27
REMARK   12  A    between atoms: C_31  and  N_32
REMARK   13  A    between atoms: C_33  and  C_34
REMARK                            x       y       z     vdW  Elec       q    Type
REMARK                         _______ _______ _______ _____ _____    ______ ____
ROOT
ATOM      1  C   UNL     1       4.649   3.966  18.356  0.00  0.00    +0.000 C 
ATOM      2  C   UNL     1       5.840   4.532  19.112  0.00  0.00    +0.000 C 
ATOM      3  C   UNL     1       6.496   5.659  18.760  0.00  0.00    +0.000 C 
ATOM      4  C   UNL     1       6.030   6.535  17.610  0.00  0.00    +0.000 C 
ATOM      5  C   UNL     1       4.593   6.239  17.188  0.00  0.00    +0.000 C 
ATOM      6  C   UNL     1       4.447   4.695  16.991  0.00  0.00    +0.000 C 
ENDROOT
BRANCH   5   7
ATOM      7  N   UNL     1       3.529   6.785  18.060  0.00  0.00    +0.000 N 
ATOM      8  C   UNL     1       2.769   7.922  17.986  0.00  0.00    +0.000 C 
ATOM      9  N   UNL     1       2.538   8.662  16.977  0.00  0.00    +0.000 NA
ATOM     10  N   UNL     1       2.167   8.304  19.163  0.00  0.00    +0.000 N 
ATOM     11  C   UNL     1       1.098   9.201  19.287  0.00  0.00    +0.000 C 
ATOM     12  O   UNL     1       0.300   9.485  18.399  0.00  0.00    +0.000 OA
ATOM     13  H   UNL     1       3.289   6.160  18.821  0.00  0.00    +0.000 HD
ATOM     14  H   UNL     1       2.881   8.296  16.107  0.00  0.00    +0.000 HD
ATOM     15  H   UNL     1       2.621   7.968  19.993  0.00  0.00    +0.000 HD
BRANCH  11  16
ATOM     16  C   UNL     1       0.729   9.674  20.655  0.00  0.00    +0.000 A 
ATOM     17  C   UNL     1       0.405   8.715  21.637  0.00  0.00    +0.000 A 
ATOM     18  C   UNL     1      -0.183   9.092  22.844  0.00  0.00    +0.000 A 
ATOM     19  C   UNL     1      -0.466  10.428  23.091  0.00  0.00    +0.000 A 
ATOM     20  C   UNL     1      -0.120  11.391  22.148  0.00  0.00    +0.000 A 
ATOM     21  C   UNL     1       0.498  11.040  20.924  0.00  0.00    +0.000 A 
BRANCH  21  22
ATOM     22  C   UNL     1       0.818  12.199  19.998  0.00  0.00    +0.000 C 
ATOM     23  F   UNL     1       0.914  13.434  20.543  0.00  0.00    +0.000 F 
ATOM     24  F   UNL     1       1.953  11.982  19.274  0.00  0.00    +0.000 F 
ATOM     25  F   UNL     1      -0.169  12.333  19.053  0.00  0.00    +0.000 F 
ENDBRANCH  21  22
ENDBRANCH  11  16
ENDBRANCH   5   7
BRANCH   6  26
ATOM     26  N   UNL     1       5.391   4.137  15.986  0.00  0.00    +0.000 N 
ATOM     27  C   UNL     1       5.720   4.789  14.825  0.00  0.00    +0.000 C 
ATOM     28  C   UNL     1       6.686   4.046  13.936  0.00  0.00    +0.000 C 
ATOM     29  O   UNL     1       5.256   5.890  14.523  0.00  0.00    +0.000 OA
ATOM     30  H   UNL     1       5.744   3.196  16.121  0.00  0.00    +0.000 HD
ENDBRANCH   6  26
BRANCH   3  31
ATOM     31  C   UNL     1       7.718   6.179  19.431  0.00  0.00    +0.000 C 
ATOM     32  O   UNL     1       8.377   7.090  18.959  0.00  0.00    +0.000 OA
BRANCH  31  33
ATOM     33  O   UNL     1       8.045   5.560  20.576  0.00  0.00    +0.000 OA
ATOM     34  H   UNL     1       7.411   5.718  21.300  0.00  0.00    +0.000 HD
ENDBRANCH  31  33
ENDBRANCH   3  31
BRANCH   1  35
ATOM     35  O   UNL     1       3.509   3.958  19.232  0.00  0.00    +0.000 OA
BRANCH  35  36
ATOM     36  C   UNL     1       2.219   3.791  18.615  0.00  0.00    +0.000 C 
BRANCH  36  38
ATOM     37  C   UNL     1       0.586   1.825  18.691  0.00  0.00    +0.000 C 
ATOM     38  C   UNL     1       1.937   2.332  18.211  0.00  0.00    +0.000 C 
ENDBRANCH  36  38
BRANCH  36  39
ATOM     39  C   UNL     1       1.136   4.386  19.536  0.00  0.00    +0.000 C 
ATOM     40  C   UNL     1       1.646   5.229  20.693  0.00  0.00    +0.000 C 
ENDBRANCH  36  39
ENDBRANCH  35  36
ENDBRANCH   1  35
TORSDOF 10
ENDMDL
