MODEL 1
REMARK VINA RESULT:      -7.0      0.000      0.000
REMARK  Name = 
REMARK  8 active torsions:
REMARK  status: ('A' for Active; 'I' for Inactive)
REMARK    1  A    between atoms: C_1  and  N_2
REMARK    2  A    between atoms: C_3  and  N_4
REMARK    3  A    between atoms: C_5  and  C_6
REMARK    4  A    between atoms: C_6  and  C_8
REMARK    5  A    between atoms: C_8  and  O_9
REMARK    6  A    between atoms: O_9  and  C_10
REMARK    7  A    between atoms: C_10  and  C_12
REMARK    8  A    between atoms: N_19  and  C_20
REMARK                            x       y       z     vdW  Elec       q    Type
REMARK                         _______ _______ _______ _____ _____    ______ ____
ROOT
ATOM      1  C   UNL     1       2.397   1.971  19.096  0.00  0.00    +0.000 C 
ATOM      2  N   UNL     1       3.100   3.225  18.846  0.00  0.00    +0.000 N 
ATOM      3  C   UNL     1       4.471   3.375  19.067  0.00  0.00    +0.000 A 
ATOM      4  C   UNL     1       5.056   4.573  18.809  0.00  0.00    +0.000 A 
ATOM      5  C   UNL     1       4.214   5.692  18.316  0.00  0.00    +0.000 A 
ATOM      6  O   UNL     1       4.726   6.775  18.028  0.00  0.00    +0.000 OA
ATOM      7  N   UNL     1       2.869   5.469  18.179  0.00  0.00    +0.000 N 
ATOM      8  C   UNL     1       2.020   6.551  17.714  0.00  0.00    +0.000 C 
ATOM      9  C   UNL     1       2.269   4.251  18.398  0.00  0.00    +0.000 A 
ATOM     10  O   UNL     1       1.060   4.084  18.209  0.00  0.00    +0.000 OA
ENDROOT
BRANCH   3  11
ATOM     11  N   UNL     1       5.202   2.299  19.556  0.00  0.00    +0.000 N 
ATOM     12  H   UNL     1       4.656   1.462  19.721  0.00  0.00    +0.000 HD
ATOM     13  H   UNL     1       6.016   2.072  18.968  0.00  0.00    +0.000 HD
ENDBRANCH   3  11
BRANCH   4  14
ATOM     14  C   UNL     1       6.546   4.773  18.998  0.00  0.00    +0.000 C 
ATOM     15  O   UNL     1       7.002   5.055  20.112  0.00  0.00    +0.000 OA
BRANCH  14  16
ATOM     16  C   UNL     1       7.474   4.603  17.786  0.00  0.00    +0.000 C 
BRANCH  16  17
ATOM     17  O   UNL     1       6.798   4.465  16.538  0.00  0.00    +0.000 OA
BRANCH  17  18
ATOM     18  C   UNL     1       7.153   5.356  15.574  0.00  0.00    +0.000 C 
ATOM     19  O   UNL     1       7.553   6.493  15.796  0.00  0.00    +0.000 OA
BRANCH  18  20
ATOM     20  C   UNL     1       6.943   4.776  14.267  0.00  0.00    +0.000 A 
ATOM     21  C   UNL     1       6.079   3.782  13.844  0.00  0.00    +0.000 A 
ATOM     22  C   UNL     1       6.303   3.600  12.457  0.00  0.00    +0.000 A 
ATOM     23  C   UNL     1       7.297   4.486  12.115  0.00  0.00    +0.000 A 
ATOM     24  O   UNL     1       7.693   5.198  13.197  0.00  0.00    +0.000 OA
ENDBRANCH  18  20
ENDBRANCH  17  18
ENDBRANCH  16  17
ENDBRANCH  14  16
ENDBRANCH   4  14
TORSDOF 6
ENDMDL
MODEL 2
REMARK VINA RESULT:      -6.9      1.578      2.066
REMARK  Name = 
REMARK  8 active torsions:
REMARK  status: ('A' for Active; 'I' for Inactive)
REMARK    1  A    between atoms: C_1  and  N_2
REMARK    2  A    between atoms: C_3  and  N_4
REMARK    3  A    between atoms: C_5  and  C_6
REMARK    4  A    between atoms: C_6  and  C_8
REMARK    5  A    between atoms: C_8  and  O_9
REMARK    6  A    between atoms: O_9  and  C_10
REMARK    7  A    between atoms: C_10  and  C_12
REMARK    8  A    between atoms: N_19  and  C_20
REMARK                            x       y       z     vdW  Elec       q    Type
REMARK                         _______ _______ _______ _____ _____    ______ ____
ROOT
ATOM      1  C   UNL     1       3.072   2.342  19.644  0.00  0.00    +0.000 C 
ATOM      2  N   UNL     1       3.109   3.777  19.380  0.00  0.00    +0.000 N 
ATOM      3  C   UNL     1       3.995   4.350  18.466  0.00  0.00    +0.000 A 
ATOM      4  C   UNL     1       3.969   5.694  18.271  0.00  0.00    +0.000 A 
ATOM      5  C   UNL     1       3.010   6.514  19.053  0.00  0.00    +0.000 A 
ATOM      6  O   UNL     1       2.931   7.729  18.863  0.00  0.00    +0.000 OA
ATOM      7  N   UNL     1       2.215   5.872  19.967  0.00  0.00    +0.000 N 
ATOM      8  C   UNL     1       1.279   6.653  20.756  0.00  0.00    +0.000 C 
ATOM      9  C   UNL     1       2.202   4.509  20.146  0.00  0.00    +0.000 A 
ATOM     10  O   UNL     1       1.429   3.970  20.944  0.00  0.00    +0.000 OA
ENDROOT
BRANCH   3  11
ATOM     11  N   UNL     1       4.890   3.534  17.783  0.00  0.00    +0.000 N 
ATOM     12  H   UNL     1       4.646   2.550  17.787  0.00  0.00    +0.000 HD
ATOM     13  H   UNL     1       5.054   3.846  16.816  0.00  0.00    +0.000 HD
ENDBRANCH   3  11
BRANCH   4  14
ATOM     14  C   UNL     1       4.886   6.356  17.262  0.00  0.00    +0.000 C 
ATOM     15  O   UNL     1       4.438   6.757  16.182  0.00  0.00    +0.000 OA
BRANCH  14  16
ATOM     16  C   UNL     1       6.370   6.531  17.615  0.00  0.00    +0.000 C 
BRANCH  16  17
ATOM     17  O   UNL     1       7.268   6.289  16.534  0.00  0.00    +0.000 OA
BRANCH  17  18
ATOM     18  C   UNL     1       7.519   4.983  16.256  0.00  0.00    +0.000 C 
ATOM     19  O   UNL     1       8.003   4.186  17.052  0.00  0.00    +0.000 OA
BRANCH  18  20
ATOM     20  C   UNL     1       7.173   4.697  14.883  0.00  0.00    +0.000 A 
ATOM     21  C   UNL     1       6.244   3.825  14.344  0.00  0.00    +0.000 A 
ATOM     22  C   UNL     1       6.335   3.940  12.935  0.00  0.00    +0.000 A 
ATOM     23  C   UNL     1       7.320   4.868  12.694  0.00  0.00    +0.000 A 
ATOM     24  O   UNL     1       7.834   5.330  13.859  0.00  0.00    +0.000 OA
ENDBRANCH  18  20
ENDBRANCH  17  18
ENDBRANCH  16  17
ENDBRANCH  14  16
ENDBRANCH   4  14
TORSDOF 6
ENDMDL
MODEL 3
REMARK VINA RESULT:      -6.8      1.622      2.663
REMARK  Name = 
REMARK  8 active torsions:
REMARK  status: ('A' for Active; 'I' for Inactive)
REMARK    1  A    between atoms: C_1  and  N_2
REMARK    2  A    between atoms: C_3  and  N_4
REMARK    3  A    between atoms: C_5  and  C_6
REMARK    4  A    between atoms: C_6  and  C_8
REMARK    5  A    between atoms: C_8  and  O_9
REMARK    6  A    between atoms: O_9  and  C_10
REMARK    7  A    between atoms: C_10  and  C_12
REMARK    8  A    between atoms: N_19  and  C_20
REMARK                            x       y       z     vdW  Elec       q    Type
REMARK                         _______ _______ _______ _____ _____    ______ ____
ROOT
ATOM      1  C   UNL     1       2.182   7.220  19.462  0.00  0.00    +0.000 C 
ATOM      2  N   UNL     1       2.986   6.002  19.514  0.00  0.00    +0.000 N 
ATOM      3  C   UNL     1       4.220   5.888  18.871  0.00  0.00    +0.000 A 
ATOM      4  C   UNL     1       4.912   4.723  18.968  0.00  0.00    +0.000 A 
ATOM      5  C   UNL     1       4.323   3.601  19.741  0.00  0.00    +0.000 A 
ATOM      6  O   UNL     1       4.949   2.550  19.885  0.00  0.00    +0.000 OA
ATOM      7  N   UNL     1       3.082   3.785  20.293  0.00  0.00    +0.000 N 
ATOM      8  C   UNL     1       2.476   2.697  21.040  0.00  0.00    +0.000 C 
ATOM      9  C   UNL     1       2.388   4.971  20.237  0.00  0.00    +0.000 A 
ATOM     10  O   UNL     1       1.296   5.106  20.798  0.00  0.00    +0.000 OA
ENDROOT
BRANCH   3  11
ATOM     11  N   UNL     1       4.708   6.964  18.140  0.00  0.00    +0.000 N 
ATOM     12  H   UNL     1       5.551   7.380  18.518  0.00  0.00    +0.000 HD
ATOM     13  H   UNL     1       4.851   6.737  17.146  0.00  0.00    +0.000 HD
ENDBRANCH   3  11
BRANCH   4  14
ATOM     14  C   UNL     1       6.272   4.565  18.319  0.00  0.00    +0.000 C 
ATOM     15  O   UNL     1       7.299   4.856  18.943  0.00  0.00    +0.000 OA
BRANCH  14  16
ATOM     16  C   UNL     1       6.348   4.025  16.884  0.00  0.00    +0.000 C 
BRANCH  16  17
ATOM     17  O   UNL     1       5.272   4.431  16.040  0.00  0.00    +0.000 OA
BRANCH  17  18
ATOM     18  C   UNL     1       5.574   5.381  15.117  0.00  0.00    +0.000 C 
ATOM     19  O   UNL     1       5.379   6.582  15.269  0.00  0.00    +0.000 OA
BRANCH  18  20
ATOM     20  C   UNL     1       6.110   4.758  13.928  0.00  0.00    +0.000 A 
ATOM     21  C   UNL     1       5.663   3.676  13.190  0.00  0.00    +0.000 A 
ATOM     22  C   UNL     1       6.581   3.491  12.128  0.00  0.00    +0.000 A 
ATOM     23  C   UNL     1       7.541   4.463  12.282  0.00  0.00    +0.000 A 
ATOM     24  O   UNL     1       7.269   5.232  13.364  0.00  0.00    +0.000 OA
ENDBRANCH  18  20
ENDBRANCH  17  18
ENDBRANCH  16  17
ENDBRANCH  14  16
ENDBRANCH   4  14
TORSDOF 6
ENDMDL
MODEL 4
REMARK VINA RESULT:      -6.7      1.615      1.910
REMARK  Name = 
REMARK  8 active torsions:
REMARK  status: ('A' for Active; 'I' for Inactive)
REMARK    1  A    between atoms: C_1  and  N_2
REMARK    2  A    between atoms: C_3  and  N_4
REMARK    3  A    between atoms: C_5  and  C_6
REMARK    4  A    between atoms: C_6  and  C_8
REMARK    5  A    between atoms: C_8  and  O_9
REMARK    6  A    between atoms: O_9  and  C_10
REMARK    7  A    between atoms: C_10  and  C_12
REMARK    8  A    between atoms: N_19  and  C_20
REMARK                            x       y       z     vdW  Elec       q    Type
REMARK                         _______ _______ _______ _____ _____    ______ ____
ROOT
ATOM      1  C   UNL     1       3.771   2.314  20.323  0.00  0.00    +0.000 C 
ATOM      2  N   UNL     1       3.628   3.698  19.883  0.00  0.00    +0.000 N 
ATOM      3  C   UNL     1       4.532   4.307  19.011  0.00  0.00    +0.000 A 
ATOM      4  C   UNL     1       4.331   5.599  18.645  0.00  0.00    +0.000 A 
ATOM      5  C   UNL     1       3.164   6.330  19.200  0.00  0.00    +0.000 A 
ATOM      6  O   UNL     1       2.931   7.487  18.848  0.00  0.00    +0.000 OA
ATOM      7  N   UNL     1       2.360   5.669  20.091  0.00  0.00    +0.000 N 
ATOM      8  C   UNL     1       1.222   6.366  20.663  0.00  0.00    +0.000 C 
ATOM      9  C   UNL     1       2.528   4.349  20.441  0.00  0.00    +0.000 A 
ATOM     10  O   UNL     1       1.745   3.780  21.208  0.00  0.00    +0.000 OA
ENDROOT
BRANCH   3  11
ATOM     11  N   UNL     1       5.621   3.580  18.545  0.00  0.00    +0.000 N 
ATOM     12  H   UNL     1       5.466   3.117  17.657  0.00  0.00    +0.000 HD
ATOM     13  H   UNL     1       6.482   4.143  18.496  0.00  0.00    +0.000 HD
ENDBRANCH   3  11
BRANCH   4  14
ATOM     14  C   UNL     1       5.264   6.290  17.670  0.00  0.00    +0.000 C 
ATOM     15  O   UNL     1       6.251   6.909  18.084  0.00  0.00    +0.000 OA
BRANCH  14  16
ATOM     16  C   UNL     1       4.966   6.194  16.167  0.00  0.00    +0.000 C 
BRANCH  16  17
ATOM     17  O   UNL     1       6.121   6.202  15.332  0.00  0.00    +0.000 OA
BRANCH  17  18
ATOM     18  C   UNL     1       6.798   5.026  15.251  0.00  0.00    +0.000 C 
ATOM     19  O   UNL     1       7.484   4.558  16.152  0.00  0.00    +0.000 OA
BRANCH  18  20
ATOM     20  C   UNL     1       6.621   4.447  13.938  0.00  0.00    +0.000 A 
ATOM     21  C   UNL     1       5.686   3.544  13.464  0.00  0.00    +0.000 A 
ATOM     22  C   UNL     1       5.988   3.311  12.101  0.00  0.00    +0.000 A 
ATOM     23  C   UNL     1       7.096   4.077  11.822  0.00  0.00    +0.000 A 
ATOM     24  O   UNL     1       7.488   4.764  12.922  0.00  0.00    +0.000 OA
ENDBRANCH  18  20
ENDBRANCH  17  18
ENDBRANCH  16  17
ENDBRANCH  14  16
ENDBRANCH   4  14
TORSDOF 6
ENDMDL
MODEL 5
REMARK VINA RESULT:      -6.7      1.061      2.343
REMARK  Name = 
REMARK  8 active torsions:
REMARK  status: ('A' for Active; 'I' for Inactive)
REMARK    1  A    between atoms: C_1  and  N_2
REMARK    2  A    between atoms: C_3  and  N_4
REMARK    3  A    between atoms: C_5  and  C_6
REMARK    4  A    between atoms: C_6  and  C_8
REMARK    5  A    between atoms: C_8  and  O_9
REMARK    6  A    between atoms: O_9  and  C_10
REMARK    7  A    between atoms: C_10  and  C_12
REMARK    8  A    between atoms: N_19  and  C_20
REMARK                            x       y       z     vdW  Elec       q    Type
REMARK                         _______ _______ _______ _____ _____    ______ ____
ROOT
ATOM      1  C   UNL     1       2.154   6.642  17.759  0.00  0.00    +0.000 C 
ATOM      2  N   UNL     1       3.051   5.638  18.322  0.00  0.00    +0.000 N 
ATOM      3  C   UNL     1       4.440   5.776  18.301  0.00  0.00    +0.000 A 
ATOM      4  C   UNL     1       5.211   4.799  18.847  0.00  0.00    +0.000 A 
ATOM      5  C   UNL     1       4.549   3.606  19.432  0.00  0.00    +0.000 A 
ATOM      6  O   UNL     1       5.221   2.727  19.975  0.00  0.00    +0.000 OA
ATOM      7  N   UNL     1       3.183   3.531  19.359  0.00  0.00    +0.000 N 
ATOM      8  C   UNL     1       2.512   2.366  19.909  0.00  0.00    +0.000 C 
ATOM      9  C   UNL     1       2.388   4.529  18.846  0.00  0.00    +0.000 A 
ATOM     10  O   UNL     1       1.156   4.440  18.852  0.00  0.00    +0.000 OA
ENDROOT
BRANCH   3  11
ATOM     11  N   UNL     1       5.003   6.903  17.715  0.00  0.00    +0.000 N 
ATOM     12  H   UNL     1       5.063   7.708  18.328  0.00  0.00    +0.000 HD
ATOM     13  H   UNL     1       5.926   6.716  17.299  0.00  0.00    +0.000 HD
ENDBRANCH   3  11
BRANCH   4  14
ATOM     14  C   UNL     1       6.721   4.922  18.882  0.00  0.00    +0.000 C 
ATOM     15  O   UNL     1       7.292   5.299  19.912  0.00  0.00    +0.000 OA
BRANCH  14  16
ATOM     16  C   UNL     1       7.522   4.557  17.623  0.00  0.00    +0.000 C 
BRANCH  16  17
ATOM     17  O   UNL     1       6.729   4.354  16.455  0.00  0.00    +0.000 OA
BRANCH  17  18
ATOM     18  C   UNL     1       7.112   5.055  15.355  0.00  0.00    +0.000 C 
ATOM     19  O   UNL     1       7.791   6.075  15.385  0.00  0.00    +0.000 OA
BRANCH  18  20
ATOM     20  C   UNL     1       6.562   4.443  14.167  0.00  0.00    +0.000 A 
ATOM     21  C   UNL     1       5.282   4.002  13.883  0.00  0.00    +0.000 A 
ATOM     22  C   UNL     1       5.307   3.475  12.569  0.00  0.00    +0.000 A 
ATOM     23  C   UNL     1       6.603   3.614  12.129  0.00  0.00    +0.000 A 
ATOM     24  O   UNL     1       7.369   4.194  13.084  0.00  0.00    +0.000 OA
ENDBRANCH  18  20
ENDBRANCH  17  18
ENDBRANCH  16  17
ENDBRANCH  14  16
ENDBRANCH   4  14
TORSDOF 6
ENDMDL
MODEL 6
REMARK VINA RESULT:      -6.7      2.276      4.315
REMARK  Name = 
REMARK  8 active torsions:
REMARK  status: ('A' for Active; 'I' for Inactive)
REMARK    1  A    between atoms: C_1  and  N_2
REMARK    2  A    between atoms: C_3  and  N_4
REMARK    3  A    between atoms: C_5  and  C_6
REMARK    4  A    between atoms: C_6  and  C_8
REMARK    5  A    between atoms: C_8  and  O_9
REMARK    6  A    between atoms: O_9  and  C_10
REMARK    7  A    between atoms: C_10  and  C_12
REMARK    8  A    between atoms: N_19  and  C_20
REMARK                            x       y       z     vdW  Elec       q    Type
REMARK                         _______ _______ _______ _____ _____    ______ ____
ROOT
ATOM      1  C   UNL     1       2.324   7.198  19.526  0.00  0.00    +0.000 C 
ATOM      2  N   UNL     1       2.806   5.960  18.920  0.00  0.00    +0.000 N 
ATOM      3  C   UNL     1       3.759   5.945  17.900  0.00  0.00    +0.000 A 
ATOM      4  C   UNL     1       4.160   4.753  17.387  0.00  0.00    +0.000 A 
ATOM      5  C   UNL     1       3.557   3.504  17.916  0.00  0.00    +0.000 A 
ATOM      6  O   UNL     1       3.936   2.407  17.502  0.00  0.00    +0.000 OA
ATOM      7  N   UNL     1       2.589   3.618  18.880  0.00  0.00    +0.000 N 
ATOM      8  C   UNL     1       1.971   2.413  19.402  0.00  0.00    +0.000 C 
ATOM      9  C   UNL     1       2.202   4.815  19.436  0.00  0.00    +0.000 A 
ATOM     10  O   UNL     1       1.363   4.863  20.342  0.00  0.00    +0.000 OA
ENDROOT
BRANCH   3  11
ATOM     11  N   UNL     1       4.268   7.148  17.426  0.00  0.00    +0.000 N 
ATOM     12  H   UNL     1       5.279   7.215  17.457  0.00  0.00    +0.000 HD
ATOM     13  H   UNL     1       3.935   7.375  16.479  0.00  0.00    +0.000 HD
ENDBRANCH   3  11
BRANCH   4  14
ATOM     14  C   UNL     1       5.220   4.683  16.305  0.00  0.00    +0.000 C 
ATOM     15  O   UNL     1       4.967   5.067  15.158  0.00  0.00    +0.000 OA
BRANCH  14  16
ATOM     16  C   UNL     1       6.611   4.142  16.668  0.00  0.00    +0.000 C 
BRANCH  16  17
ATOM     17  O   UNL     1       7.584   5.147  16.947  0.00  0.00    +0.000 OA
BRANCH  17  18
ATOM     18  C   UNL     1       7.550   5.667  18.202  0.00  0.00    +0.000 C 
ATOM     19  O   UNL     1       7.287   5.024  19.212  0.00  0.00    +0.000 OA
BRANCH  18  20
ATOM     20  C   UNL     1       7.823   7.086  18.153  0.00  0.00    +0.000 A 
ATOM     21  C   UNL     1       8.629   7.881  18.948  0.00  0.00    +0.000 A 
ATOM     22  C   UNL     1       8.515   9.206  18.459  0.00  0.00    +0.000 A 
ATOM     23  C   UNL     1       7.639   9.145  17.401  0.00  0.00    +0.000 A 
ATOM     24  O   UNL     1       7.214   7.873  17.208  0.00  0.00    +0.000 OA
ENDBRANCH  18  20
ENDBRANCH  17  18
ENDBRANCH  16  17
ENDBRANCH  14  16
ENDBRANCH   4  14
TORSDOF 6
ENDMDL
MODEL 7
REMARK VINA RESULT:      -6.6      1.002      1.270
REMARK  Name = 
REMARK  8 active torsions:
REMARK  status: ('A' for Active; 'I' for Inactive)
REMARK    1  A    between atoms: C_1  and  N_2
REMARK    2  A    between atoms: C_3  and  N_4
REMARK    3  A    between atoms: C_5  and  C_6
REMARK    4  A    between atoms: C_6  and  C_8
REMARK    5  A    between atoms: C_8  and  O_9
REMARK    6  A    between atoms: O_9  and  C_10
REMARK    7  A    between atoms: C_10  and  C_12
REMARK    8  A    between atoms: N_19  and  C_20
REMARK                            x       y       z     vdW  Elec       q    Type
REMARK                         _______ _______ _______ _____ _____    ______ ____
ROOT
ATOM      1  C   UNL     1       2.187   3.295  19.037  0.00  0.00    +0.000 C 
ATOM      2  N   UNL     1       3.147   4.345  18.709  0.00  0.00    +0.000 N 
ATOM      3  C   UNL     1       4.517   4.209  18.940  0.00  0.00    +0.000 A 
ATOM      4  C   UNL     1       5.348   5.230  18.606  0.00  0.00    +0.000 A 
ATOM      5  C   UNL     1       4.770   6.466  18.022  0.00  0.00    +0.000 A 
ATOM      6  O   UNL     1       5.505   7.388  17.665  0.00  0.00    +0.000 OA
ATOM      7  N   UNL     1       3.408   6.531  17.880  0.00  0.00    +0.000 N 
ATOM      8  C   UNL     1       2.815   7.735  17.327  0.00  0.00    +0.000 C 
ATOM      9  C   UNL     1       2.558   5.491  18.177  0.00  0.00    +0.000 A 
ATOM     10  O   UNL     1       1.341   5.577  17.981  0.00  0.00    +0.000 OA
ENDROOT
BRANCH   3  11
ATOM     11  N   UNL     1       4.997   3.039  19.515  0.00  0.00    +0.000 N 
ATOM     12  H   UNL     1       4.597   2.823  20.421  0.00  0.00    +0.000 HD
ATOM     13  H   UNL     1       4.905   2.224  18.893  0.00  0.00    +0.000 HD
ENDBRANCH   3  11
BRANCH   4  14
ATOM     14  C   UNL     1       6.847   5.115  18.803  0.00  0.00    +0.000 C 
ATOM     15  O   UNL     1       7.361   5.438  19.880  0.00  0.00    +0.000 OA
BRANCH  14  16
ATOM     16  C   UNL     1       7.704   4.578  17.648  0.00  0.00    +0.000 C 
BRANCH  16  17
ATOM     17  O   UNL     1       7.366   5.101  16.365  0.00  0.00    +0.000 OA
BRANCH  17  18
ATOM     18  C   UNL     1       6.673   4.263  15.551  0.00  0.00    +0.000 C 
ATOM     19  O   UNL     1       5.914   3.385  15.945  0.00  0.00    +0.000 OA
BRANCH  18  20
ATOM     20  C   UNL     1       7.001   4.536  14.170  0.00  0.00    +0.000 A 
ATOM     21  C   UNL     1       6.531   3.972  12.997  0.00  0.00    +0.000 A 
ATOM     22  C   UNL     1       7.206   4.612  11.929  0.00  0.00    +0.000 A 
ATOM     23  C   UNL     1       8.058   5.521  12.510  0.00  0.00    +0.000 A 
ATOM     24  O   UNL     1       7.945   5.483  13.860  0.00  0.00    +0.000 OA
ENDBRANCH  18  20
ENDBRANCH  17  18
ENDBRANCH  16  17
ENDBRANCH  14  16
ENDBRANCH   4  14
TORSDOF 6
ENDMDL
MODEL 8
REMARK VINA RESULT:      -6.6      1.780      1.967
REMARK  Name = 
REMARK  8 active torsions:
REMARK  status: ('A' for Active; 'I' for Inactive)
REMARK    1  A    between atoms: C_1  and  N_2
REMARK    2  A    between atoms: C_3  and  N_4
REMARK    3  A    between atoms: C_5  and  C_6
REMARK    4  A    between atoms: C_6  and  C_8
REMARK    5  A    between atoms: C_8  and  O_9
REMARK    6  A    between atoms: O_9  and  C_10
REMARK    7  A    between atoms: C_10  and  C_12
REMARK    8  A    between atoms: N_19  and  C_20
REMARK                            x       y       z     vdW  Elec       q    Type
REMARK                         _______ _______ _______ _____ _____    ______ ____
ROOT
ATOM      1  C   UNL     1       1.988   3.748  21.197  0.00  0.00    +0.000 C 
ATOM      2  N   UNL     1       2.691   4.548  20.199  0.00  0.00    +0.000 N 
ATOM      3  C   UNL     1       3.809   4.076  19.509  0.00  0.00    +0.000 A 
ATOM      4  C   UNL     1       4.409   4.879  18.592  0.00  0.00    +0.000 A 
ATOM      5  C   UNL     1       3.866   6.242  18.368  0.00  0.00    +0.000 A 
ATOM      6  O   UNL     1       4.361   6.975  17.509  0.00  0.00    +0.000 OA
ATOM      7  N   UNL     1       2.799   6.641  19.129  0.00  0.00    +0.000 N 
ATOM      8  C   UNL     1       2.259   7.975  18.942  0.00  0.00    +0.000 C 
ATOM      9  C   UNL     1       2.157   5.825  20.032  0.00  0.00    +0.000 A 
ATOM     10  O   UNL     1       1.164   6.211  20.657  0.00  0.00    +0.000 OA
ENDROOT
BRANCH   3  11
ATOM     11  N   UNL     1       4.288   2.800  19.781  0.00  0.00    +0.000 N 
ATOM     12  H   UNL     1       3.566   2.102  19.916  0.00  0.00    +0.000 HD
ATOM     13  H   UNL     1       4.961   2.470  19.076  0.00  0.00    +0.000 HD
ENDBRANCH   3  11
BRANCH   4  14
ATOM     14  C   UNL     1       5.601   4.397  17.790  0.00  0.00    +0.000 C 
ATOM     15  O   UNL     1       6.737   4.439  18.275  0.00  0.00    +0.000 OA
BRANCH  14  16
ATOM     16  C   UNL     1       5.366   3.844  16.377  0.00  0.00    +0.000 C 
BRANCH  16  17
ATOM     17  O   UNL     1       5.394   4.828  15.344  0.00  0.00    +0.000 OA
BRANCH  17  18
ATOM     18  C   UNL     1       6.433   4.738  14.473  0.00  0.00    +0.000 C 
ATOM     19  O   UNL     1       7.521   5.280  14.634  0.00  0.00    +0.000 OA
BRANCH  18  20
ATOM     20  C   UNL     1       6.044   3.954  13.323  0.00  0.00    +0.000 A 
ATOM     21  C   UNL     1       6.796   3.183  12.455  0.00  0.00    +0.000 A 
ATOM     22  C   UNL     1       5.902   2.643  11.498  0.00  0.00    +0.000 A 
ATOM     23  C   UNL     1       4.657   3.123  11.830  0.00  0.00    +0.000 A 
ATOM     24  O   UNL     1       4.730   3.916  12.926  0.00  0.00    +0.000 OA
ENDBRANCH  18  20
ENDBRANCH  17  18
ENDBRANCH  16  17
ENDBRANCH  14  16
ENDBRANCH   4  14
TORSDOF 6
ENDMDL
MODEL 9
REMARK VINA RESULT:      -6.6      1.561      1.820
REMARK  Name = 
REMARK  8 active torsions:
REMARK  status: ('A' for Active; 'I' for Inactive)
REMARK    1  A    between atoms: C_1  and  N_2
REMARK    2  A    between atoms: C_3  and  N_4
REMARK    3  A    between atoms: C_5  and  C_6
REMARK    4  A    between atoms: C_6  and  C_8
REMARK    5  A    between atoms: C_8  and  O_9
REMARK    6  A    between atoms: O_9  and  C_10
REMARK    7  A    between atoms: C_10  and  C_12
REMARK    8  A    between atoms: N_19  and  C_20
REMARK                            x       y       z     vdW  Elec       q    Type
REMARK                         _______ _______ _______ _____ _____    ______ ____
ROOT
ATOM      1  C   UNL     1       1.702   1.881  19.285  0.00  0.00    +0.000 C 
ATOM      2  N   UNL     1       2.444   3.135  19.194  0.00  0.00    +0.000 N 
ATOM      3  C   UNL     1       3.698   3.223  18.586  0.00  0.00    +0.000 A 
ATOM      4  C   UNL     1       4.327   4.426  18.538  0.00  0.00    +0.000 A 
ATOM      5  C   UNL     1       3.667   5.606  19.151  0.00  0.00    +0.000 A 
ATOM      6  O   UNL     1       4.192   6.719  19.081  0.00  0.00    +0.000 OA
ATOM      7  N   UNL     1       2.461   5.415  19.773  0.00  0.00    +0.000 N 
ATOM      8  C   UNL     1       1.802   6.549  20.396  0.00  0.00    +0.000 C 
ATOM      9  C   UNL     1       1.794   4.212  19.795  0.00  0.00    +0.000 A 
ATOM     10  O   UNL     1       0.683   4.100  20.322  0.00  0.00    +0.000 OA
ENDROOT
BRANCH   3  11
ATOM     11  N   UNL     1       4.278   2.079  18.054  0.00  0.00    +0.000 N 
ATOM     12  H   UNL     1       3.633   1.474  17.557  0.00  0.00    +0.000 HD
ATOM     13  H   UNL     1       5.088   2.286  17.454  0.00  0.00    +0.000 HD
ENDBRANCH   3  11
BRANCH   4  14
ATOM     14  C   UNL     1       5.671   4.580  17.855  0.00  0.00    +0.000 C 
ATOM     15  O   UNL     1       6.714   4.314  18.464  0.00  0.00    +0.000 OA
BRANCH  14  16
ATOM     16  C   UNL     1       5.709   5.055  16.396  0.00  0.00    +0.000 C 
BRANCH  16  17
ATOM     17  O   UNL     1       6.008   4.033  15.447  0.00  0.00    +0.000 OA
BRANCH  17  18
ATOM     18  C   UNL     1       6.684   4.436  14.340  0.00  0.00    +0.000 C 
ATOM     19  O   UNL     1       7.589   5.262  14.343  0.00  0.00    +0.000 OA
BRANCH  18  20
ATOM     20  C   UNL     1       6.144   3.783  13.169  0.00  0.00    +0.000 A 
ATOM     21  C   UNL     1       6.771   3.099  12.142  0.00  0.00    +0.000 A 
ATOM     22  C   UNL     1       5.758   2.675  11.247  0.00  0.00    +0.000 A 
ATOM     23  C   UNL     1       4.573   3.133  11.772  0.00  0.00    +0.000 A 
ATOM     24  O   UNL     1       4.793   3.804  12.929  0.00  0.00    +0.000 OA
ENDBRANCH  18  20
ENDBRANCH  17  18
ENDBRANCH  16  17
ENDBRANCH  14  16
ENDBRANCH   4  14
TORSDOF 6
ENDMDL
