MODEL 1
REMARK VINA RESULT:      -8.9      0.000      0.000
REMARK  Name = 
REMARK  6 active torsions:
REMARK  status: ('A' for Active; 'I' for Inactive)
REMARK    1  A    between atoms: C_1  and  N_2
REMARK    2  A    between atoms: N_2  and  C_16
REMARK    3  A    between atoms: N_5  and  C_6
REMARK    4  A    between atoms: C_20  and  O_21
REMARK    5  A    between atoms: O_21  and  C_22
REMARK    6  A    between atoms: C_22  and  C_23
REMARK                            x       y       z     vdW  Elec       q    Type
REMARK                         _______ _______ _______ _____ _____    ______ ____
ROOT
ATOM      1  C   UNL     1       3.925   3.175  19.743  0.00  0.00    +0.000 C 
ATOM      2  N   UNL     1       3.946   4.611  19.435  0.00  0.00    +0.000 N 
ATOM      3  C   UNL     1       2.768   5.350  19.533  0.00  0.00    +0.000 C 
ATOM      4  N   UNL     1       1.581   4.839  19.407  0.00  0.00    +0.000 NA
ATOM      5  N   UNL     1       2.946   6.671  19.872  0.00  0.00    +0.000 N 
ATOM      6  H   UNL     1       1.641   3.855  19.159  0.00  0.00    +0.000 HD
ATOM      7  H   UNL     1       3.898   6.938  20.081  0.00  0.00    +0.000 HD
ENDROOT
BRANCH   5   8
ATOM      8  C   UNL     1       2.154   7.769  19.431  0.00  0.00    +0.000 A 
ATOM      9  C   UNL     1       2.128   8.132  18.072  0.00  0.00    +0.000 A 
ATOM     10  C   UNL     1       1.394   9.227  17.626  0.00  0.00    +0.000 A 
ATOM     11  C   UNL     1       0.644   9.969  18.528  0.00  0.00    +0.000 A 
ATOM     12  C   UNL     1       0.611   9.624  19.886  0.00  0.00    +0.000 A 
ATOM     13  C   UNL     1      -0.185  10.369  20.771  0.00  0.00    +0.000 A 
ATOM     14  C   UNL     1      -0.259  10.033  22.122  0.00  0.00    +0.000 A 
ATOM     15  C   UNL     1       0.464   8.951  22.601  0.00  0.00    +0.000 A 
ATOM     16  C   UNL     1       1.263   8.199  21.732  0.00  0.00    +0.000 A 
ATOM     17  C   UNL     1       1.362   8.514  20.356  0.00  0.00    +0.000 A 
ENDBRANCH   5   8
BRANCH   2  18
ATOM     18  C   UNL     1       5.026   4.987  18.570  0.00  0.00    +0.000 A 
ATOM     19  C   UNL     1       6.262   5.419  19.086  0.00  0.00    +0.000 A 
ATOM     20  C   UNL     1       7.317   5.806  18.255  0.00  0.00    +0.000 A 
ATOM     21  C   UNL     1       7.170   5.772  16.876  0.00  0.00    +0.000 A 
ATOM     22  C   UNL     1       5.976   5.316  16.324  0.00  0.00    +0.000 A 
ATOM     23  C   UNL     1       4.915   4.946  17.165  0.00  0.00    +0.000 A 
BRANCH  22  24
ATOM     24  O   UNL     1       5.732   5.198  14.982  0.00  0.00    +0.000 OA
BRANCH  24  25
ATOM     25  C   UNL     1       6.782   4.602  14.217  0.00  0.00    +0.000 C 
BRANCH  25  26
ATOM     26  C   UNL     1       6.158   3.792  13.111  0.00  0.00    +0.000 A 
ATOM     27  C   UNL     1       6.916   2.873  12.373  0.00  0.00    +0.000 A 
ATOM     28  C   UNL     1       6.328   2.148  11.336  0.00  0.00    +0.000 A 
ATOM     29  C   UNL     1       4.982   2.338  11.025  0.00  0.00    +0.000 A 
ATOM     30  C   UNL     1       4.220   3.252  11.750  0.00  0.00    +0.000 A 
ATOM     31  C   UNL     1       4.805   3.979  12.786  0.00  0.00    +0.000 A 
ENDBRANCH  25  26
ENDBRANCH  24  25
ENDBRANCH  22  24
ENDBRANCH   2  18
TORSDOF 5
ENDMDL
MODEL 2
REMARK VINA RESULT:      -8.6      0.907      1.008
REMARK  Name = 
REMARK  6 active torsions:
REMARK  status: ('A' for Active; 'I' for Inactive)
REMARK    1  A    between atoms: C_1  and  N_2
REMARK    2  A    between atoms: N_2  and  C_16
REMARK    3  A    between atoms: N_5  and  C_6
REMARK    4  A    between atoms: C_20  and  O_21
REMARK    5  A    between atoms: O_21  and  C_22
REMARK    6  A    between atoms: C_22  and  C_23
REMARK                            x       y       z     vdW  Elec       q    Type
REMARK                         _______ _______ _______ _____ _____    ______ ____
ROOT
ATOM      1  C   UNL     1       3.613   2.748  19.005  0.00  0.00    +0.000 C 
ATOM      2  N   UNL     1       3.817   4.200  19.089  0.00  0.00    +0.000 N 
ATOM      3  C   UNL     1       2.723   5.054  18.949  0.00  0.00    +0.000 C 
ATOM      4  N   UNL     1       1.645   4.747  18.294  0.00  0.00    +0.000 NA
ATOM      5  N   UNL     1       2.826   6.236  19.644  0.00  0.00    +0.000 N 
ATOM      6  H   UNL     1       1.745   3.839  17.848  0.00  0.00    +0.000 HD
ATOM      7  H   UNL     1       3.645   6.322  20.231  0.00  0.00    +0.000 HD
ENDROOT
BRANCH   5   8
ATOM      8  C   UNL     1       2.309   7.500  19.239  0.00  0.00    +0.000 A 
ATOM      9  C   UNL     1       2.617   8.026  17.972  0.00  0.00    +0.000 A 
ATOM     10  C   UNL     1       2.156   9.278  17.573  0.00  0.00    +0.000 A 
ATOM     11  C   UNL     1       1.351  10.021  18.426  0.00  0.00    +0.000 A 
ATOM     12  C   UNL     1       0.989   9.522  19.685  0.00  0.00    +0.000 A 
ATOM     13  C   UNL     1       0.145  10.278  20.513  0.00  0.00    +0.000 A 
ATOM     14  C   UNL     1      -0.254   9.796  21.759  0.00  0.00    +0.000 A 
ATOM     15  C   UNL     1       0.191   8.555  22.189  0.00  0.00    +0.000 A 
ATOM     16  C   UNL     1       1.035   7.789  21.376  0.00  0.00    +0.000 A 
ATOM     17  C   UNL     1       1.460   8.250  20.107  0.00  0.00    +0.000 A 
ENDBRANCH   5   8
BRANCH   2  18
ATOM     18  C   UNL     1       5.157   4.601  18.776  0.00  0.00    +0.000 A 
ATOM     19  C   UNL     1       5.955   5.283  19.713  0.00  0.00    +0.000 A 
ATOM     20  C   UNL     1       7.257   5.697  19.416  0.00  0.00    +0.000 A 
ATOM     21  C   UNL     1       7.804   5.439  18.168  0.00  0.00    +0.000 A 
ATOM     22  C   UNL     1       7.063   4.734  17.225  0.00  0.00    +0.000 A 
ATOM     23  C   UNL     1       5.749   4.338  17.524  0.00  0.00    +0.000 A 
BRANCH  22  24
ATOM     24  O   UNL     1       7.513   4.384  15.980  0.00  0.00    +0.000 OA
BRANCH  24  25
ATOM     25  C   UNL     1       7.183   5.294  14.929  0.00  0.00    +0.000 C 
BRANCH  25  26
ATOM     26  C   UNL     1       6.622   4.502  13.777  0.00  0.00    +0.000 A 
ATOM     27  C   UNL     1       7.378   4.280  12.618  0.00  0.00    +0.000 A 
ATOM     28  C   UNL     1       6.836   3.563  11.551  0.00  0.00    +0.000 A 
ATOM     29  C   UNL     1       5.534   3.068  11.631  0.00  0.00    +0.000 A 
ATOM     30  C   UNL     1       4.773   3.286  12.777  0.00  0.00    +0.000 A 
ATOM     31  C   UNL     1       5.313   4.002  13.845  0.00  0.00    +0.000 A 
ENDBRANCH  25  26
ENDBRANCH  24  25
ENDBRANCH  22  24
ENDBRANCH   2  18
TORSDOF 5
ENDMDL
MODEL 3
REMARK VINA RESULT:      -8.3      2.831      5.445
REMARK  Name = 
REMARK  6 active torsions:
REMARK  status: ('A' for Active; 'I' for Inactive)
REMARK    1  A    between atoms: C_1  and  N_2
REMARK    2  A    between atoms: N_2  and  C_16
REMARK    3  A    between atoms: N_5  and  C_6
REMARK    4  A    between atoms: C_20  and  O_21
REMARK    5  A    between atoms: O_21  and  C_22
REMARK    6  A    between atoms: C_22  and  C_23
REMARK                            x       y       z     vdW  Elec       q    Type
REMARK                         _______ _______ _______ _____ _____    ______ ____
ROOT
ATOM      1  C   UNL     1       4.388   3.352  19.628  0.00  0.00    +0.000 C 
ATOM      2  N   UNL     1       4.292   4.778  19.291  0.00  0.00    +0.000 N 
ATOM      3  C   UNL     1       3.068   5.432  19.423  0.00  0.00    +0.000 C 
ATOM      4  N   UNL     1       1.917   4.835  19.357  0.00  0.00    +0.000 NA
ATOM      5  N   UNL     1       3.163   6.770  19.728  0.00  0.00    +0.000 N 
ATOM      6  H   UNL     1       2.039   3.852  19.127  0.00  0.00    +0.000 HD
ATOM      7  H   UNL     1       4.102   7.110  19.892  0.00  0.00    +0.000 HD
ENDROOT
BRANCH   5   8
ATOM      8  C   UNL     1       2.276   7.798  19.298  0.00  0.00    +0.000 A 
ATOM      9  C   UNL     1       2.156   8.114  17.933  0.00  0.00    +0.000 A 
ATOM     10  C   UNL     1       1.327   9.143  17.495  0.00  0.00    +0.000 A 
ATOM     11  C   UNL     1       0.575   9.862  18.415  0.00  0.00    +0.000 A 
ATOM     12  C   UNL     1       0.636   9.560  19.782  0.00  0.00    +0.000 A 
ATOM     13  C   UNL     1      -0.162  10.278  20.687  0.00  0.00    +0.000 A 
ATOM     14  C   UNL     1      -0.144   9.982  22.049  0.00  0.00    +0.000 A 
ATOM     15  C   UNL     1       0.675   8.966  22.519  0.00  0.00    +0.000 A 
ATOM     16  C   UNL     1       1.478   8.242  21.631  0.00  0.00    +0.000 A 
ATOM     17  C   UNL     1       1.485   8.518  20.242  0.00  0.00    +0.000 A 
ENDBRANCH   5   8
BRANCH   2  18
ATOM     18  C   UNL     1       5.306   5.210  18.374  0.00  0.00    +0.000 A 
ATOM     19  C   UNL     1       5.399   4.671  17.077  0.00  0.00    +0.000 A 
ATOM     20  C   UNL     1       6.392   5.068  16.178  0.00  0.00    +0.000 A 
ATOM     21  C   UNL     1       7.328   6.023  16.549  0.00  0.00    +0.000 A 
ATOM     22  C   UNL     1       7.250   6.609  17.809  0.00  0.00    +0.000 A 
ATOM     23  C   UNL     1       6.260   6.191  18.712  0.00  0.00    +0.000 A 
BRANCH  22  24
ATOM     24  O   UNL     1       8.088   7.589  18.267  0.00  0.00    +0.000 OA
BRANCH  24  25
ATOM     25  C   UNL     1       7.798   8.911  17.807  0.00  0.00    +0.000 C 
BRANCH  25  26
ATOM     26  C   UNL     1       8.806   9.853  18.411  0.00  0.00    +0.000 A 
ATOM     27  C   UNL     1       8.943   9.970  19.800  0.00  0.00    +0.000 A 
ATOM     28  C   UNL     1       9.865  10.864  20.344  0.00  0.00    +0.000 A 
ATOM     29  C   UNL     1      10.653  11.652  19.506  0.00  0.00    +0.000 A 
ATOM     30  C   UNL     1      10.522  11.546  18.122  0.00  0.00    +0.000 A 
ATOM     31  C   UNL     1       9.601  10.654  17.576  0.00  0.00    +0.000 A 
ENDBRANCH  25  26
ENDBRANCH  24  25
ENDBRANCH  22  24
ENDBRANCH   2  18
TORSDOF 5
ENDMDL
MODEL 4
REMARK VINA RESULT:      -8.3      1.035      1.508
REMARK  Name = 
REMARK  6 active torsions:
REMARK  status: ('A' for Active; 'I' for Inactive)
REMARK    1  A    between atoms: C_1  and  N_2
REMARK    2  A    between atoms: N_2  and  C_16
REMARK    3  A    between atoms: N_5  and  C_6
REMARK    4  A    between atoms: C_20  and  O_21
REMARK    5  A    between atoms: O_21  and  C_22
REMARK    6  A    between atoms: C_22  and  C_23
REMARK                            x       y       z     vdW  Elec       q    Type
REMARK                         _______ _______ _______ _____ _____    ______ ____
ROOT
ATOM      1  C   UNL     1       3.097   3.290  20.717  0.00  0.00    +0.000 C 
ATOM      2  N   UNL     1       3.263   4.666  20.231  0.00  0.00    +0.000 N 
ATOM      3  C   UNL     1       2.175   5.538  20.258  0.00  0.00    +0.000 C 
ATOM      4  N   UNL     1       0.937   5.151  20.220  0.00  0.00    +0.000 NA
ATOM      5  N   UNL     1       2.506   6.862  20.426  0.00  0.00    +0.000 N 
ATOM      6  H   UNL     1       0.882   4.144  20.096  0.00  0.00    +0.000 HD
ATOM      7  H   UNL     1       3.489   7.045  20.581  0.00  0.00    +0.000 HD
ENDROOT
BRANCH   5   8
ATOM      8  C   UNL     1       1.824   7.979  19.865  0.00  0.00    +0.000 A 
ATOM      9  C   UNL     1       1.908   8.252  18.488  0.00  0.00    +0.000 A 
ATOM     10  C   UNL     1       1.283   9.362  17.927  0.00  0.00    +0.000 A 
ATOM     11  C   UNL     1       0.534  10.211  18.730  0.00  0.00    +0.000 A 
ATOM     12  C   UNL     1       0.392   9.961  20.101  0.00  0.00    +0.000 A 
ATOM     13  C   UNL     1      -0.401  10.815  20.884  0.00  0.00    +0.000 A 
ATOM     14  C   UNL     1      -0.583  10.575  22.245  0.00  0.00    +0.000 A 
ATOM     15  C   UNL     1       0.029   9.481  22.836  0.00  0.00    +0.000 A 
ATOM     16  C   UNL     1       0.825   8.620  22.071  0.00  0.00    +0.000 A 
ATOM     17  C   UNL     1       1.032   8.836  20.687  0.00  0.00    +0.000 A 
ENDBRANCH   5   8
BRANCH   2  18
ATOM     18  C   UNL     1       4.348   4.810  19.305  0.00  0.00    +0.000 A 
ATOM     19  C   UNL     1       5.639   5.166  19.738  0.00  0.00    +0.000 A 
ATOM     20  C   UNL     1       6.702   5.328  18.846  0.00  0.00    +0.000 A 
ATOM     21  C   UNL     1       6.507   5.138  17.485  0.00  0.00    +0.000 A 
ATOM     22  C   UNL     1       5.255   4.749  17.018  0.00  0.00    +0.000 A 
ATOM     23  C   UNL     1       4.188   4.606  17.919  0.00  0.00    +0.000 A 
BRANCH  22  24
ATOM     24  O   UNL     1       4.956   4.491  15.708  0.00  0.00    +0.000 OA
BRANCH  24  25
ATOM     25  C   UNL     1       5.670   3.402  15.118  0.00  0.00    +0.000 C 
BRANCH  25  26
ATOM     26  C   UNL     1       6.377   3.912  13.890  0.00  0.00    +0.000 A 
ATOM     27  C   UNL     1       7.299   4.964  13.972  0.00  0.00    +0.000 A 
ATOM     28  C   UNL     1       7.929   5.440  12.821  0.00  0.00    +0.000 A 
ATOM     29  C   UNL     1       7.637   4.875  11.580  0.00  0.00    +0.000 A 
ATOM     30  C   UNL     1       6.719   3.831  11.487  0.00  0.00    +0.000 A 
ATOM     31  C   UNL     1       6.089   3.353  12.635  0.00  0.00    +0.000 A 
ENDBRANCH  25  26
ENDBRANCH  24  25
ENDBRANCH  22  24
ENDBRANCH   2  18
TORSDOF 5
ENDMDL
MODEL 5
REMARK VINA RESULT:      -8.2      3.601      7.007
REMARK  Name = 
REMARK  6 active torsions:
REMARK  status: ('A' for Active; 'I' for Inactive)
REMARK    1  A    between atoms: C_1  and  N_2
REMARK    2  A    between atoms: N_2  and  C_16
REMARK    3  A    between atoms: N_5  and  C_6
REMARK    4  A    between atoms: C_20  and  O_21
REMARK    5  A    between atoms: O_21  and  C_22
REMARK    6  A    between atoms: C_22  and  C_23
REMARK                            x       y       z     vdW  Elec       q    Type
REMARK                         _______ _______ _______ _____ _____    ______ ____
ROOT
ATOM      1  C   UNL     1       7.057   4.657  14.699  0.00  0.00    +0.000 C 
ATOM      2  N   UNL     1       6.458   4.445  16.023  0.00  0.00    +0.000 N 
ATOM      3  C   UNL     1       5.160   3.945  16.115  0.00  0.00    +0.000 C 
ATOM      4  N   UNL     1       4.262   4.089  15.189  0.00  0.00    +0.000 NA
ATOM      5  N   UNL     1       4.914   3.193  17.240  0.00  0.00    +0.000 N 
ATOM      6  H   UNL     1       4.618   4.670  14.434  0.00  0.00    +0.000 HD
ATOM      7  H   UNL     1       5.716   3.028  17.833  0.00  0.00    +0.000 HD
ENDROOT
BRANCH   5   8
ATOM      8  C   UNL     1       3.683   3.119  17.952  0.00  0.00    +0.000 A 
ATOM      9  C   UNL     1       2.936   1.927  17.968  0.00  0.00    +0.000 A 
ATOM     10  C   UNL     1       1.710   1.846  18.623  0.00  0.00    +0.000 A 
ATOM     11  C   UNL     1       1.216   2.952  19.302  0.00  0.00    +0.000 A 
ATOM     12  C   UNL     1       1.942   4.150  19.344  0.00  0.00    +0.000 A 
ATOM     13  C   UNL     1       1.437   5.241  20.068  0.00  0.00    +0.000 A 
ATOM     14  C   UNL     1       2.149   6.437  20.150  0.00  0.00    +0.000 A 
ATOM     15  C   UNL     1       3.371   6.553  19.506  0.00  0.00    +0.000 A 
ATOM     16  C   UNL     1       3.888   5.475  18.777  0.00  0.00    +0.000 A 
ATOM     17  C   UNL     1       3.189   4.248  18.672  0.00  0.00    +0.000 A 
ENDBRANCH   5   8
BRANCH   2  18
ATOM     18  C   UNL     1       7.051   5.256  17.046  0.00  0.00    +0.000 A 
ATOM     19  C   UNL     1       7.697   4.679  18.156  0.00  0.00    +0.000 A 
ATOM     20  C   UNL     1       8.263   5.456  19.170  0.00  0.00    +0.000 A 
ATOM     21  C   UNL     1       8.201   6.840  19.107  0.00  0.00    +0.000 A 
ATOM     22  C   UNL     1       7.604   7.452  18.009  0.00  0.00    +0.000 A 
ATOM     23  C   UNL     1       7.022   6.664  17.002  0.00  0.00    +0.000 A 
BRANCH  22  24
ATOM     24  O   UNL     1       7.523   8.805  17.816  0.00  0.00    +0.000 OA
BRANCH  24  25
ATOM     25  C   UNL     1       8.750   9.450  17.466  0.00  0.00    +0.000 C 
BRANCH  25  26
ATOM     26  C   UNL     1       8.987  10.574  18.440  0.00  0.00    +0.000 A 
ATOM     27  C   UNL     1       8.980  11.909  18.017  0.00  0.00    +0.000 A 
ATOM     28  C   UNL     1       9.224  12.937  18.927  0.00  0.00    +0.000 A 
ATOM     29  C   UNL     1       9.483  12.640  20.265  0.00  0.00    +0.000 A 
ATOM     30  C   UNL     1       9.495  11.315  20.696  0.00  0.00    +0.000 A 
ATOM     31  C   UNL     1       9.251  10.285  19.788  0.00  0.00    +0.000 A 
ENDBRANCH  25  26
ENDBRANCH  24  25
ENDBRANCH  22  24
ENDBRANCH   2  18
TORSDOF 5
ENDMDL
MODEL 6
REMARK VINA RESULT:      -8.2      2.867      5.409
REMARK  Name = 
REMARK  6 active torsions:
REMARK  status: ('A' for Active; 'I' for Inactive)
REMARK    1  A    between atoms: C_1  and  N_2
REMARK    2  A    between atoms: N_2  and  C_16
REMARK    3  A    between atoms: N_5  and  C_6
REMARK    4  A    between atoms: C_20  and  O_21
REMARK    5  A    between atoms: O_21  and  C_22
REMARK    6  A    between atoms: C_22  and  C_23
REMARK                            x       y       z     vdW  Elec       q    Type
REMARK                         _______ _______ _______ _____ _____    ______ ____
ROOT
ATOM      1  C   UNL     1       3.806   8.155  17.161  0.00  0.00    +0.000 C 
ATOM      2  N   UNL     1       2.461   8.240  17.743  0.00  0.00    +0.000 N 
ATOM      3  C   UNL     1       1.788   9.462  17.738  0.00  0.00    +0.000 C 
ATOM      4  N   UNL     1       2.384  10.615  17.709  0.00  0.00    +0.000 NA
ATOM      5  N   UNL     1       0.418   9.362  17.671  0.00  0.00    +0.000 N 
ATOM      6  H   UNL     1       3.392  10.498  17.763  0.00  0.00    +0.000 HD
ATOM      7  H   UNL     1       0.059   8.423  17.562  0.00  0.00    +0.000 HD
ENDROOT
BRANCH   5   8
ATOM      8  C   UNL     1      -0.522  10.240  18.282  0.00  0.00    +0.000 A 
ATOM      9  C   UNL     1      -0.221  10.874  19.501  0.00  0.00    +0.000 A 
ATOM     10  C   UNL     1      -1.142  11.702  20.136  0.00  0.00    +0.000 A 
ATOM     11  C   UNL     1      -2.378  11.938  19.549  0.00  0.00    +0.000 A 
ATOM     12  C   UNL     1      -2.709  11.356  18.318  0.00  0.00    +0.000 A 
ATOM     13  C   UNL     1      -3.951  11.639  17.729  0.00  0.00    +0.000 A 
ATOM     14  C   UNL     1      -4.297  11.097  16.492  0.00  0.00    +0.000 A 
ATOM     15  C   UNL     1      -3.404  10.264  15.835  0.00  0.00    +0.000 A 
ATOM     16  C   UNL     1      -2.163   9.969  16.409  0.00  0.00    +0.000 A 
ATOM     17  C   UNL     1      -1.781  10.502  17.664  0.00  0.00    +0.000 A 
ENDBRANCH   5   8
BRANCH   2  18
ATOM     18  C   UNL     1       2.200   7.217  18.713  0.00  0.00    +0.000 A 
ATOM     19  C   UNL     1       1.897   7.535  20.050  0.00  0.00    +0.000 A 
ATOM     20  C   UNL     1       1.659   6.548  21.011  0.00  0.00    +0.000 A 
ATOM     21  C   UNL     1       1.715   5.206  20.663  0.00  0.00    +0.000 A 
ATOM     22  C   UNL     1       1.974   4.849  19.343  0.00  0.00    +0.000 A 
ATOM     23  C   UNL     1       2.230   5.846  18.388  0.00  0.00    +0.000 A 
BRANCH  22  24
ATOM     24  O   UNL     1       2.011   3.563  18.875  0.00  0.00    +0.000 OA
BRANCH  24  25
ATOM     25  C   UNL     1       3.214   2.843  19.151  0.00  0.00    +0.000 C 
BRANCH  25  26
ATOM     26  C   UNL     1       4.329   3.463  18.351  0.00  0.00    +0.000 A 
ATOM     27  C   UNL     1       5.354   4.183  18.979  0.00  0.00    +0.000 A 
ATOM     28  C   UNL     1       6.367   4.771  18.222  0.00  0.00    +0.000 A 
ATOM     29  C   UNL     1       6.362   4.651  16.833  0.00  0.00    +0.000 A 
ATOM     30  C   UNL     1       5.345   3.940  16.198  0.00  0.00    +0.000 A 
ATOM     31  C   UNL     1       4.332   3.351  16.952  0.00  0.00    +0.000 A 
ENDBRANCH  25  26
ENDBRANCH  24  25
ENDBRANCH  22  24
ENDBRANCH   2  18
TORSDOF 5
ENDMDL
MODEL 7
REMARK VINA RESULT:      -8.1      2.339      4.342
REMARK  Name = 
REMARK  6 active torsions:
REMARK  status: ('A' for Active; 'I' for Inactive)
REMARK    1  A    between atoms: C_1  and  N_2
REMARK    2  A    between atoms: N_2  and  C_16
REMARK    3  A    between atoms: N_5  and  C_6
REMARK    4  A    between atoms: C_20  and  O_21
REMARK    5  A    between atoms: O_21  and  C_22
REMARK    6  A    between atoms: C_22  and  C_23
REMARK                            x       y       z     vdW  Elec       q    Type
REMARK                         _______ _______ _______ _____ _____    ______ ____
ROOT
ATOM      1  C   UNL     1       3.061   2.966  20.592  0.00  0.00    +0.000 C 
ATOM      2  N   UNL     1       3.234   4.264  19.927  0.00  0.00    +0.000 N 
ATOM      3  C   UNL     1       2.277   5.262  20.113  0.00  0.00    +0.000 C 
ATOM      4  N   UNL     1       1.037   5.028  20.417  0.00  0.00    +0.000 NA
ATOM      5  N   UNL     1       2.767   6.545  20.044  0.00  0.00    +0.000 N 
ATOM      6  H   UNL     1       0.855   4.028  20.426  0.00  0.00    +0.000 HD
ATOM      7  H   UNL     1       3.770   6.619  19.938  0.00  0.00    +0.000 HD
ENDROOT
BRANCH   5   8
ATOM      8  C   UNL     1       2.078   7.685  19.539  0.00  0.00    +0.000 A 
ATOM      9  C   UNL     1       2.081   7.970  18.162  0.00  0.00    +0.000 A 
ATOM     10  C   UNL     1       1.449   9.101  17.653  0.00  0.00    +0.000 A 
ATOM     11  C   UNL     1       0.775   9.960  18.510  0.00  0.00    +0.000 A 
ATOM     12  C   UNL     1       0.715   9.698  19.886  0.00  0.00    +0.000 A 
ATOM     13  C   UNL     1      -0.005  10.562  20.726  0.00  0.00    +0.000 A 
ATOM     14  C   UNL     1      -0.105  10.312  22.093  0.00  0.00    +0.000 A 
ATOM     15  C   UNL     1       0.516   9.196  22.634  0.00  0.00    +0.000 A 
ATOM     16  C   UNL     1       1.240   8.325  21.811  0.00  0.00    +0.000 A 
ATOM     17  C   UNL     1       1.363   8.551  20.419  0.00  0.00    +0.000 A 
ENDBRANCH   5   8
BRANCH   2  18
ATOM     18  C   UNL     1       4.060   4.193  18.758  0.00  0.00    +0.000 A 
ATOM     19  C   UNL     1       3.533   3.814  17.509  0.00  0.00    +0.000 A 
ATOM     20  C   UNL     1       4.330   3.723  16.365  0.00  0.00    +0.000 A 
ATOM     21  C   UNL     1       5.686   4.009  16.433  0.00  0.00    +0.000 A 
ATOM     22  C   UNL     1       6.241   4.424  17.640  0.00  0.00    +0.000 A 
ATOM     23  C   UNL     1       5.437   4.496  18.789  0.00  0.00    +0.000 A 
BRANCH  22  24
ATOM     24  O   UNL     1       7.552   4.775  17.817  0.00  0.00    +0.000 OA
BRANCH  24  25
ATOM     25  C   UNL     1       7.830   5.540  18.992  0.00  0.00    +0.000 C 
BRANCH  25  26
ATOM     26  C   UNL     1       7.925   6.990  18.598  0.00  0.00    +0.000 A 
ATOM     27  C   UNL     1       7.195   7.494  17.514  0.00  0.00    +0.000 A 
ATOM     28  C   UNL     1       7.313   8.835  17.148  0.00  0.00    +0.000 A 
ATOM     29  C   UNL     1       8.164   9.681  17.858  0.00  0.00    +0.000 A 
ATOM     30  C   UNL     1       8.897   9.190  18.936  0.00  0.00    +0.000 A 
ATOM     31  C   UNL     1       8.782   7.850  19.304  0.00  0.00    +0.000 A 
ENDBRANCH  25  26
ENDBRANCH  24  25
ENDBRANCH  22  24
ENDBRANCH   2  18
TORSDOF 5
ENDMDL
MODEL 8
REMARK VINA RESULT:      -8.0      4.546      7.140
REMARK  Name = 
REMARK  6 active torsions:
REMARK  status: ('A' for Active; 'I' for Inactive)
REMARK    1  A    between atoms: C_1  and  N_2
REMARK    2  A    between atoms: N_2  and  C_16
REMARK    3  A    between atoms: N_5  and  C_6
REMARK    4  A    between atoms: C_20  and  O_21
REMARK    5  A    between atoms: O_21  and  C_22
REMARK    6  A    between atoms: C_22  and  C_23
REMARK                            x       y       z     vdW  Elec       q    Type
REMARK                         _______ _______ _______ _____ _____    ______ ____
ROOT
ATOM      1  C   UNL     1      -2.323  10.478  18.398  0.00  0.00    +0.000 C 
ATOM      2  N   UNL     1      -1.041  11.057  18.821  0.00  0.00    +0.000 N 
ATOM      3  C   UNL     1      -0.666  12.313  18.345  0.00  0.00    +0.000 C 
ATOM      4  N   UNL     1      -1.085  12.816  17.224  0.00  0.00    +0.000 NA
ATOM      5  N   UNL     1       0.122  13.040  19.205  0.00  0.00    +0.000 N 
ATOM      6  H   UNL     1      -1.657  12.141  16.721  0.00  0.00    +0.000 HD
ATOM      7  H   UNL     1       0.281  12.615  20.109  0.00  0.00    +0.000 HD
ENDROOT
BRANCH   5   8
ATOM      8  C   UNL     1       1.157  13.946  18.838  0.00  0.00    +0.000 A 
ATOM      9  C   UNL     1       2.459  13.480  18.580  0.00  0.00    +0.000 A 
ATOM     10  C   UNL     1       3.494  14.353  18.260  0.00  0.00    +0.000 A 
ATOM     11  C   UNL     1       3.243  15.715  18.164  0.00  0.00    +0.000 A 
ATOM     12  C   UNL     1       1.954  16.223  18.378  0.00  0.00    +0.000 A 
ATOM     13  C   UNL     1       1.720  17.600  18.238  0.00  0.00    +0.000 A 
ATOM     14  C   UNL     1       0.443  18.130  18.418  0.00  0.00    +0.000 A 
ATOM     15  C   UNL     1      -0.610  17.288  18.741  0.00  0.00    +0.000 A 
ATOM     16  C   UNL     1      -0.393  15.913  18.886  0.00  0.00    +0.000 A 
ATOM     17  C   UNL     1       0.891  15.343  18.713  0.00  0.00    +0.000 A 
ENDBRANCH   5   8
BRANCH   2  18
ATOM     18  C   UNL     1      -0.088  10.071  19.239  0.00  0.00    +0.000 A 
ATOM     19  C   UNL     1      -0.022   9.637  20.576  0.00  0.00    +0.000 A 
ATOM     20  C   UNL     1       0.914   8.690  21.002  0.00  0.00    +0.000 A 
ATOM     21  C   UNL     1       1.817   8.145  20.101  0.00  0.00    +0.000 A 
ATOM     22  C   UNL     1       1.761   8.519  18.762  0.00  0.00    +0.000 A 
ATOM     23  C   UNL     1       0.830   9.484  18.345  0.00  0.00    +0.000 A 
BRANCH  22  24
ATOM     24  O   UNL     1       2.569   8.017  17.776  0.00  0.00    +0.000 OA
BRANCH  24  25
ATOM     25  C   UNL     1       3.638   7.181  18.225  0.00  0.00    +0.000 C 
BRANCH  25  26
ATOM     26  C   UNL     1       3.317   5.760  17.842  0.00  0.00    +0.000 A 
ATOM     27  C   UNL     1       2.064   5.203  18.123  0.00  0.00    +0.000 A 
ATOM     28  C   UNL     1       1.790   3.877  17.783  0.00  0.00    +0.000 A 
ATOM     29  C   UNL     1       2.768   3.098  17.166  0.00  0.00    +0.000 A 
ATOM     30  C   UNL     1       4.020   3.642  16.885  0.00  0.00    +0.000 A 
ATOM     31  C   UNL     1       4.295   4.966  17.224  0.00  0.00    +0.000 A 
ENDBRANCH  25  26
ENDBRANCH  24  25
ENDBRANCH  22  24
ENDBRANCH   2  18
TORSDOF 5
ENDMDL
MODEL 9
REMARK VINA RESULT:      -8.0      4.439      7.245
REMARK  Name = 
REMARK  6 active torsions:
REMARK  status: ('A' for Active; 'I' for Inactive)
REMARK    1  A    between atoms: C_1  and  N_2
REMARK    2  A    between atoms: N_2  and  C_16
REMARK    3  A    between atoms: N_5  and  C_6
REMARK    4  A    between atoms: C_20  and  O_21
REMARK    5  A    between atoms: O_21  and  C_22
REMARK    6  A    between atoms: C_22  and  C_23
REMARK                            x       y       z     vdW  Elec       q    Type
REMARK                         _______ _______ _______ _____ _____    ______ ____
ROOT
ATOM      1  C   UNL     1      -2.387  10.341  18.455  0.00  0.00    +0.000 C 
ATOM      2  N   UNL     1      -1.126  10.953  18.891  0.00  0.00    +0.000 N 
ATOM      3  C   UNL     1      -0.757  12.198  18.381  0.00  0.00    +0.000 C 
ATOM      4  N   UNL     1      -1.154  12.656  17.233  0.00  0.00    +0.000 NA
ATOM      5  N   UNL     1      -0.002  12.966  19.236  0.00  0.00    +0.000 N 
ATOM      6  H   UNL     1      -1.703  11.957  16.740  0.00  0.00    +0.000 HD
ATOM      7  H   UNL     1       0.140  12.575  20.157  0.00  0.00    +0.000 HD
ENDROOT
BRANCH   5   8
ATOM      8  C   UNL     1       1.029  13.876  18.864  0.00  0.00    +0.000 A 
ATOM      9  C   UNL     1       2.314  13.406  18.536  0.00  0.00    +0.000 A 
ATOM     10  C   UNL     1       3.346  14.281  18.210  0.00  0.00    +0.000 A 
ATOM     11  C   UNL     1       3.108  15.649  18.178  0.00  0.00    +0.000 A 
ATOM     12  C   UNL     1       1.835  16.161  18.463  0.00  0.00    +0.000 A 
ATOM     13  C   UNL     1       1.612  17.545  18.387  0.00  0.00    +0.000 A 
ATOM     14  C   UNL     1       0.350  18.081  18.638  0.00  0.00    +0.000 A 
ATOM     15  C   UNL     1      -0.700  17.237  18.970  0.00  0.00    +0.000 A 
ATOM     16  C   UNL     1      -0.494  15.855  19.052  0.00  0.00    +0.000 A 
ATOM     17  C   UNL     1       0.775  15.279  18.805  0.00  0.00    +0.000 A 
ENDBRANCH   5   8
BRANCH   2  18
ATOM     18  C   UNL     1      -0.169   9.998  19.366  0.00  0.00    +0.000 A 
ATOM     19  C   UNL     1      -0.199   9.528  20.693  0.00  0.00    +0.000 A 
ATOM     20  C   UNL     1       0.738   8.611  21.176  0.00  0.00    +0.000 A 
ATOM     21  C   UNL     1       1.738   8.130  20.344  0.00  0.00    +0.000 A 
ATOM     22  C   UNL     1       1.782   8.540  19.015  0.00  0.00    +0.000 A 
ATOM     23  C   UNL     1       0.848   9.475  18.542  0.00  0.00    +0.000 A 
BRANCH  22  24
ATOM     24  O   UNL     1       2.693   8.101  18.092  0.00  0.00    +0.000 OA
BRANCH  24  25
ATOM     25  C   UNL     1       2.801   6.681  17.961  0.00  0.00    +0.000 C 
BRANCH  25  26
ATOM     26  C   UNL     1       4.255   6.306  18.075  0.00  0.00    +0.000 A 
ATOM     27  C   UNL     1       4.711   5.494  19.122  0.00  0.00    +0.000 A 
ATOM     28  C   UNL     1       6.065   5.175  19.226  0.00  0.00    +0.000 A 
ATOM     29  C   UNL     1       6.974   5.667  18.291  0.00  0.00    +0.000 A 
ATOM     30  C   UNL     1       6.531   6.478  17.248  0.00  0.00    +0.000 A 
ATOM     31  C   UNL     1       5.179   6.799  17.141  0.00  0.00    +0.000 A 
ENDBRANCH  25  26
ENDBRANCH  24  25
ENDBRANCH  22  24
ENDBRANCH   2  18
TORSDOF 5
ENDMDL
