MODEL 1
REMARK VINA RESULT:      -7.3      0.000      0.000
REMARK  Name = 
REMARK  15 active torsions:
REMARK  status: ('A' for Active; 'I' for Inactive)
REMARK    1  A    between atoms: C_1  and  C_2
REMARK    2  A    between atoms: C_2  and  C_3
REMARK    3  A    between atoms: C_2  and  C_4
REMARK    4  A    between atoms: C_4  and  N_5
REMARK    5  A    between atoms: N_5  and  C_6
REMARK    6  A    between atoms: N_5  and  C_27
REMARK    7  A    between atoms: C_6  and  C_7
REMARK    8  A    between atoms: C_7  and  C_8
REMARK    9  A    between atoms: C_8  and  N_9
REMARK   10  A    between atoms: C_10  and  C_12
REMARK   11  A    between atoms: C_12  and  N_13
REMARK   12  A    between atoms: C_15  and  C_16
REMARK   13  A    between atoms: C_27  and  C_28
REMARK   14  A    between atoms: C_28  and  C_29
REMARK   15  A    between atoms: C_28  and  C_30
REMARK                            x       y       z     vdW  Elec       q    Type
REMARK                         _______ _______ _______ _____ _____    ______ ____
ROOT
ATOM      1  N   UNL     1       7.558   8.306  17.381  0.00  0.00    +0.000 N 
ATOM      2  C   UNL     1       7.293   6.952  17.523  0.00  0.00    +0.000 C 
ATOM      3  O   UNL     1       7.710   6.290  18.473  0.00  0.00    +0.000 OA
ATOM      4  H   UNL     1       7.523   8.661  16.425  0.00  0.00    +0.000 HD
ENDROOT
BRANCH   1   5
ATOM      5  C   UNL     1       8.371   9.009  18.352  0.00  0.00    +0.000 C 
BRANCH   5   6
ATOM      6  C   UNL     1       9.013  10.269  17.771  0.00  0.00    +0.000 C 
BRANCH   6   7
ATOM      7  C   UNL     1       9.183  11.368  18.838  0.00  0.00    +0.000 C 
BRANCH   7   8
ATOM      8  N   UNL     1      10.539  11.492  19.445  0.00  0.00    +0.000 NA
BRANCH   8   9
ATOM      9  C   UNL     1      10.411  11.762  20.905  0.00  0.00    +0.000 C 
BRANCH   9  11
ATOM     10  C   UNL     1       8.392  11.895  22.479  0.00  0.00    +0.000 C 
ATOM     11  C   UNL     1       9.172  12.586  21.358  0.00  0.00    +0.000 C 
ATOM     12  C   UNL     1       9.583  13.986  21.832  0.00  0.00    +0.000 C 
ENDBRANCH   9  11
ENDBRANCH   8   9
BRANCH   8  13
ATOM     13  C   UNL     1      11.283  12.589  18.771  0.00  0.00    +0.000 C 
BRANCH  13  14
ATOM     14  C   UNL     1      10.557  13.453  17.709  0.00  0.00    +0.000 C 
ATOM     15  C   UNL     1      10.292  14.885  18.179  0.00  0.00    +0.000 C 
ATOM     16  C   UNL     1      11.414  13.492  16.436  0.00  0.00    +0.000 C 
ENDBRANCH  13  14
ENDBRANCH   8  13
ENDBRANCH   7   8
ENDBRANCH   6   7
ENDBRANCH   5   6
ENDBRANCH   1   5
BRANCH   2  17
ATOM     17  C   UNL     1       6.469   6.360  16.388  0.00  0.00    +0.000 C 
BRANCH  17  18
ATOM     18  N   UNL     1       5.162   5.938  16.875  0.00  0.00    +0.000 N 
ATOM     19  N   UNL     1       4.318   6.933  17.314  0.00  0.00    +0.000 NA
ATOM     20  C   UNL     1       3.267   6.611  18.000  0.00  0.00    +0.000 C 
ATOM     21  C   UNL     1       2.881   5.177  18.287  0.00  0.00    +0.000 C 
ATOM     22  C   UNL     1       3.441   4.260  17.228  0.00  0.00    +0.000 C 
ATOM     23  C   UNL     1       4.882   4.582  16.962  0.00  0.00    +0.000 C 
ATOM     24  O   UNL     1       5.717   3.699  16.759  0.00  0.00    +0.000 OA
BRANCH  20  25
ATOM     25  C   UNL     1       2.440   7.686  18.620  0.00  0.00    +0.000 A 
ATOM     26  C   UNL     1       2.055   7.586  19.964  0.00  0.00    +0.000 A 
ATOM     27  C   UNL     1       1.237   8.567  20.535  0.00  0.00    +0.000 A 
ATOM     28  C   UNL     1       0.793   9.638  19.757  0.00  0.00    +0.000 A 
ATOM     29 CL   UNL     1      -0.222  10.840  20.449  0.00  0.00    +0.000 Cl
ATOM     30  C   UNL     1       1.166   9.736  18.419  0.00  0.00    +0.000 A 
ATOM     31  C   UNL     1       1.986   8.763  17.846  0.00  0.00    +0.000 A 
ENDBRANCH  20  25
ENDBRANCH  17  18
ENDBRANCH   2  17
TORSDOF 11
ENDMDL
MODEL 2
REMARK VINA RESULT:      -7.0      6.179      9.190
REMARK  Name = 
REMARK  15 active torsions:
REMARK  status: ('A' for Active; 'I' for Inactive)
REMARK    1  A    between atoms: C_1  and  C_2
REMARK    2  A    between atoms: C_2  and  C_3
REMARK    3  A    between atoms: C_2  and  C_4
REMARK    4  A    between atoms: C_4  and  N_5
REMARK    5  A    between atoms: N_5  and  C_6
REMARK    6  A    between atoms: N_5  and  C_27
REMARK    7  A    between atoms: C_6  and  C_7
REMARK    8  A    between atoms: C_7  and  C_8
REMARK    9  A    between atoms: C_8  and  N_9
REMARK   10  A    between atoms: C_10  and  C_12
REMARK   11  A    between atoms: C_12  and  N_13
REMARK   12  A    between atoms: C_15  and  C_16
REMARK   13  A    between atoms: C_27  and  C_28
REMARK   14  A    between atoms: C_28  and  C_29
REMARK   15  A    between atoms: C_28  and  C_30
REMARK                            x       y       z     vdW  Elec       q    Type
REMARK                         _______ _______ _______ _____ _____    ______ ____
ROOT
ATOM      1  N   UNL     1       1.555   7.706  20.997  0.00  0.00    +0.000 N 
ATOM      2  C   UNL     1       0.517   8.516  21.432  0.00  0.00    +0.000 C 
ATOM      3  O   UNL     1      -0.547   8.063  21.850  0.00  0.00    +0.000 OA
ATOM      4  H   UNL     1       2.198   8.137  20.330  0.00  0.00    +0.000 HD
ENDROOT
BRANCH   1   5
ATOM      5  C   UNL     1       1.421   6.263  20.996  0.00  0.00    +0.000 C 
BRANCH   5   6
ATOM      6  C   UNL     1       1.877   5.636  19.678  0.00  0.00    +0.000 C 
BRANCH   6   7
ATOM      7  C   UNL     1       3.321   6.038  19.323  0.00  0.00    +0.000 C 
BRANCH   7   8
ATOM      8  N   UNL     1       4.278   4.919  19.089  0.00  0.00    +0.000 NA
BRANCH   8   9
ATOM      9  C   UNL     1       5.501   5.438  18.412  0.00  0.00    +0.000 C 
BRANCH   9  11
ATOM     10  C   UNL     1       5.327   6.364  16.028  0.00  0.00    +0.000 C 
ATOM     11  C   UNL     1       5.637   5.139  16.892  0.00  0.00    +0.000 C 
ATOM     12  C   UNL     1       7.046   4.639  16.552  0.00  0.00    +0.000 C 
ENDBRANCH   9  11
ENDBRANCH   8   9
BRANCH   8  13
ATOM     13  C   UNL     1       3.621   3.873  18.261  0.00  0.00    +0.000 C 
BRANCH  13  14
ATOM     14  C   UNL     1       3.597   2.411  18.769  0.00  0.00    +0.000 C 
ATOM     15  C   UNL     1       4.350   2.220  20.088  0.00  0.00    +0.000 C 
ATOM     16  C   UNL     1       2.135   1.979  18.959  0.00  0.00    +0.000 C 
ENDBRANCH  13  14
ENDBRANCH   8  13
ENDBRANCH   7   8
ENDBRANCH   6   7
ENDBRANCH   5   6
ENDBRANCH   1   5
BRANCH   2  17
ATOM     17  C   UNL     1       0.806  10.006  21.316  0.00  0.00    +0.000 C 
BRANCH  17  18
ATOM     18  N   UNL     1      -0.408  10.733  20.969  0.00  0.00    +0.000 N 
ATOM     19  N   UNL     1      -1.004  10.400  19.773  0.00  0.00    +0.000 NA
ATOM     20  C   UNL     1      -1.915  11.181  19.284  0.00  0.00    +0.000 C 
ATOM     21  C   UNL     1      -2.410  12.416  20.003  0.00  0.00    +0.000 C 
ATOM     22  C   UNL     1      -2.213  12.273  21.490  0.00  0.00    +0.000 C 
ATOM     23  C   UNL     1      -0.834  11.764  21.792  0.00  0.00    +0.000 C 
ATOM     24  O   UNL     1      -0.182  12.187  22.748  0.00  0.00    +0.000 OA
BRANCH  20  25
ATOM     25  C   UNL     1      -2.446  10.918  17.915  0.00  0.00    +0.000 A 
ATOM     26  C   UNL     1      -3.656  11.498  17.510  0.00  0.00    +0.000 A 
ATOM     27  C   UNL     1      -4.181  11.214  16.245  0.00  0.00    +0.000 A 
ATOM     28  C   UNL     1      -3.506  10.339  15.394  0.00  0.00    +0.000 A 
ATOM     29 CL   UNL     1      -4.153   9.975  13.843  0.00  0.00    +0.000 Cl
ATOM     30  C   UNL     1      -2.307   9.753  15.796  0.00  0.00    +0.000 A 
ATOM     31  C   UNL     1      -1.776  10.037  17.055  0.00  0.00    +0.000 A 
ENDBRANCH  20  25
ENDBRANCH  17  18
ENDBRANCH   2  17
TORSDOF 11
ENDMDL
MODEL 3
REMARK VINA RESULT:      -7.0      6.356      9.146
REMARK  Name = 
REMARK  15 active torsions:
REMARK  status: ('A' for Active; 'I' for Inactive)
REMARK    1  A    between atoms: C_1  and  C_2
REMARK    2  A    between atoms: C_2  and  C_3
REMARK    3  A    between atoms: C_2  and  C_4
REMARK    4  A    between atoms: C_4  and  N_5
REMARK    5  A    between atoms: N_5  and  C_6
REMARK    6  A    between atoms: N_5  and  C_27
REMARK    7  A    between atoms: C_6  and  C_7
REMARK    8  A    between atoms: C_7  and  C_8
REMARK    9  A    between atoms: C_8  and  N_9
REMARK   10  A    between atoms: C_10  and  C_12
REMARK   11  A    between atoms: C_12  and  N_13
REMARK   12  A    between atoms: C_15  and  C_16
REMARK   13  A    between atoms: C_27  and  C_28
REMARK   14  A    between atoms: C_28  and  C_29
REMARK   15  A    between atoms: C_28  and  C_30
REMARK                            x       y       z     vdW  Elec       q    Type
REMARK                         _______ _______ _______ _____ _____    ______ ____
ROOT
ATOM      1  N   UNL     1       1.656   8.333  20.877  0.00  0.00    +0.000 N 
ATOM      2  C   UNL     1       0.549   8.904  21.485  0.00  0.00    +0.000 C 
ATOM      3  O   UNL     1      -0.438   8.248  21.817  0.00  0.00    +0.000 OA
ATOM      4  H   UNL     1       2.216   8.966  20.303  0.00  0.00    +0.000 HD
ENDROOT
BRANCH   1   5
ATOM      5  C   UNL     1       1.692   6.915  20.580  0.00  0.00    +0.000 C 
BRANCH   5   6
ATOM      6  C   UNL     1       2.653   6.582  19.438  0.00  0.00    +0.000 C 
BRANCH   6   7
ATOM      7  C   UNL     1       3.615   5.441  19.815  0.00  0.00    +0.000 C 
BRANCH   7   8
ATOM      8  N   UNL     1       3.878   4.423  18.757  0.00  0.00    +0.000 NA
BRANCH   8   9
ATOM      9  C   UNL     1       3.428   3.083  19.228  0.00  0.00    +0.000 C 
BRANCH   9  11
ATOM     10  C   UNL     1       1.063   2.849  20.190  0.00  0.00    +0.000 C 
ATOM     11  C   UNL     1       1.945   2.705  18.947  0.00  0.00    +0.000 C 
ATOM     12  C   UNL     1       1.359   3.567  17.822  0.00  0.00    +0.000 C 
ENDBRANCH   9  11
ENDBRANCH   8   9
BRANCH   8  13
ATOM     13  C   UNL     1       5.330   4.408  18.437  0.00  0.00    +0.000 C 
BRANCH  13  14
ATOM     14  C   UNL     1       5.779   4.469  16.956  0.00  0.00    +0.000 C 
ATOM     15  C   UNL     1       5.168   5.645  16.191  0.00  0.00    +0.000 C 
ATOM     16  C   UNL     1       7.310   4.581  16.909  0.00  0.00    +0.000 C 
ENDBRANCH  13  14
ENDBRANCH   8  13
ENDBRANCH   7   8
ENDBRANCH   6   7
ENDBRANCH   5   6
ENDBRANCH   1   5
BRANCH   2  17
ATOM     17  C   UNL     1       0.655  10.411  21.674  0.00  0.00    +0.000 C 
BRANCH  17  18
ATOM     18  N   UNL     1      -0.577  11.064  21.251  0.00  0.00    +0.000 N 
ATOM     19  N   UNL     1      -1.121  10.639  20.060  0.00  0.00    +0.000 NA
ATOM     20  C   UNL     1      -2.048  11.352  19.501  0.00  0.00    +0.000 C 
ATOM     21  C   UNL     1      -2.615  12.603  20.133  0.00  0.00    +0.000 C 
ATOM     22  C   UNL     1      -2.458  12.553  21.632  0.00  0.00    +0.000 C 
ATOM     23  C   UNL     1      -1.069  12.121  22.002  0.00  0.00    +0.000 C 
ATOM     24  O   UNL     1      -0.465  12.625  22.950  0.00  0.00    +0.000 OA
BRANCH  20  25
ATOM     25  C   UNL     1      -2.524  10.990  18.135  0.00  0.00    +0.000 A 
ATOM     26  C   UNL     1      -1.798  10.076  17.360  0.00  0.00    +0.000 A 
ATOM     27  C   UNL     1      -2.214   9.772  16.059  0.00  0.00    +0.000 A 
ATOM     28  C   UNL     1      -3.345  10.395  15.530  0.00  0.00    +0.000 A 
ATOM     29 CL   UNL     1      -3.853  10.036  13.927  0.00  0.00    +0.000 Cl
ATOM     30  C   UNL     1      -4.064  11.311  16.293  0.00  0.00    +0.000 A 
ATOM     31  C   UNL     1      -3.657  11.614  17.593  0.00  0.00    +0.000 A 
ENDBRANCH  20  25
ENDBRANCH  17  18
ENDBRANCH   2  17
TORSDOF 11
ENDMDL
MODEL 4
REMARK VINA RESULT:      -7.0      1.655      2.126
REMARK  Name = 
REMARK  15 active torsions:
REMARK  status: ('A' for Active; 'I' for Inactive)
REMARK    1  A    between atoms: C_1  and  C_2
REMARK    2  A    between atoms: C_2  and  C_3
REMARK    3  A    between atoms: C_2  and  C_4
REMARK    4  A    between atoms: C_4  and  N_5
REMARK    5  A    between atoms: N_5  and  C_6
REMARK    6  A    between atoms: N_5  and  C_27
REMARK    7  A    between atoms: C_6  and  C_7
REMARK    8  A    between atoms: C_7  and  C_8
REMARK    9  A    between atoms: C_8  and  N_9
REMARK   10  A    between atoms: C_10  and  C_12
REMARK   11  A    between atoms: C_12  and  N_13
REMARK   12  A    between atoms: C_15  and  C_16
REMARK   13  A    between atoms: C_27  and  C_28
REMARK   14  A    between atoms: C_28  and  C_29
REMARK   15  A    between atoms: C_28  and  C_30
REMARK                            x       y       z     vdW  Elec       q    Type
REMARK                         _______ _______ _______ _____ _____    ______ ____
ROOT
ATOM      1  N   UNL     1       7.000   6.887  18.127  0.00  0.00    +0.000 N 
ATOM      2  C   UNL     1       6.419   5.797  17.497  0.00  0.00    +0.000 C 
ATOM      3  O   UNL     1       6.110   5.805  16.306  0.00  0.00    +0.000 OA
ATOM      4  H   UNL     1       6.858   6.936  19.137  0.00  0.00    +0.000 HD
ENDROOT
BRANCH   1   5
ATOM      5  C   UNL     1       7.252   8.116  17.402  0.00  0.00    +0.000 C 
BRANCH   5   6
ATOM      6  C   UNL     1       8.656   8.666  17.656  0.00  0.00    +0.000 C 
BRANCH   6   7
ATOM      7  C   UNL     1       8.736   9.435  18.988  0.00  0.00    +0.000 C 
BRANCH   7   8
ATOM      8  N   UNL     1       9.397  10.771  18.938  0.00  0.00    +0.000 NA
BRANCH   8   9
ATOM      9  C   UNL     1       9.323  11.418  20.278  0.00  0.00    +0.000 C 
BRANCH   9  11
ATOM     10  C   UNL     1      11.828  11.805  19.894  0.00  0.00    +0.000 C 
ATOM     11  C   UNL     1      10.641  12.032  20.833  0.00  0.00    +0.000 C 
ATOM     12  C   UNL     1      10.487  13.537  21.080  0.00  0.00    +0.000 C 
ENDBRANCH   9  11
ENDBRANCH   8   9
BRANCH   8  13
ATOM     13  C   UNL     1       8.730  11.613  17.909  0.00  0.00    +0.000 C 
BRANCH  13  14
ATOM     14  C   UNL     1       8.720  13.152  18.083  0.00  0.00    +0.000 C 
ATOM     15  C   UNL     1       9.929  13.837  17.443  0.00  0.00    +0.000 C 
ATOM     16  C   UNL     1       7.435  13.711  17.453  0.00  0.00    +0.000 C 
ENDBRANCH  13  14
ENDBRANCH   8  13
ENDBRANCH   7   8
ENDBRANCH   6   7
ENDBRANCH   5   6
ENDBRANCH   1   5
BRANCH   2  17
ATOM     17  C   UNL     1       6.177   4.608  18.416  0.00  0.00    +0.000 C 
BRANCH  17  18
ATOM     18  N   UNL     1       4.809   4.624  18.917  0.00  0.00    +0.000 N 
ATOM     19  N   UNL     1       4.105   5.795  18.748  0.00  0.00    +0.000 NA
ATOM     20  C   UNL     1       2.998   5.965  19.400  0.00  0.00    +0.000 C 
ATOM     21  C   UNL     1       2.400   4.902  20.294  0.00  0.00    +0.000 C 
ATOM     22  C   UNL     1       2.853   3.532  19.857  0.00  0.00    +0.000 C 
ATOM     23  C   UNL     1       4.333   3.520  19.609  0.00  0.00    +0.000 C 
ATOM     24  O   UNL     1       5.037   2.562  19.932  0.00  0.00    +0.000 OA
BRANCH  20  25
ATOM     25  C   UNL     1       2.317   7.291  19.352  0.00  0.00    +0.000 A 
ATOM     26  C   UNL     1       1.651   7.777  20.485  0.00  0.00    +0.000 A 
ATOM     27  C   UNL     1       0.969   8.997  20.429  0.00  0.00    +0.000 A 
ATOM     28  C   UNL     1       0.940   9.721  19.237  0.00  0.00    +0.000 A 
ATOM     29 CL   UNL     1       0.092  11.215  19.157  0.00  0.00    +0.000 Cl
ATOM     30  C   UNL     1       1.593   9.237  18.105  0.00  0.00    +0.000 A 
ATOM     31  C   UNL     1       2.279   8.023  18.158  0.00  0.00    +0.000 A 
ENDBRANCH  20  25
ENDBRANCH  17  18
ENDBRANCH   2  17
TORSDOF 11
ENDMDL
MODEL 5
REMARK VINA RESULT:      -7.0      6.127      9.265
REMARK  Name = 
REMARK  15 active torsions:
REMARK  status: ('A' for Active; 'I' for Inactive)
REMARK    1  A    between atoms: C_1  and  C_2
REMARK    2  A    between atoms: C_2  and  C_3
REMARK    3  A    between atoms: C_2  and  C_4
REMARK    4  A    between atoms: C_4  and  N_5
REMARK    5  A    between atoms: N_5  and  C_6
REMARK    6  A    between atoms: N_5  and  C_27
REMARK    7  A    between atoms: C_6  and  C_7
REMARK    8  A    between atoms: C_7  and  C_8
REMARK    9  A    between atoms: C_8  and  N_9
REMARK   10  A    between atoms: C_10  and  C_12
REMARK   11  A    between atoms: C_12  and  N_13
REMARK   12  A    between atoms: C_15  and  C_16
REMARK   13  A    between atoms: C_27  and  C_28
REMARK   14  A    between atoms: C_28  and  C_29
REMARK   15  A    between atoms: C_28  and  C_30
REMARK                            x       y       z     vdW  Elec       q    Type
REMARK                         _______ _______ _______ _____ _____    ______ ____
ROOT
ATOM      1  N   UNL     1       1.134  10.122  19.377  0.00  0.00    +0.000 N 
ATOM      2  C   UNL     1       1.222  11.353  20.010  0.00  0.00    +0.000 C 
ATOM      3  O   UNL     1       1.956  12.254  19.607  0.00  0.00    +0.000 OA
ATOM      4  H   UNL     1       0.834   9.346  19.970  0.00  0.00    +0.000 HD
ENDROOT
BRANCH   1   5
ATOM      5  C   UNL     1       1.935   9.829  18.206  0.00  0.00    +0.000 C 
BRANCH   5   6
ATOM      6  C   UNL     1       1.986   8.334  17.893  0.00  0.00    +0.000 C 
BRANCH   6   7
ATOM      7  C   UNL     1       2.362   7.502  19.133  0.00  0.00    +0.000 C 
BRANCH   7   8
ATOM      8  N   UNL     1       2.593   6.047  18.905  0.00  0.00    +0.000 NA
BRANCH   8   9
ATOM      9  C   UNL     1       2.339   5.295  20.167  0.00  0.00    +0.000 C 
BRANCH   9  11
ATOM     10  C   UNL     1       1.256   3.439  18.769  0.00  0.00    +0.000 C 
ATOM     11  C   UNL     1       1.258   4.178  20.110  0.00  0.00    +0.000 C 
ATOM     12  C   UNL     1       1.459   3.157  21.236  0.00  0.00    +0.000 C 
ENDBRANCH   9  11
ENDBRANCH   8   9
BRANCH   8  13
ATOM     13  C   UNL     1       3.990   5.837  18.440  0.00  0.00    +0.000 C 
BRANCH  13  14
ATOM     14  C   UNL     1       4.240   5.368  16.985  0.00  0.00    +0.000 C 
ATOM     15  C   UNL     1       5.321   6.181  16.269  0.00  0.00    +0.000 C 
ATOM     16  C   UNL     1       4.657   3.890  17.009  0.00  0.00    +0.000 C 
ENDBRANCH  13  14
ENDBRANCH   8  13
ENDBRANCH   7   8
ENDBRANCH   6   7
ENDBRANCH   5   6
ENDBRANCH   1   5
BRANCH   2  17
ATOM     17  C   UNL     1       0.353  11.473  21.254  0.00  0.00    +0.000 C 
BRANCH  17  18
ATOM     18  N   UNL     1      -1.028  11.754  20.885  0.00  0.00    +0.000 N 
ATOM     19  N   UNL     1      -1.470  11.212  19.699  0.00  0.00    +0.000 NA
ATOM     20  C   UNL     1      -2.581  11.639  19.187  0.00  0.00    +0.000 C 
ATOM     21  C   UNL     1      -3.459  12.665  19.869  0.00  0.00    +0.000 C 
ATOM     22  C   UNL     1      -3.241  12.634  21.361  0.00  0.00    +0.000 C 
ATOM     23  C   UNL     1      -1.775  12.612  21.678  0.00  0.00    +0.000 C 
ATOM     24  O   UNL     1      -1.306  13.250  22.622  0.00  0.00    +0.000 OA
BRANCH  20  25
ATOM     25  C   UNL     1      -2.983  11.181  17.826  0.00  0.00    +0.000 A 
ATOM     26  C   UNL     1      -2.123  10.361  17.082  0.00  0.00    +0.000 A 
ATOM     27  C   UNL     1      -2.474   9.971  15.785  0.00  0.00    +0.000 A 
ATOM     28  C   UNL     1      -3.675  10.414  15.228  0.00  0.00    +0.000 A 
ATOM     29 CL   UNL     1      -4.106   9.948  13.630  0.00  0.00    +0.000 Cl
ATOM     30  C   UNL     1      -4.528  11.237  15.961  0.00  0.00    +0.000 A 
ATOM     31  C   UNL     1      -4.185  11.624  17.257  0.00  0.00    +0.000 A 
ENDBRANCH  20  25
ENDBRANCH  17  18
ENDBRANCH   2  17
TORSDOF 11
ENDMDL
MODEL 6
REMARK VINA RESULT:      -7.0      6.381      9.394
REMARK  Name = 
REMARK  15 active torsions:
REMARK  status: ('A' for Active; 'I' for Inactive)
REMARK    1  A    between atoms: C_1  and  C_2
REMARK    2  A    between atoms: C_2  and  C_3
REMARK    3  A    between atoms: C_2  and  C_4
REMARK    4  A    between atoms: C_4  and  N_5
REMARK    5  A    between atoms: N_5  and  C_6
REMARK    6  A    between atoms: N_5  and  C_27
REMARK    7  A    between atoms: C_6  and  C_7
REMARK    8  A    between atoms: C_7  and  C_8
REMARK    9  A    between atoms: C_8  and  N_9
REMARK   10  A    between atoms: C_10  and  C_12
REMARK   11  A    between atoms: C_12  and  N_13
REMARK   12  A    between atoms: C_15  and  C_16
REMARK   13  A    between atoms: C_27  and  C_28
REMARK   14  A    between atoms: C_28  and  C_29
REMARK   15  A    between atoms: C_28  and  C_30
REMARK                            x       y       z     vdW  Elec       q    Type
REMARK                         _______ _______ _______ _____ _____    ______ ____
ROOT
ATOM      1  N   UNL     1       1.590   9.280  19.305  0.00  0.00    +0.000 N 
ATOM      2  C   UNL     1       1.037   9.071  20.559  0.00  0.00    +0.000 C 
ATOM      3  O   UNL     1       0.709   7.956  20.962  0.00  0.00    +0.000 OA
ATOM      4  H   UNL     1       1.462  10.218  18.921  0.00  0.00    +0.000 HD
ENDROOT
BRANCH   1   5
ATOM      5  C   UNL     1       1.789   8.177  18.388  0.00  0.00    +0.000 C 
BRANCH   5   6
ATOM      6  C   UNL     1       2.958   7.281  18.799  0.00  0.00    +0.000 C 
BRANCH   6   7
ATOM      7  C   UNL     1       3.062   6.031  17.904  0.00  0.00    +0.000 C 
BRANCH   7   8
ATOM      8  N   UNL     1       2.970   4.714  18.598  0.00  0.00    +0.000 NA
BRANCH   8   9
ATOM      9  C   UNL     1       3.227   4.896  20.055  0.00  0.00    +0.000 C 
BRANCH   9  11
ATOM     10  C   UNL     1       0.778   4.195  20.345  0.00  0.00    +0.000 C 
ATOM     11  C   UNL     1       2.137   4.365  21.030  0.00  0.00    +0.000 C 
ATOM     12  C   UNL     1       2.553   3.023  21.644  0.00  0.00    +0.000 C 
ENDBRANCH   9  11
ENDBRANCH   8   9
BRANCH   8  13
ATOM     13  C   UNL     1       3.955   3.773  18.003  0.00  0.00    +0.000 C 
BRANCH  13  14
ATOM     14  C   UNL     1       3.544   2.299  17.765  0.00  0.00    +0.000 C 
ATOM     15  C   UNL     1       4.093   1.343  18.826  0.00  0.00    +0.000 C 
ATOM     16  C   UNL     1       2.010   2.210  17.755  0.00  0.00    +0.000 C 
ENDBRANCH  13  14
ENDBRANCH   8  13
ENDBRANCH   7   8
ENDBRANCH   6   7
ENDBRANCH   5   6
ENDBRANCH   1   5
BRANCH   2  17
ATOM     17  C   UNL     1       0.849  10.344  21.373  0.00  0.00    +0.000 C 
BRANCH  17  18
ATOM     18  N   UNL     1      -0.407  10.992  21.019  0.00  0.00    +0.000 N 
ATOM     19  N   UNL     1      -1.010  10.573  19.855  0.00  0.00    +0.000 NA
ATOM     20  C   UNL     1      -1.969  11.283  19.350  0.00  0.00    +0.000 C 
ATOM     21  C   UNL     1      -2.511  12.525  20.021  0.00  0.00    +0.000 C 
ATOM     22  C   UNL     1      -2.276  12.465  21.509  0.00  0.00    +0.000 C 
ATOM     23  C   UNL     1      -0.867  12.040  21.803  0.00  0.00    +0.000 C 
ATOM     24  O   UNL     1      -0.218  12.540  22.722  0.00  0.00    +0.000 OA
BRANCH  20  25
ATOM     25  C   UNL     1      -2.513  10.928  18.008  0.00  0.00    +0.000 A 
ATOM     26  C   UNL     1      -1.817  10.032  17.185  0.00  0.00    +0.000 A 
ATOM     27  C   UNL     1      -2.298   9.736  15.905  0.00  0.00    +0.000 A 
ATOM     28  C   UNL     1      -3.464  10.348  15.444  0.00  0.00    +0.000 A 
ATOM     29 CL   UNL     1      -4.054   9.998  13.867  0.00  0.00    +0.000 Cl
ATOM     30  C   UNL     1      -4.154  11.246  16.255  0.00  0.00    +0.000 A 
ATOM     31  C   UNL     1      -3.682  11.541  17.534  0.00  0.00    +0.000 A 
ENDBRANCH  20  25
ENDBRANCH  17  18
ENDBRANCH   2  17
TORSDOF 11
ENDMDL
MODEL 7
REMARK VINA RESULT:      -6.8      2.857      4.198
REMARK  Name = 
REMARK  15 active torsions:
REMARK  status: ('A' for Active; 'I' for Inactive)
REMARK    1  A    between atoms: C_1  and  C_2
REMARK    2  A    between atoms: C_2  and  C_3
REMARK    3  A    between atoms: C_2  and  C_4
REMARK    4  A    between atoms: C_4  and  N_5
REMARK    5  A    between atoms: N_5  and  C_6
REMARK    6  A    between atoms: N_5  and  C_27
REMARK    7  A    between atoms: C_6  and  C_7
REMARK    8  A    between atoms: C_7  and  C_8
REMARK    9  A    between atoms: C_8  and  N_9
REMARK   10  A    between atoms: C_10  and  C_12
REMARK   11  A    between atoms: C_12  and  N_13
REMARK   12  A    between atoms: C_15  and  C_16
REMARK   13  A    between atoms: C_27  and  C_28
REMARK   14  A    between atoms: C_28  and  C_29
REMARK   15  A    between atoms: C_28  and  C_30
REMARK                            x       y       z     vdW  Elec       q    Type
REMARK                         _______ _______ _______ _____ _____    ______ ____
ROOT
ATOM      1  N   UNL     1       8.797   8.665  18.622  0.00  0.00    +0.000 N 
ATOM      2  C   UNL     1       7.833   7.952  17.925  0.00  0.00    +0.000 C 
ATOM      3  O   UNL     1       6.977   8.498  17.230  0.00  0.00    +0.000 OA
ATOM      4  H   UNL     1       9.184   8.193  19.441  0.00  0.00    +0.000 HD
ENDROOT
BRANCH   1   5
ATOM      5  C   UNL     1       8.826  10.113  18.578  0.00  0.00    +0.000 C 
BRANCH   5   6
ATOM      6  C   UNL     1       9.268  10.728  19.906  0.00  0.00    +0.000 C 
BRANCH   6   7
ATOM      7  C   UNL     1      10.419  11.733  19.716  0.00  0.00    +0.000 C 
BRANCH   7   8
ATOM      8  N   UNL     1      10.062  13.175  19.848  0.00  0.00    +0.000 NA
BRANCH   8   9
ATOM      9  C   UNL     1      10.937  13.991  18.958  0.00  0.00    +0.000 C 
BRANCH   9  11
ATOM     10  C   UNL     1       8.971  15.406  18.116  0.00  0.00    +0.000 C 
ATOM     11  C   UNL     1      10.254  14.663  17.732  0.00  0.00    +0.000 C 
ATOM     12  C   UNL     1      11.206  15.647  17.041  0.00  0.00    +0.000 C 
ENDBRANCH   9  11
ENDBRANCH   8   9
BRANCH   8  13
ATOM     13  C   UNL     1      10.218  13.594  21.266  0.00  0.00    +0.000 C 
BRANCH  13  14
ATOM     14  C   UNL     1       8.953  13.830  22.128  0.00  0.00    +0.000 C 
ATOM     15  C   UNL     1       7.699  14.100  21.293  0.00  0.00    +0.000 C 
ATOM     16  C   UNL     1       8.715  12.591  23.004  0.00  0.00    +0.000 C 
ENDBRANCH  13  14
ENDBRANCH   8  13
ENDBRANCH   7   8
ENDBRANCH   6   7
ENDBRANCH   5   6
ENDBRANCH   1   5
BRANCH   2  17
ATOM     17  C   UNL     1       7.914   6.445  18.124  0.00  0.00    +0.000 C 
BRANCH  17  18
ATOM     18  N   UNL     1       6.744   5.793  17.550  0.00  0.00    +0.000 N 
ATOM     19  N   UNL     1       5.758   5.411  18.431  0.00  0.00    +0.000 NA
ATOM     20  C   UNL     1       4.832   4.599  18.028  0.00  0.00    +0.000 C 
ATOM     21  C   UNL     1       4.742   4.099  16.603  0.00  0.00    +0.000 C 
ATOM     22  C   UNL     1       5.395   5.078  15.661  0.00  0.00    +0.000 C 
ATOM     23  C   UNL     1       6.730   5.510  16.192  0.00  0.00    +0.000 C 
ATOM     24  O   UNL     1       7.701   5.672  15.451  0.00  0.00    +0.000 OA
BRANCH  20  25
ATOM     25  C   UNL     1       3.859   4.050  19.016  0.00  0.00    +0.000 A 
ATOM     26  C   UNL     1       2.654   4.723  19.259  0.00  0.00    +0.000 A 
ATOM     27  C   UNL     1       1.762   4.239  20.222  0.00  0.00    +0.000 A 
ATOM     28  C   UNL     1       2.083   3.093  20.951  0.00  0.00    +0.000 A 
ATOM     29 CL   UNL     1       0.997   2.500  22.145  0.00  0.00    +0.000 Cl
ATOM     30  C   UNL     1       3.285   2.427  20.720  0.00  0.00    +0.000 A 
ATOM     31  C   UNL     1       4.175   2.903  19.757  0.00  0.00    +0.000 A 
ENDBRANCH  20  25
ENDBRANCH  17  18
ENDBRANCH   2  17
TORSDOF 11
ENDMDL
MODEL 8
REMARK VINA RESULT:      -6.8      6.360      9.670
REMARK  Name = 
REMARK  15 active torsions:
REMARK  status: ('A' for Active; 'I' for Inactive)
REMARK    1  A    between atoms: C_1  and  C_2
REMARK    2  A    between atoms: C_2  and  C_3
REMARK    3  A    between atoms: C_2  and  C_4
REMARK    4  A    between atoms: C_4  and  N_5
REMARK    5  A    between atoms: N_5  and  C_6
REMARK    6  A    between atoms: N_5  and  C_27
REMARK    7  A    between atoms: C_6  and  C_7
REMARK    8  A    between atoms: C_7  and  C_8
REMARK    9  A    between atoms: C_8  and  N_9
REMARK   10  A    between atoms: C_10  and  C_12
REMARK   11  A    between atoms: C_12  and  N_13
REMARK   12  A    between atoms: C_15  and  C_16
REMARK   13  A    between atoms: C_27  and  C_28
REMARK   14  A    between atoms: C_28  and  C_29
REMARK   15  A    between atoms: C_28  and  C_30
REMARK                            x       y       z     vdW  Elec       q    Type
REMARK                         _______ _______ _______ _____ _____    ______ ____
ROOT
ATOM      1  N   UNL     1       1.079  10.217  18.606  0.00  0.00    +0.000 N 
ATOM      2  C   UNL     1      -0.133  10.889  18.627  0.00  0.00    +0.000 C 
ATOM      3  O   UNL     1      -1.098  10.538  17.949  0.00  0.00    +0.000 OA
ATOM      4  H   UNL     1       1.894  10.775  18.866  0.00  0.00    +0.000 HD
ENDROOT
BRANCH   1   5
ATOM      5  C   UNL     1       1.274   9.063  17.752  0.00  0.00    +0.000 C 
BRANCH   5   6
ATOM      6  C   UNL     1       2.552   8.294  18.093  0.00  0.00    +0.000 C 
BRANCH   6   7
ATOM      7  C   UNL     1       2.347   7.347  19.289  0.00  0.00    +0.000 C 
BRANCH   7   8
ATOM      8  N   UNL     1       2.533   5.892  19.017  0.00  0.00    +0.000 NA
BRANCH   8   9
ATOM      9  C   UNL     1       2.257   5.111  20.256  0.00  0.00    +0.000 C 
BRANCH   9  11
ATOM     10  C   UNL     1       1.204   3.287  18.794  0.00  0.00    +0.000 C 
ATOM     11  C   UNL     1       1.181   3.992  20.152  0.00  0.00    +0.000 C 
ATOM     12  C   UNL     1       1.365   2.945  21.257  0.00  0.00    +0.000 C 
ENDBRANCH   9  11
ENDBRANCH   8   9
BRANCH   8  13
ATOM     13  C   UNL     1       3.921   5.653  18.542  0.00  0.00    +0.000 C 
BRANCH  13  14
ATOM     14  C   UNL     1       4.153   5.206  17.077  0.00  0.00    +0.000 C 
ATOM     15  C   UNL     1       5.103   6.128  16.311  0.00  0.00    +0.000 C 
ATOM     16  C   UNL     1       4.730   3.783  17.082  0.00  0.00    +0.000 C 
ENDBRANCH  13  14
ENDBRANCH   8  13
ENDBRANCH   7   8
ENDBRANCH   6   7
ENDBRANCH   5   6
ENDBRANCH   1   5
BRANCH   2  17
ATOM     17  C   UNL     1      -0.150  12.109  19.538  0.00  0.00    +0.000 C 
BRANCH  17  18
ATOM     18  N   UNL     1      -0.803  11.791  20.801  0.00  0.00    +0.000 N 
ATOM     19  N   UNL     1      -2.079  12.277  20.974  0.00  0.00    +0.000 NA
ATOM     20  C   UNL     1      -2.603  12.263  22.158  0.00  0.00    +0.000 C 
ATOM     21  C   UNL     1      -1.902  11.669  23.360  0.00  0.00    +0.000 C 
ATOM     22  C   UNL     1      -0.914  10.617  22.925  0.00  0.00    +0.000 C 
ATOM     23  C   UNL     1      -0.085  11.116  21.777  0.00  0.00    +0.000 C 
ATOM     24  O   UNL     1       1.118  10.866  21.690  0.00  0.00    +0.000 OA
BRANCH  20  25
ATOM     25  C   UNL     1      -3.914  12.937  22.386  0.00  0.00    +0.000 A 
ATOM     26  C   UNL     1      -4.978  12.715  21.501  0.00  0.00    +0.000 A 
ATOM     27  C   UNL     1      -6.193  13.384  21.682  0.00  0.00    +0.000 A 
ATOM     28  C   UNL     1      -6.337  14.286  22.737  0.00  0.00    +0.000 A 
ATOM     29 CL   UNL     1      -7.823  15.122  22.958  0.00  0.00    +0.000 Cl
ATOM     30  C   UNL     1      -5.279  14.517  23.614  0.00  0.00    +0.000 A 
ATOM     31  C   UNL     1      -4.067  13.847  23.441  0.00  0.00    +0.000 A 
ENDBRANCH  20  25
ENDBRANCH  17  18
ENDBRANCH   2  17
TORSDOF 11
ENDMDL
MODEL 9
REMARK VINA RESULT:      -6.7      5.950      8.995
REMARK  Name = 
REMARK  15 active torsions:
REMARK  status: ('A' for Active; 'I' for Inactive)
REMARK    1  A    between atoms: C_1  and  C_2
REMARK    2  A    between atoms: C_2  and  C_3
REMARK    3  A    between atoms: C_2  and  C_4
REMARK    4  A    between atoms: C_4  and  N_5
REMARK    5  A    between atoms: N_5  and  C_6
REMARK    6  A    between atoms: N_5  and  C_27
REMARK    7  A    between atoms: C_6  and  C_7
REMARK    8  A    between atoms: C_7  and  C_8
REMARK    9  A    between atoms: C_8  and  N_9
REMARK   10  A    between atoms: C_10  and  C_12
REMARK   11  A    between atoms: C_12  and  N_13
REMARK   12  A    between atoms: C_15  and  C_16
REMARK   13  A    between atoms: C_27  and  C_28
REMARK   14  A    between atoms: C_28  and  C_29
REMARK   15  A    between atoms: C_28  and  C_30
REMARK                            x       y       z     vdW  Elec       q    Type
REMARK                         _______ _______ _______ _____ _____    ______ ____
ROOT
ATOM      1  N   UNL     1       1.632   8.926  19.266  0.00  0.00    +0.000 N 
ATOM      2  C   UNL     1       1.102   8.915  20.547  0.00  0.00    +0.000 C 
ATOM      3  O   UNL     1       0.729   7.883  21.102  0.00  0.00    +0.000 OA
ATOM      4  H   UNL     1       1.541   9.809  18.762  0.00  0.00    +0.000 HD
ENDROOT
BRANCH   1   5
ATOM      5  C   UNL     1       1.752   7.701  18.502  0.00  0.00    +0.000 C 
BRANCH   5   6
ATOM      6  C   UNL     1       3.182   7.450  18.021  0.00  0.00    +0.000 C 
BRANCH   6   7
ATOM      7  C   UNL     1       3.831   6.262  18.755  0.00  0.00    +0.000 C 
BRANCH   7   8
ATOM      8  N   UNL     1       4.586   5.296  17.906  0.00  0.00    +0.000 NA
BRANCH   8   9
ATOM      9  C   UNL     1       5.094   5.989  16.688  0.00  0.00    +0.000 C 
BRANCH   9  11
ATOM     10  C   UNL     1       7.258   4.667  17.068  0.00  0.00    +0.000 C 
ATOM     11  C   UNL     1       6.395   5.421  16.052  0.00  0.00    +0.000 C 
ATOM     12  C   UNL     1       6.075   4.483  14.882  0.00  0.00    +0.000 C 
ENDBRANCH   9  11
ENDBRANCH   8   9
BRANCH   8  13
ATOM     13  C   UNL     1       3.694   4.165  17.534  0.00  0.00    +0.000 C 
BRANCH  13  14
ATOM     14  C   UNL     1       2.933   3.405  18.648  0.00  0.00    +0.000 C 
ATOM     15  C   UNL     1       1.890   2.426  18.104  0.00  0.00    +0.000 C 
ATOM     16  C   UNL     1       3.950   2.632  19.501  0.00  0.00    +0.000 C 
ENDBRANCH  13  14
ENDBRANCH   8  13
ENDBRANCH   7   8
ENDBRANCH   6   7
ENDBRANCH   5   6
ENDBRANCH   1   5
BRANCH   2  17
ATOM     17  C   UNL     1       0.999  10.293  21.186  0.00  0.00    +0.000 C 
BRANCH  17  18
ATOM     18  N   UNL     1      -0.293  10.896  20.888  0.00  0.00    +0.000 N 
ATOM     19  N   UNL     1      -0.886  10.527  19.702  0.00  0.00    +0.000 NA
ATOM     20  C   UNL     1      -1.887  11.218  19.255  0.00  0.00    +0.000 C 
ATOM     21  C   UNL     1      -2.486  12.380  20.015  0.00  0.00    +0.000 C 
ATOM     22  C   UNL     1      -2.232  12.229  21.493  0.00  0.00    +0.000 C 
ATOM     23  C   UNL     1      -0.799  11.861  21.746  0.00  0.00    +0.000 C 
ATOM     24  O   UNL     1      -0.167  12.330  22.694  0.00  0.00    +0.000 OA
BRANCH  20  25
ATOM     25  C   UNL     1      -2.427  10.929  17.895  0.00  0.00    +0.000 A 
ATOM     26  C   UNL     1      -3.599  11.562  17.459  0.00  0.00    +0.000 A 
ATOM     27  C   UNL     1      -4.136  11.256  16.204  0.00  0.00    +0.000 A 
ATOM     28  C   UNL     1      -3.510  10.307  15.394  0.00  0.00    +0.000 A 
ATOM     29 CL   UNL     1      -4.172   9.916  13.856  0.00  0.00    +0.000 Cl
ATOM     30  C   UNL     1      -2.350   9.669  15.828  0.00  0.00    +0.000 A 
ATOM     31  C   UNL     1      -1.808   9.974  17.077  0.00  0.00    +0.000 A 
ENDBRANCH  20  25
ENDBRANCH  17  18
ENDBRANCH   2  17
TORSDOF 11
ENDMDL
