MODEL 1
REMARK VINA RESULT:      -7.6      0.000      0.000
REMARK  Name = 
REMARK  5 active torsions:
REMARK  status: ('A' for Active; 'I' for Inactive)
REMARK    1  A    between atoms: C_1  and  C_2
REMARK    2  A    between atoms: C_2  and  N_3
REMARK    3  A    between atoms: C_6  and  C_7
REMARK    4  A    between atoms: N_16  and  C_17
REMARK    5  A    between atoms: C_17  and  C_18
REMARK                            x       y       z     vdW  Elec       q    Type
REMARK                         _______ _______ _______ _____ _____    ______ ____
ROOT
ATOM      1  C   UNL     1       4.206   5.230  18.066  0.00  0.00    +0.000 C 
ATOM      2  C   UNL     1       5.651   4.918  17.651  0.00  0.00    +0.000 A 
ATOM      3  N   UNL     1       6.563   4.354  18.430  0.00  0.00    +0.000 NA
ATOM      4  C   UNL     1       7.699   4.233  17.665  0.00  0.00    +0.000 A 
ATOM      5  C   UNL     1       7.492   4.737  16.406  0.00  0.00    +0.000 A 
ATOM      6  N   UNL     1       6.192   5.172  16.404  0.00  0.00    +0.000 N 
ATOM      7  C   UNL     1       5.551   5.826  15.287  0.00  0.00    +0.000 C 
ATOM      8  C   UNL     1       4.815   7.120  15.602  0.00  0.00    +0.000 C 
ATOM      9  C   UNL     1       4.770   7.503  17.074  0.00  0.00    +0.000 C 
ATOM     10  N   UNL     1       3.890   6.699  17.926  0.00  0.00    +0.000 NA
ENDROOT
BRANCH   1  14
ATOM     11  N   UNL     1       1.806   2.563  19.655  0.00  0.00    +0.000 NA
ATOM     12  C   UNL     1       1.392   3.899  19.212  0.00  0.00    +0.000 C 
ATOM     13  C   UNL     1       1.734   4.112  17.742  0.00  0.00    +0.000 C 
ATOM     14  C   UNL     1       3.253   4.080  17.463  0.00  0.00    +0.000 C 
ATOM     15  C   UNL     1       3.659   2.650  17.932  0.00  0.00    +0.000 C 
ATOM     16  C   UNL     1       3.228   2.305  19.372  0.00  0.00    +0.000 C 
BRANCH  11  18
ATOM     17  C   UNL     1       2.193   3.348  22.033  0.00  0.00    +0.000 C 
ATOM     18  C   UNL     1       1.464   2.404  21.083  0.00  0.00    +0.000 C 
ENDBRANCH  11  18
ENDBRANCH   1  14
BRANCH  10  19
ATOM     19  C   UNL     1       2.466   6.986  17.787  0.00  0.00    +0.000 C 
BRANCH  19  20
ATOM     20  C   UNL     1       1.804   8.126  18.537  0.00  0.00    +0.000 A 
ATOM     21  C   UNL     1       1.693   7.984  19.934  0.00  0.00    +0.000 A 
ATOM     22  C   UNL     1       1.075   8.958  20.713  0.00  0.00    +0.000 A 
ATOM     23  C   UNL     1       0.569  10.102  20.108  0.00  0.00    +0.000 A 
ATOM     24  C   UNL     1       0.732  10.292  18.734  0.00  0.00    +0.000 A 
ATOM     25  C   UNL     1       1.378   9.325  17.958  0.00  0.00    +0.000 A 
ENDBRANCH  19  20
ENDBRANCH  10  19
TORSDOF 4
ENDMDL
MODEL 2
REMARK VINA RESULT:      -7.4      1.398      4.561
REMARK  Name = 
REMARK  5 active torsions:
REMARK  status: ('A' for Active; 'I' for Inactive)
REMARK    1  A    between atoms: C_1  and  C_2
REMARK    2  A    between atoms: C_2  and  N_3
REMARK    3  A    between atoms: C_6  and  C_7
REMARK    4  A    between atoms: N_16  and  C_17
REMARK    5  A    between atoms: C_17  and  C_18
REMARK                            x       y       z     vdW  Elec       q    Type
REMARK                         _______ _______ _______ _____ _____    ______ ____
ROOT
ATOM      1  C   UNL     1       3.651   5.371  17.828  0.00  0.00    +0.000 C 
ATOM      2  C   UNL     1       3.520   3.871  18.129  0.00  0.00    +0.000 A 
ATOM      3  N   UNL     1       3.527   2.908  17.220  0.00  0.00    +0.000 NA
ATOM      4  C   UNL     1       3.413   1.725  17.913  0.00  0.00    +0.000 A 
ATOM      5  C   UNL     1       3.323   1.961  19.261  0.00  0.00    +0.000 A 
ATOM      6  N   UNL     1       3.389   3.323  19.392  0.00  0.00    +0.000 N 
ATOM      7  C   UNL     1       3.282   4.029  20.647  0.00  0.00    +0.000 C 
ATOM      8  C   UNL     1       2.296   5.189  20.682  0.00  0.00    +0.000 C 
ATOM      9  C   UNL     1       1.623   5.511  19.356  0.00  0.00    +0.000 C 
ATOM     10  N   UNL     1       2.464   6.150  18.340  0.00  0.00    +0.000 NA
ENDROOT
BRANCH   1  14
ATOM     11  N   UNL     1       6.969   5.357  15.733  0.00  0.00    +0.000 NA
ATOM     12  C   UNL     1       6.045   6.493  15.825  0.00  0.00    +0.000 C 
ATOM     13  C   UNL     1       5.841   6.909  17.277  0.00  0.00    +0.000 C 
ATOM     14  C   UNL     1       5.169   5.812  18.132  0.00  0.00    +0.000 C 
ATOM     15  C   UNL     1       6.177   4.627  18.024  0.00  0.00    +0.000 C 
ATOM     16  C   UNL     1       6.541   4.230  16.579  0.00  0.00    +0.000 C 
BRANCH  11  18
ATOM     17  C   UNL     1       6.129   3.958  13.795  0.00  0.00    +0.000 C 
ATOM     18  C   UNL     1       7.130   4.984  14.313  0.00  0.00    +0.000 C 
ENDBRANCH  11  18
ENDBRANCH   1  14
BRANCH  10  19
ATOM     19  C   UNL     1       2.739   7.564  18.568  0.00  0.00    +0.000 C 
BRANCH  19  20
ATOM     20  C   UNL     1       1.631   8.556  18.863  0.00  0.00    +0.000 A 
ATOM     21  C   UNL     1       1.329   8.782  20.220  0.00  0.00    +0.000 A 
ATOM     22  C   UNL     1       0.308   9.650  20.598  0.00  0.00    +0.000 A 
ATOM     23  C   UNL     1      -0.419  10.322  19.625  0.00  0.00    +0.000 A 
ATOM     24  C   UNL     1      -0.088  10.164  18.277  0.00  0.00    +0.000 A 
ATOM     25  C   UNL     1       0.955   9.313  17.900  0.00  0.00    +0.000 A 
ENDBRANCH  19  20
ENDBRANCH  10  19
TORSDOF 4
ENDMDL
MODEL 3
REMARK VINA RESULT:      -7.3      1.393      4.619
REMARK  Name = 
REMARK  5 active torsions:
REMARK  status: ('A' for Active; 'I' for Inactive)
REMARK    1  A    between atoms: C_1  and  C_2
REMARK    2  A    between atoms: C_2  and  N_3
REMARK    3  A    between atoms: C_6  and  C_7
REMARK    4  A    between atoms: N_16  and  C_17
REMARK    5  A    between atoms: C_17  and  C_18
REMARK                            x       y       z     vdW  Elec       q    Type
REMARK                         _______ _______ _______ _____ _____    ______ ____
ROOT
ATOM      1  C   UNL     1       2.898   5.230  18.637  0.00  0.00    +0.000 C 
ATOM      2  C   UNL     1       2.853   3.710  18.422  0.00  0.00    +0.000 A 
ATOM      3  N   UNL     1       2.658   3.110  17.257  0.00  0.00    +0.000 NA
ATOM      4  C   UNL     1       2.719   1.759  17.505  0.00  0.00    +0.000 A 
ATOM      5  C   UNL     1       2.941   1.521  18.838  0.00  0.00    +0.000 A 
ATOM      6  N   UNL     1       3.024   2.762  19.414  0.00  0.00    +0.000 N 
ATOM      7  C   UNL     1       3.205   2.996  20.827  0.00  0.00    +0.000 C 
ATOM      8  C   UNL     1       2.244   3.985  21.472  0.00  0.00    +0.000 C 
ATOM      9  C   UNL     1       1.279   4.671  20.517  0.00  0.00    +0.000 C 
ATOM     10  N   UNL     1       1.855   5.685  19.629  0.00  0.00    +0.000 NA
ENDROOT
BRANCH   1  14
ATOM     11  N   UNL     1       5.849   5.468  16.062  0.00  0.00    +0.000 NA
ATOM     12  C   UNL     1       4.942   6.572  16.395  0.00  0.00    +0.000 C 
ATOM     13  C   UNL     1       4.963   6.856  17.892  0.00  0.00    +0.000 C 
ATOM     14  C   UNL     1       4.442   5.675  18.741  0.00  0.00    +0.000 C 
ATOM     15  C   UNL     1       5.430   4.527  18.374  0.00  0.00    +0.000 C 
ATOM     16  C   UNL     1       5.568   4.263  16.861  0.00  0.00    +0.000 C 
BRANCH  11  18
ATOM     17  C   UNL     1       6.299   3.856  14.160  0.00  0.00    +0.000 C 
ATOM     18  C   UNL     1       5.791   5.222  14.606  0.00  0.00    +0.000 C 
ENDBRANCH  11  18
ENDBRANCH   1  14
BRANCH  10  19
ATOM     19  C   UNL     1       2.164   6.960  20.266  0.00  0.00    +0.000 C 
BRANCH  19  20
ATOM     20  C   UNL     1       1.643   8.274  19.716  0.00  0.00    +0.000 A 
ATOM     21  C   UNL     1       0.925   9.093  20.609  0.00  0.00    +0.000 A 
ATOM     22  C   UNL     1       0.378  10.305  20.197  0.00  0.00    +0.000 A 
ATOM     23  C   UNL     1       0.554  10.728  18.886  0.00  0.00    +0.000 A 
ATOM     24  C   UNL     1       1.323   9.963  18.005  0.00  0.00    +0.000 A 
ATOM     25  C   UNL     1       1.894   8.759  18.429  0.00  0.00    +0.000 A 
ENDBRANCH  19  20
ENDBRANCH  10  19
TORSDOF 4
ENDMDL
MODEL 4
REMARK VINA RESULT:      -6.6      1.365      4.636
REMARK  Name = 
REMARK  5 active torsions:
REMARK  status: ('A' for Active; 'I' for Inactive)
REMARK    1  A    between atoms: C_1  and  C_2
REMARK    2  A    between atoms: C_2  and  N_3
REMARK    3  A    between atoms: C_6  and  C_7
REMARK    4  A    between atoms: N_16  and  C_17
REMARK    5  A    between atoms: C_17  and  C_18
REMARK                            x       y       z     vdW  Elec       q    Type
REMARK                         _______ _______ _______ _____ _____    ______ ____
ROOT
ATOM      1  C   UNL     1       3.455   5.578  18.050  0.00  0.00    +0.000 C 
ATOM      2  C   UNL     1       3.211   4.075  18.245  0.00  0.00    +0.000 A 
ATOM      3  N   UNL     1       3.231   3.168  17.280  0.00  0.00    +0.000 NA
ATOM      4  C   UNL     1       2.994   1.956  17.886  0.00  0.00    +0.000 A 
ATOM      5  C   UNL     1       2.812   2.118  19.236  0.00  0.00    +0.000 A 
ATOM      6  N   UNL     1       2.949   3.464  19.457  0.00  0.00    +0.000 N 
ATOM      7  C   UNL     1       2.788   4.100  20.743  0.00  0.00    +0.000 C 
ATOM      8  C   UNL     1       1.873   5.317  20.778  0.00  0.00    +0.000 C 
ATOM      9  C   UNL     1       1.325   5.759  19.429  0.00  0.00    +0.000 C 
ATOM     10  N   UNL     1       2.280   6.400  18.521  0.00  0.00    +0.000 NA
ENDROOT
BRANCH   1  14
ATOM     11  N   UNL     1       6.942   5.272  16.278  0.00  0.00    +0.000 NA
ATOM     12  C   UNL     1       6.108   6.479  16.274  0.00  0.00    +0.000 C 
ATOM     13  C   UNL     1       5.803   6.930  17.698  0.00  0.00    +0.000 C 
ATOM     14  C   UNL     1       4.968   5.901  18.493  0.00  0.00    +0.000 C 
ATOM     15  C   UNL     1       5.884   4.639  18.489  0.00  0.00    +0.000 C 
ATOM     16  C   UNL     1       6.349   4.194  17.087  0.00  0.00    +0.000 C 
BRANCH  11  18
ATOM     17  C   UNL     1       6.034   4.202  14.168  0.00  0.00    +0.000 C 
ATOM     18  C   UNL     1       7.206   4.867  14.881  0.00  0.00    +0.000 C 
ENDBRANCH  11  18
ENDBRANCH   1  14
BRANCH  10  19
ATOM     19  C   UNL     1       2.621   7.778  18.858  0.00  0.00    +0.000 C 
BRANCH  19  20
ATOM     20  C   UNL     1       1.555   8.814  19.157  0.00  0.00    +0.000 A 
ATOM     21  C   UNL     1       0.709   9.178  18.092  0.00  0.00    +0.000 A 
ATOM     22  C   UNL     1      -0.282  10.142  18.252  0.00  0.00    +0.000 A 
ATOM     23  C   UNL     1      -0.456  10.750  19.489  0.00  0.00    +0.000 A 
ATOM     24  C   UNL     1       0.327  10.352  20.575  0.00  0.00    +0.000 A 
ATOM     25  C   UNL     1       1.303   9.364  20.418  0.00  0.00    +0.000 A 
ENDBRANCH  19  20
ENDBRANCH  10  19
TORSDOF 4
ENDMDL
MODEL 5
REMARK VINA RESULT:      -6.1      0.894      1.369
REMARK  Name = 
REMARK  5 active torsions:
REMARK  status: ('A' for Active; 'I' for Inactive)
REMARK    1  A    between atoms: C_1  and  C_2
REMARK    2  A    between atoms: C_2  and  N_3
REMARK    3  A    between atoms: C_6  and  C_7
REMARK    4  A    between atoms: N_16  and  C_17
REMARK    5  A    between atoms: C_17  and  C_18
REMARK                            x       y       z     vdW  Elec       q    Type
REMARK                         _______ _______ _______ _____ _____    ______ ____
ROOT
ATOM      1  C   UNL     1       4.259   5.709  18.141  0.00  0.00    +0.000 C 
ATOM      2  C   UNL     1       5.639   5.170  17.741  0.00  0.00    +0.000 A 
ATOM      3  N   UNL     1       6.533   4.665  18.578  0.00  0.00    +0.000 NA
ATOM      4  C   UNL     1       7.606   4.281  17.810  0.00  0.00    +0.000 A 
ATOM      5  C   UNL     1       7.379   4.562  16.486  0.00  0.00    +0.000 A 
ATOM      6  N   UNL     1       6.131   5.127  16.449  0.00  0.00    +0.000 N 
ATOM      7  C   UNL     1       5.497   5.628  15.253  0.00  0.00    +0.000 C 
ATOM      8  C   UNL     1       4.912   7.031  15.342  0.00  0.00    +0.000 C 
ATOM      9  C   UNL     1       4.990   7.683  16.714  0.00  0.00    +0.000 C 
ATOM     10  N   UNL     1       4.083   7.152  17.736  0.00  0.00    +0.000 NA
ENDROOT
BRANCH   1  14
ATOM     11  N   UNL     1       3.005   2.485  19.995  0.00  0.00    +0.000 NA
ATOM     12  C   UNL     1       2.394   3.813  20.124  0.00  0.00    +0.000 C 
ATOM     13  C   UNL     1       1.971   4.349  18.761  0.00  0.00    +0.000 C 
ATOM     14  C   UNL     1       3.163   4.578  17.805  0.00  0.00    +0.000 C 
ATOM     15  C   UNL     1       3.782   3.153  17.680  0.00  0.00    +0.000 C 
ATOM     16  C   UNL     1       4.116   2.482  19.029  0.00  0.00    +0.000 C 
BRANCH  11  18
ATOM     17  C   UNL     1       4.789   1.377  21.412  0.00  0.00    +0.000 C 
ATOM     18  C   UNL     1       3.404   2.010  21.336  0.00  0.00    +0.000 C 
ENDBRANCH  11  18
ENDBRANCH   1  14
BRANCH  10  19
ATOM     19  C   UNL     1       2.690   7.561  17.597  0.00  0.00    +0.000 C 
BRANCH  19  20
ATOM     20  C   UNL     1       1.949   8.264  18.718  0.00  0.00    +0.000 A 
ATOM     21  C   UNL     1       1.227   9.422  18.371  0.00  0.00    +0.000 A 
ATOM     22  C   UNL     1       0.537  10.159  19.329  0.00  0.00    +0.000 A 
ATOM     23  C   UNL     1       0.544   9.741  20.654  0.00  0.00    +0.000 A 
ATOM     24  C   UNL     1       1.196   8.556  21.006  0.00  0.00    +0.000 A 
ATOM     25  C   UNL     1       1.865   7.803  20.036  0.00  0.00    +0.000 A 
ENDBRANCH  19  20
ENDBRANCH  10  19
TORSDOF 4
ENDMDL
MODEL 6
REMARK VINA RESULT:      -5.9      3.478      7.960
REMARK  Name = 
REMARK  5 active torsions:
REMARK  status: ('A' for Active; 'I' for Inactive)
REMARK    1  A    between atoms: C_1  and  C_2
REMARK    2  A    between atoms: C_2  and  N_3
REMARK    3  A    between atoms: C_6  and  C_7
REMARK    4  A    between atoms: N_16  and  C_17
REMARK    5  A    between atoms: C_17  and  C_18
REMARK                            x       y       z     vdW  Elec       q    Type
REMARK                         _______ _______ _______ _____ _____    ______ ____
ROOT
ATOM      1  C   UNL     1       0.294   9.641  20.091  0.00  0.00    +0.000 C 
ATOM      2  C   UNL     1      -0.306  10.851  19.360  0.00  0.00    +0.000 A 
ATOM      3  N   UNL     1      -1.592  11.167  19.339  0.00  0.00    +0.000 NA
ATOM      4  C   UNL     1      -1.691  12.324  18.602  0.00  0.00    +0.000 A 
ATOM      5  C   UNL     1      -0.457  12.719  18.153  0.00  0.00    +0.000 A 
ATOM      6  N   UNL     1       0.418  11.780  18.636  0.00  0.00    +0.000 N 
ATOM      7  C   UNL     1       1.836  11.770  18.366  0.00  0.00    +0.000 C 
ATOM      8  C   UNL     1       2.417  10.447  17.887  0.00  0.00    +0.000 C 
ATOM      9  C   UNL     1       1.439   9.282  17.849  0.00  0.00    +0.000 C 
ATOM     10  N   UNL     1       1.038   8.730  19.145  0.00  0.00    +0.000 NA
ENDROOT
BRANCH   1  14
ATOM     11  N   UNL     1      -1.135  11.512  23.230  0.00  0.00    +0.000 NA
ATOM     12  C   UNL     1      -1.039  10.053  23.100  0.00  0.00    +0.000 C 
ATOM     13  C   UNL     1       0.398   9.629  22.821  0.00  0.00    +0.000 C 
ATOM     14  C   UNL     1       0.935  10.160  21.474  0.00  0.00    +0.000 C 
ATOM     15  C   UNL     1       0.831  11.706  21.648  0.00  0.00    +0.000 C 
ATOM     16  C   UNL     1      -0.567  12.207  22.064  0.00  0.00    +0.000 C 
BRANCH  11  18
ATOM     17  C   UNL     1      -3.237  12.629  22.361  0.00  0.00    +0.000 C 
ATOM     18  C   UNL     1      -2.543  11.878  23.492  0.00  0.00    +0.000 C 
ENDBRANCH  11  18
ENDBRANCH   1  14
BRANCH  10  19
ATOM     19  C   UNL     1       2.040   7.894  19.797  0.00  0.00    +0.000 C 
BRANCH  19  20
ATOM     20  C   UNL     1       2.023   6.383  19.674  0.00  0.00    +0.000 A 
ATOM     21  C   UNL     1       2.419   5.845  18.434  0.00  0.00    +0.000 A 
ATOM     22  C   UNL     1       2.410   4.472  18.205  0.00  0.00    +0.000 A 
ATOM     23  C   UNL     1       2.018   3.609  19.221  0.00  0.00    +0.000 A 
ATOM     24  C   UNL     1       1.689   4.119  20.479  0.00  0.00    +0.000 A 
ATOM     25  C   UNL     1       1.726   5.497  20.714  0.00  0.00    +0.000 A 
ENDBRANCH  19  20
ENDBRANCH  10  19
TORSDOF 4
ENDMDL
MODEL 7
REMARK VINA RESULT:      -5.8      8.349     12.713
REMARK  Name = 
REMARK  5 active torsions:
REMARK  status: ('A' for Active; 'I' for Inactive)
REMARK    1  A    between atoms: C_1  and  C_2
REMARK    2  A    between atoms: C_2  and  N_3
REMARK    3  A    between atoms: C_6  and  C_7
REMARK    4  A    between atoms: N_16  and  C_17
REMARK    5  A    between atoms: C_17  and  C_18
REMARK                            x       y       z     vdW  Elec       q    Type
REMARK                         _______ _______ _______ _____ _____    ______ ____
ROOT
ATOM      1  C   UNL     1      -4.870  12.928  21.353  0.00  0.00    +0.000 C 
ATOM      2  C   UNL     1      -5.952  12.934  22.442  0.00  0.00    +0.000 A 
ATOM      3  N   UNL     1      -5.767  12.566  23.702  0.00  0.00    +0.000 NA
ATOM      4  C   UNL     1      -6.973  12.749  24.336  0.00  0.00    +0.000 A 
ATOM      5  C   UNL     1      -7.915  13.222  23.458  0.00  0.00    +0.000 A 
ATOM      6  N   UNL     1      -7.262  13.335  22.259  0.00  0.00    +0.000 N 
ATOM      7  C   UNL     1      -7.886  13.755  21.026  0.00  0.00    +0.000 C 
ATOM      8  C   UNL     1      -7.634  12.870  19.813  0.00  0.00    +0.000 C 
ATOM      9  C   UNL     1      -6.676  11.710  20.040  0.00  0.00    +0.000 C 
ATOM     10  N   UNL     1      -5.260  12.057  20.183  0.00  0.00    +0.000 NA
ENDROOT
BRANCH   1  14
ATOM     11  N   UNL     1      -2.212  15.135  23.214  0.00  0.00    +0.000 NA
ATOM     12  C   UNL     1      -1.933  14.311  22.032  0.00  0.00    +0.000 C 
ATOM     13  C   UNL     1      -2.845  14.699  20.875  0.00  0.00    +0.000 C 
ATOM     14  C   UNL     1      -4.339  14.437  21.167  0.00  0.00    +0.000 C 
ATOM     15  C   UNL     1      -4.607  15.331  22.416  0.00  0.00    +0.000 C 
ATOM     16  C   UNL     1      -3.636  15.094  23.590  0.00  0.00    +0.000 C 
BRANCH  11  18
ATOM     17  C   UNL     1      -1.544  15.431  25.639  0.00  0.00    +0.000 C 
ATOM     18  C   UNL     1      -1.313  14.721  24.310  0.00  0.00    +0.000 C 
ENDBRANCH  11  18
ENDBRANCH   1  14
BRANCH  10  19
ATOM     19  C   UNL     1      -4.580  12.402  18.939  0.00  0.00    +0.000 C 
BRANCH  19  20
ATOM     20  C   UNL     1      -3.475  11.535  18.367  0.00  0.00    +0.000 A 
ATOM     21  C   UNL     1      -3.830  10.667  17.317  0.00  0.00    +0.000 A 
ATOM     22  C   UNL     1      -2.898   9.807  16.743  0.00  0.00    +0.000 A 
ATOM     23  C   UNL     1      -1.586   9.813  17.198  0.00  0.00    +0.000 A 
ATOM     24  C   UNL     1      -1.198  10.716  18.191  0.00  0.00    +0.000 A 
ATOM     25  C   UNL     1      -2.130  11.597  18.747  0.00  0.00    +0.000 A 
ENDBRANCH  19  20
ENDBRANCH  10  19
TORSDOF 4
ENDMDL
MODEL 8
REMARK VINA RESULT:      -5.8      4.572      9.492
REMARK  Name = 
REMARK  5 active torsions:
REMARK  status: ('A' for Active; 'I' for Inactive)
REMARK    1  A    between atoms: C_1  and  C_2
REMARK    2  A    between atoms: C_2  and  N_3
REMARK    3  A    between atoms: C_6  and  C_7
REMARK    4  A    between atoms: N_16  and  C_17
REMARK    5  A    between atoms: C_17  and  C_18
REMARK                            x       y       z     vdW  Elec       q    Type
REMARK                         _______ _______ _______ _____ _____    ______ ____
ROOT
ATOM      1  C   UNL     1      -0.442  11.977  19.509  0.00  0.00    +0.000 C 
ATOM      2  C   UNL     1      -1.936  12.275  19.700  0.00  0.00    +0.000 A 
ATOM      3  N   UNL     1      -2.473  12.822  20.781  0.00  0.00    +0.000 NA
ATOM      4  C   UNL     1      -3.819  12.936  20.525  0.00  0.00    +0.000 A 
ATOM      5  C   UNL     1      -4.120  12.445  19.280  0.00  0.00    +0.000 A 
ATOM      6  N   UNL     1      -2.922  12.025  18.762  0.00  0.00    +0.000 N 
ATOM      7  C   UNL     1      -2.767  11.388  17.476  0.00  0.00    +0.000 C 
ATOM      8  C   UNL     1      -1.956  10.099  17.461  0.00  0.00    +0.000 C 
ATOM      9  C   UNL     1      -1.334   9.705  18.792  0.00  0.00    +0.000 C 
ATOM     10  N   UNL     1      -0.195  10.512  19.239  0.00  0.00    +0.000 NA
ENDROOT
BRANCH   1  14
ATOM     11  N   UNL     1       1.984  14.981  20.207  0.00  0.00    +0.000 NA
ATOM     12  C   UNL     1       2.411  13.650  19.761  0.00  0.00    +0.000 C 
ATOM     13  C   UNL     1       1.722  13.269  18.456  0.00  0.00    +0.000 C 
ATOM     14  C   UNL     1       0.188  13.142  18.595  0.00  0.00    +0.000 C 
ATOM     15  C   UNL     1      -0.234  14.570  19.057  0.00  0.00    +0.000 C 
ATOM     16  C   UNL     1       0.518  15.086  20.300  0.00  0.00    +0.000 C 
BRANCH  11  18
ATOM     17  C   UNL     1       3.931  14.496  21.753  0.00  0.00    +0.000 C 
ATOM     18  C   UNL     1       2.668  15.304  21.475  0.00  0.00    +0.000 C 
ENDBRANCH  11  18
ENDBRANCH   1  14
BRANCH  10  19
ATOM     19  C   UNL     1       1.061  10.243  18.549  0.00  0.00    +0.000 C 
BRANCH  19  20
ATOM     20  C   UNL     1       1.764   8.904  18.663  0.00  0.00    +0.000 A 
ATOM     21  C   UNL     1       1.615   8.213  19.880  0.00  0.00    +0.000 A 
ATOM     22  C   UNL     1       2.244   6.991  20.100  0.00  0.00    +0.000 A 
ATOM     23  C   UNL     1       3.022   6.429  19.096  0.00  0.00    +0.000 A 
ATOM     24  C   UNL     1       3.125   7.066  17.857  0.00  0.00    +0.000 A 
ATOM     25  C   UNL     1       2.470   8.280  17.630  0.00  0.00    +0.000 A 
ENDBRANCH  19  20
ENDBRANCH  10  19
TORSDOF 4
ENDMDL
MODEL 9
REMARK VINA RESULT:      -5.7      4.696      9.662
REMARK  Name = 
REMARK  5 active torsions:
REMARK  status: ('A' for Active; 'I' for Inactive)
REMARK    1  A    between atoms: C_1  and  C_2
REMARK    2  A    between atoms: C_2  and  N_3
REMARK    3  A    between atoms: C_6  and  C_7
REMARK    4  A    between atoms: N_16  and  C_17
REMARK    5  A    between atoms: C_17  and  C_18
REMARK                            x       y       z     vdW  Elec       q    Type
REMARK                         _______ _______ _______ _____ _____    ______ ____
ROOT
ATOM      1  C   UNL     1      -0.800  11.893  19.453  0.00  0.00    +0.000 C 
ATOM      2  C   UNL     1      -2.320  12.107  19.449  0.00  0.00    +0.000 A 
ATOM      3  N   UNL     1      -3.023  12.599  20.459  0.00  0.00    +0.000 NA
ATOM      4  C   UNL     1      -4.329  12.647  20.030  0.00  0.00    +0.000 A 
ATOM      5  C   UNL     1      -4.436  12.169  18.749  0.00  0.00    +0.000 A 
ATOM      6  N   UNL     1      -3.159  11.826  18.387  0.00  0.00    +0.000 N 
ATOM      7  C   UNL     1      -2.802  11.227  17.123  0.00  0.00    +0.000 C 
ATOM      8  C   UNL     1      -1.926   9.984  17.194  0.00  0.00    +0.000 C 
ATOM      9  C   UNL     1      -1.461   9.594  18.589  0.00  0.00    +0.000 C 
ATOM     10  N   UNL     1      -0.438  10.450  19.195  0.00  0.00    +0.000 NA
ENDROOT
BRANCH   1  14
ATOM     11  N   UNL     1       1.291  15.038  20.516  0.00  0.00    +0.000 NA
ATOM     12  C   UNL     1       1.867  13.745  20.131  0.00  0.00    +0.000 C 
ATOM     13  C   UNL     1       1.404  13.340  18.736  0.00  0.00    +0.000 C 
ATOM     14  C   UNL     1      -0.121  13.110  18.648  0.00  0.00    +0.000 C 
ATOM     15  C   UNL     1      -0.701  14.501  19.050  0.00  0.00    +0.000 C 
ATOM     16  C   UNL     1      -0.176  15.046  20.393  0.00  0.00    +0.000 C 
BRANCH  11  18
ATOM     17  C   UNL     1       0.715  16.041  22.770  0.00  0.00    +0.000 C 
ATOM     18  C   UNL     1       1.760  15.387  21.873  0.00  0.00    +0.000 C 
ENDBRANCH  11  18
ENDBRANCH   1  14
BRANCH  10  19
ATOM     19  C   UNL     1       0.911  10.265  18.671  0.00  0.00    +0.000 C 
BRANCH  19  20
ATOM     20  C   UNL     1       1.640   8.941  18.796  0.00  0.00    +0.000 A 
ATOM     21  C   UNL     1       2.458   8.565  17.712  0.00  0.00    +0.000 A 
ATOM     22  C   UNL     1       3.147   7.355  17.712  0.00  0.00    +0.000 A 
ATOM     23  C   UNL     1       3.043   6.505  18.805  0.00  0.00    +0.000 A 
ATOM     24  C   UNL     1       2.293   6.892  19.919  0.00  0.00    +0.000 A 
ATOM     25  C   UNL     1       1.624   8.120  19.927  0.00  0.00    +0.000 A 
ENDBRANCH  19  20
ENDBRANCH  10  19
TORSDOF 4
ENDMDL
