MODEL 1
REMARK VINA RESULT:      -6.9      0.000      0.000
REMARK  Name = 
REMARK  0 active torsions:
REMARK  status: ('A' for Active; 'I' for Inactive)
REMARK                            x       y       z     vdW  Elec       q    Type
REMARK                         _______ _______ _______ _____ _____    ______ ____
ROOT
ATOM      1 BR   UNL     1       6.255   4.095  14.444  0.00  0.00    +0.000 Br
ATOM      2  C   UNL     1       5.261   4.804  15.847  0.00  0.00    +0.000 A 
ATOM      3  C   UNL     1       5.280   6.248  16.058  0.00  0.00    +0.000 A 
ATOM      4  C   UNL     1       4.577   6.826  17.049  0.00  0.00    +0.000 A 
ATOM      5  C   UNL     1       3.789   6.021  17.922  0.00  0.00    +0.000 A 
ATOM      6  N   UNL     1       3.013   6.342  18.939  0.00  0.00    +0.000 NA
ATOM      7  C   UNL     1       2.513   5.152  19.390  0.00  0.00    +0.000 A 
ATOM      8  C   UNL     1       2.999   4.093  18.655  0.00  0.00    +0.000 A 
ATOM      9  N   UNL     1       3.806   4.643  17.697  0.00  0.00    +0.000 N 
ATOM     10  C   UNL     1       4.528   4.039  16.672  0.00  0.00    +0.000 A 
ATOM     11  C   UNL     1       2.666   2.663  18.865  0.00  0.00    +0.000 C 
ATOM     12  C   UNL     1       2.019   2.492  20.255  0.00  0.00    +0.000 C 
ATOM     13  C   UNL     1       0.967   3.586  20.540  0.00  0.00    +0.000 C 
ATOM     14  C   UNL     1       1.590   4.998  20.543  0.00  0.00    +0.000 C 
ENDROOT
TORSDOF 0
ENDMDL
MODEL 2
REMARK VINA RESULT:      -6.9      2.892      5.155
REMARK  Name = 
REMARK  0 active torsions:
REMARK  status: ('A' for Active; 'I' for Inactive)
REMARK                            x       y       z     vdW  Elec       q    Type
REMARK                         _______ _______ _______ _____ _____    ______ ____
ROOT
ATOM      1 BR   UNL     1       1.535   2.714  21.389  0.00  0.00    +0.000 Br
ATOM      2  C   UNL     1       2.453   3.129  19.824  0.00  0.00    +0.000 A 
ATOM      3  C   UNL     1       1.911   2.662  18.552  0.00  0.00    +0.000 A 
ATOM      4  C   UNL     1       2.521   2.935  17.383  0.00  0.00    +0.000 A 
ATOM      5  C   UNL     1       3.725   3.697  17.372  0.00  0.00    +0.000 A 
ATOM      6  N   UNL     1       4.489   4.102  16.377  0.00  0.00    +0.000 NA
ATOM      7  C   UNL     1       5.504   4.797  16.973  0.00  0.00    +0.000 A 
ATOM      8  C   UNL     1       5.370   4.804  18.344  0.00  0.00    +0.000 A 
ATOM      9  N   UNL     1       4.218   4.114  18.610  0.00  0.00    +0.000 N 
ATOM     10  C   UNL     1       3.592   3.840  19.821  0.00  0.00    +0.000 A 
ATOM     11  C   UNL     1       6.287   5.464  19.305  0.00  0.00    +0.000 C 
ATOM     12  C   UNL     1       7.612   5.802  18.591  0.00  0.00    +0.000 C 
ATOM     13  C   UNL     1       7.374   6.416  17.194  0.00  0.00    +0.000 C 
ATOM     14  C   UNL     1       6.633   5.441  16.255  0.00  0.00    +0.000 C 
ENDROOT
TORSDOF 0
ENDMDL
MODEL 3
REMARK VINA RESULT:      -6.9      1.662      2.468
REMARK  Name = 
REMARK  0 active torsions:
REMARK  status: ('A' for Active; 'I' for Inactive)
REMARK                            x       y       z     vdW  Elec       q    Type
REMARK                         _______ _______ _______ _____ _____    ______ ____
ROOT
ATOM      1 BR   UNL     1       7.535   7.018  17.743  0.00  0.00    +0.000 Br
ATOM      2  C   UNL     1       6.111   5.845  17.503  0.00  0.00    +0.000 A 
ATOM      3  C   UNL     1       6.022   5.100  16.252  0.00  0.00    +0.000 A 
ATOM      4  C   UNL     1       5.023   4.229  16.018  0.00  0.00    +0.000 A 
ATOM      5  C   UNL     1       4.018   4.020  17.007  0.00  0.00    +0.000 A 
ATOM      6  N   UNL     1       2.966   3.226  17.025  0.00  0.00    +0.000 NA
ATOM      7  C   UNL     1       2.375   3.452  18.237  0.00  0.00    +0.000 A 
ATOM      8  C   UNL     1       3.061   4.403  18.961  0.00  0.00    +0.000 A 
ATOM      9  N   UNL     1       4.130   4.761  18.186  0.00  0.00    +0.000 N 
ATOM     10  C   UNL     1       5.163   5.659  18.436  0.00  0.00    +0.000 A 
ATOM     11  C   UNL     1       2.705   4.890  20.316  0.00  0.00    +0.000 C 
ATOM     12  C   UNL     1       1.252   4.479  20.637  0.00  0.00    +0.000 C 
ATOM     13  C   UNL     1       0.964   3.016  20.234  0.00  0.00    +0.000 C 
ATOM     14  C   UNL     1       1.134   2.792  18.717  0.00  0.00    +0.000 C 
ENDROOT
TORSDOF 0
ENDMDL
MODEL 4
REMARK VINA RESULT:      -6.8      1.347      1.362
REMARK  Name = 
REMARK  0 active torsions:
REMARK  status: ('A' for Active; 'I' for Inactive)
REMARK                            x       y       z     vdW  Elec       q    Type
REMARK                         _______ _______ _______ _____ _____    ______ ____
ROOT
ATOM      1 BR   UNL     1       6.233   4.067  14.185  0.00  0.00    +0.000 Br
ATOM      2  C   UNL     1       5.735   4.387  15.949  0.00  0.00    +0.000 A 
ATOM      3  C   UNL     1       6.680   5.065  16.830  0.00  0.00    +0.000 A 
ATOM      4  C   UNL     1       6.380   5.334  18.114  0.00  0.00    +0.000 A 
ATOM      5  C   UNL     1       5.111   4.954  18.641  0.00  0.00    +0.000 A 
ATOM      6  N   UNL     1       4.581   5.115  19.837  0.00  0.00    +0.000 NA
ATOM      7  C   UNL     1       3.339   4.551  19.751  0.00  0.00    +0.000 A 
ATOM      8  C   UNL     1       3.112   4.026  18.498  0.00  0.00    +0.000 A 
ATOM      9  N   UNL     1       4.239   4.296  17.770  0.00  0.00    +0.000 N 
ATOM     10  C   UNL     1       4.541   4.018  16.441  0.00  0.00    +0.000 A 
ATOM     11  C   UNL     1       1.873   3.344  18.051  0.00  0.00    +0.000 C 
ATOM     12  C   UNL     1       1.034   2.956  19.287  0.00  0.00    +0.000 C 
ATOM     13  C   UNL     1       0.963   4.102  20.318  0.00  0.00    +0.000 C 
ATOM     14  C   UNL     1       2.358   4.475  20.864  0.00  0.00    +0.000 C 
ENDROOT
TORSDOF 0
ENDMDL
MODEL 5
REMARK VINA RESULT:      -6.5      2.995      4.983
REMARK  Name = 
REMARK  0 active torsions:
REMARK  status: ('A' for Active; 'I' for Inactive)
REMARK                            x       y       z     vdW  Elec       q    Type
REMARK                         _______ _______ _______ _____ _____    ______ ____
ROOT
ATOM      1 BR   UNL     1       1.704   2.757  21.408  0.00  0.00    +0.000 Br
ATOM      2  C   UNL     1       2.417   3.778  20.026  0.00  0.00    +0.000 A 
ATOM      3  C   UNL     1       1.547   4.158  18.918  0.00  0.00    +0.000 A 
ATOM      4  C   UNL     1       1.997   4.903  17.891  0.00  0.00    +0.000 A 
ATOM      5  C   UNL     1       3.354   5.338  17.871  0.00  0.00    +0.000 A 
ATOM      6  N   UNL     1       4.019   6.075  17.004  0.00  0.00    +0.000 NA
ATOM      7  C   UNL     1       5.285   6.164  17.515  0.00  0.00    +0.000 A 
ATOM      8  C   UNL     1       5.399   5.463  18.695  0.00  0.00    +0.000 A 
ATOM      9  N   UNL     1       4.158   4.943  18.943  0.00  0.00    +0.000 N 
ATOM     10  C   UNL     1       3.699   4.177  20.009  0.00  0.00    +0.000 A 
ATOM     11  C   UNL     1       6.625   5.346  19.522  0.00  0.00    +0.000 C 
ATOM     12  C   UNL     1       7.845   5.783  18.684  0.00  0.00    +0.000 C 
ATOM     13  C   UNL     1       7.565   7.075  17.887  0.00  0.00    +0.000 C 
ATOM     14  C   UNL     1       6.412   6.890  16.877  0.00  0.00    +0.000 C 
ENDROOT
TORSDOF 0
ENDMDL
MODEL 6
REMARK VINA RESULT:      -6.5      2.508      4.782
REMARK  Name = 
REMARK  0 active torsions:
REMARK  status: ('A' for Active; 'I' for Inactive)
REMARK                            x       y       z     vdW  Elec       q    Type
REMARK                         _______ _______ _______ _____ _____    ______ ____
ROOT
ATOM      1 BR   UNL     1       1.539   2.724  21.520  0.00  0.00    +0.000 Br
ATOM      2  C   UNL     1       2.177   4.057  20.390  0.00  0.00    +0.000 A 
ATOM      3  C   UNL     1       1.794   5.439  20.654  0.00  0.00    +0.000 A 
ATOM      4  C   UNL     1       2.228   6.452  19.881  0.00  0.00    +0.000 A 
ATOM      5  C   UNL     1       3.082   6.183  18.773  0.00  0.00    +0.000 A 
ATOM      6  N   UNL     1       3.643   6.986  17.890  0.00  0.00    +0.000 NA
ATOM      7  C   UNL     1       4.357   6.161  17.066  0.00  0.00    +0.000 A 
ATOM      8  C   UNL     1       4.219   4.841  17.436  0.00  0.00    +0.000 A 
ATOM      9  N   UNL     1       3.415   4.846  18.544  0.00  0.00    +0.000 N 
ATOM     10  C   UNL     1       2.974   3.795  19.341  0.00  0.00    +0.000 A 
ATOM     11  C   UNL     1       4.854   3.679  16.769  0.00  0.00    +0.000 C 
ATOM     12  C   UNL     1       5.366   4.111  15.378  0.00  0.00    +0.000 C 
ATOM     13  C   UNL     1       6.092   5.473  15.429  0.00  0.00    +0.000 C 
ATOM     14  C   UNL     1       5.157   6.608  15.898  0.00  0.00    +0.000 C 
ENDROOT
TORSDOF 0
ENDMDL
MODEL 7
REMARK VINA RESULT:      -6.2      2.477      3.303
REMARK  Name = 
REMARK  0 active torsions:
REMARK  status: ('A' for Active; 'I' for Inactive)
REMARK                            x       y       z     vdW  Elec       q    Type
REMARK                         _______ _______ _______ _____ _____    ______ ____
ROOT
ATOM      1 BR   UNL     1       1.832   9.628  17.913  0.00  0.00    +0.000 Br
ATOM      2  C   UNL     1       2.657   7.973  18.124  0.00  0.00    +0.000 A 
ATOM      3  C   UNL     1       3.846   7.680  17.331  0.00  0.00    +0.000 A 
ATOM      4  C   UNL     1       4.495   6.505  17.442  0.00  0.00    +0.000 A 
ATOM      5  C   UNL     1       4.020   5.515  18.350  0.00  0.00    +0.000 A 
ATOM      6  N   UNL     1       4.478   4.315  18.647  0.00  0.00    +0.000 NA
ATOM      7  C   UNL     1       3.614   3.831  19.589  0.00  0.00    +0.000 A 
ATOM      8  C   UNL     1       2.609   4.734  19.859  0.00  0.00    +0.000 A 
ATOM      9  N   UNL     1       2.872   5.828  19.080  0.00  0.00    +0.000 N 
ATOM     10  C   UNL     1       2.198   7.041  18.975  0.00  0.00    +0.000 A 
ATOM     11  C   UNL     1       1.503   4.542  20.829  0.00  0.00    +0.000 C 
ATOM     12  C   UNL     1       1.408   3.047  21.199  0.00  0.00    +0.000 C 
ATOM     13  C   UNL     1       2.798   2.430  21.470  0.00  0.00    +0.000 C 
ATOM     14  C   UNL     1       3.709   2.493  20.226  0.00  0.00    +0.000 C 
ENDROOT
TORSDOF 0
ENDMDL
MODEL 8
REMARK VINA RESULT:      -6.1      1.467      1.485
REMARK  Name = 
REMARK  0 active torsions:
REMARK  status: ('A' for Active; 'I' for Inactive)
REMARK                            x       y       z     vdW  Elec       q    Type
REMARK                         _______ _______ _______ _____ _____    ______ ____
ROOT
ATOM      1 BR   UNL     1       7.756   4.711  17.083  0.00  0.00    +0.000 Br
ATOM      2  C   UNL     1       6.019   5.067  17.647  0.00  0.00    +0.000 A 
ATOM      3  C   UNL     1       5.345   6.252  17.128  0.00  0.00    +0.000 A 
ATOM      4  C   UNL     1       4.085   6.563  17.489  0.00  0.00    +0.000 A 
ATOM      5  C   UNL     1       3.381   5.723  18.399  0.00  0.00    +0.000 A 
ATOM      6  N   UNL     1       2.158   5.800  18.887  0.00  0.00    +0.000 NA
ATOM      7  C   UNL     1       2.038   4.714  19.709  0.00  0.00    +0.000 A 
ATOM      8  C   UNL     1       3.200   3.976  19.738  0.00  0.00    +0.000 A 
ATOM      9  N   UNL     1       4.065   4.606  18.884  0.00  0.00    +0.000 N 
ATOM     10  C   UNL     1       5.364   4.277  18.513  0.00  0.00    +0.000 A 
ATOM     11  C   UNL     1       3.423   2.734  20.519  0.00  0.00    +0.000 C 
ATOM     12  C   UNL     1       2.321   2.605  21.590  0.00  0.00    +0.000 C 
ATOM     13  C   UNL     1       0.922   2.925  21.020  0.00  0.00    +0.000 C 
ATOM     14  C   UNL     1       0.829   4.376  20.502  0.00  0.00    +0.000 C 
ENDROOT
TORSDOF 0
ENDMDL
MODEL 9
REMARK VINA RESULT:      -6.0      2.693      5.206
REMARK  Name = 
REMARK  0 active torsions:
REMARK  status: ('A' for Active; 'I' for Inactive)
REMARK                            x       y       z     vdW  Elec       q    Type
REMARK                         _______ _______ _______ _____ _____    ______ ____
ROOT
ATOM      1 BR   UNL     1       1.177   8.245  21.074  0.00  0.00    +0.000 Br
ATOM      2  C   UNL     1       1.945   6.777  20.228  0.00  0.00    +0.000 A 
ATOM      3  C   UNL     1       1.652   5.443  20.740  0.00  0.00    +0.000 A 
ATOM      4  C   UNL     1       2.168   4.338  20.170  0.00  0.00    +0.000 A 
ATOM      5  C   UNL     1       3.023   4.459  19.036  0.00  0.00    +0.000 A 
ATOM      6  N   UNL     1       3.630   3.547  18.303  0.00  0.00    +0.000 NA
ATOM      7  C   UNL     1       4.310   4.256  17.351  0.00  0.00    +0.000 A 
ATOM      8  C   UNL     1       4.131   5.612  17.513  0.00  0.00    +0.000 A 
ATOM      9  N   UNL     1       3.290   5.753  18.583  0.00  0.00    +0.000 N 
ATOM     10  C   UNL     1       2.757   6.898  19.165  0.00  0.00    +0.000 A 
ATOM     11  C   UNL     1       4.717   6.675  16.660  0.00  0.00    +0.000 C 
ATOM     12  C   UNL     1       5.862   6.075  15.818  0.00  0.00    +0.000 C 
ATOM     13  C   UNL     1       5.475   4.712  15.206  0.00  0.00    +0.000 C 
ATOM     14  C   UNL     1       5.163   3.660  16.291  0.00  0.00    +0.000 C 
ENDROOT
TORSDOF 0
ENDMDL
