MODEL 1
REMARK VINA RESULT:      -7.5      0.000      0.000
REMARK  Name = 
REMARK  5 active torsions:
REMARK  status: ('A' for Active; 'I' for Inactive)
REMARK    1  A    between atoms: C_1  and  O_2
REMARK    2  A    between atoms: O_2  and  C_3
REMARK    3  A    between atoms: C_3  and  C_4
REMARK    4  A    between atoms: C_3  and  C_20
REMARK    5  A    between atoms: N_9  and  C_10
REMARK                            x       y       z     vdW  Elec       q    Type
REMARK                         _______ _______ _______ _____ _____    ______ ____
ROOT
ATOM      1  C   UNL     1       4.475   5.556  19.278  0.00  0.00    +0.000 C 
ATOM      2  O   UNL     1       5.051   5.146  20.293  0.00  0.00    +0.000 OA
ATOM      3  N   UNL     1       5.145   5.611  18.061  0.00  0.00    +0.000 N 
ATOM      4  C   UNL     1       6.455   4.992  17.935  0.00  0.00    +0.000 C 
ATOM      5  C   UNL     1       6.529   4.277  16.586  0.00  0.00    +0.000 C 
ATOM      6  N   UNL     1       6.214   5.170  15.463  0.00  0.00    +0.000 N 
ATOM      7  C   UNL     1       5.327   6.245  15.603  0.00  0.00    +0.000 C 
ATOM      8  O   UNL     1       4.952   6.950  14.661  0.00  0.00    +0.000 OA
ATOM      9  C   UNL     1       4.858   6.599  17.027  0.00  0.00    +0.000 C 
ENDROOT
BRANCH   6  10
ATOM     10  C   UNL     1       6.610   4.763  14.155  0.00  0.00    +0.000 A 
ATOM     11  C   UNL     1       7.603   5.485  13.480  0.00  0.00    +0.000 A 
ATOM     12  C   UNL     1       7.983   5.135  12.182  0.00  0.00    +0.000 A 
ATOM     13  C   UNL     1       7.347   4.080  11.533  0.00  0.00    +0.000 A 
ATOM     14  C   UNL     1       6.354   3.363  12.197  0.00  0.00    +0.000 A 
ATOM     15 CL   UNL     1       5.520   2.103  11.369  0.00  0.00    +0.000 Cl
ATOM     16  C   UNL     1       6.001   3.679  13.512  0.00  0.00    +0.000 A 
ENDBRANCH   6  10
BRANCH   1  17
ATOM     17  C   UNL     1       2.953   5.907  19.338  0.00  0.00    +0.000 C 
BRANCH  17  18
ATOM     18  C   UNL     1       2.063   4.673  19.453  0.00  0.00    +0.000 A 
ATOM     19  C   UNL     1       1.687   4.189  20.717  0.00  0.00    +0.000 A 
ATOM     20  C   UNL     1       0.938   3.015  20.841  0.00  0.00    +0.000 A 
ATOM     21  C   UNL     1       0.550   2.310  19.703  0.00  0.00    +0.000 A 
ATOM     22  C   UNL     1       0.908   2.778  18.443  0.00  0.00    +0.000 A 
ATOM     23  C   UNL     1       1.656   3.950  18.317  0.00  0.00    +0.000 A 
ENDBRANCH  17  18
BRANCH  17  25
ATOM     24  C   UNL     1       1.942   8.030  19.747  0.00  0.00    +0.000 C 
ATOM     25  O   UNL     1       2.553   6.878  20.306  0.00  0.00    +0.000 OA
ENDBRANCH  17  25
ENDBRANCH   1  17
TORSDOF 4
ENDMDL
MODEL 2
REMARK VINA RESULT:      -7.1      4.847      7.105
REMARK  Name = 
REMARK  5 active torsions:
REMARK  status: ('A' for Active; 'I' for Inactive)
REMARK    1  A    between atoms: C_1  and  O_2
REMARK    2  A    between atoms: O_2  and  C_3
REMARK    3  A    between atoms: C_3  and  C_4
REMARK    4  A    between atoms: C_3  and  C_20
REMARK    5  A    between atoms: N_9  and  C_10
REMARK                            x       y       z     vdW  Elec       q    Type
REMARK                         _______ _______ _______ _____ _____    ______ ____
ROOT
ATOM      1  C   UNL     1       0.710  10.050  19.969  0.00  0.00    +0.000 C 
ATOM      2  O   UNL     1       0.296  10.472  21.056  0.00  0.00    +0.000 OA
ATOM      3  N   UNL     1       1.375   8.832  19.894  0.00  0.00    +0.000 N 
ATOM      4  C   UNL     1       1.401   7.955  21.054  0.00  0.00    +0.000 C 
ATOM      5  C   UNL     1       1.194   6.516  20.582  0.00  0.00    +0.000 C 
ATOM      6  N   UNL     1       2.164   6.120  19.553  0.00  0.00    +0.000 N 
ATOM      7  C   UNL     1       2.702   7.049  18.652  0.00  0.00    +0.000 C 
ATOM      8  O   UNL     1       3.433   6.741  17.706  0.00  0.00    +0.000 OA
ATOM      9  C   UNL     1       2.415   8.540  18.912  0.00  0.00    +0.000 C 
ENDROOT
BRANCH   6  10
ATOM     10  C   UNL     1       2.343   4.728  19.303  0.00  0.00    +0.000 A 
ATOM     11  C   UNL     1       1.379   4.031  18.563  0.00  0.00    +0.000 A 
ATOM     12  C   UNL     1       1.507   2.659  18.337  0.00  0.00    +0.000 A 
ATOM     13  C   UNL     1       2.585   1.963  18.878  0.00  0.00    +0.000 A 
ATOM     14  C   UNL     1       3.543   2.651  19.620  0.00  0.00    +0.000 A 
ATOM     15 CL   UNL     1       4.839   1.778  20.348  0.00  0.00    +0.000 Cl
ATOM     16  C   UNL     1       3.445   4.032  19.812  0.00  0.00    +0.000 A 
ENDBRANCH   6  10
BRANCH   1  17
ATOM     17  C   UNL     1       0.386  10.836  18.658  0.00  0.00    +0.000 C 
BRANCH  17  18
ATOM     18  C   UNL     1      -1.094  10.794  18.291  0.00  0.00    +0.000 A 
ATOM     19  C   UNL     1      -1.993  11.699  18.880  0.00  0.00    +0.000 A 
ATOM     20  C   UNL     1      -3.364  11.623  18.615  0.00  0.00    +0.000 A 
ATOM     21  C   UNL     1      -3.856  10.644  17.754  0.00  0.00    +0.000 A 
ATOM     22  C   UNL     1      -2.980   9.743  17.157  0.00  0.00    +0.000 A 
ATOM     23  C   UNL     1      -1.611   9.817  17.421  0.00  0.00    +0.000 A 
ENDBRANCH  17  18
BRANCH  17  25
ATOM     24  C   UNL     1       2.252  12.283  18.313  0.00  0.00    +0.000 C 
ATOM     25  O   UNL     1       0.862  12.180  18.576  0.00  0.00    +0.000 OA
ENDBRANCH  17  25
ENDBRANCH   1  17
TORSDOF 4
ENDMDL
MODEL 3
REMARK VINA RESULT:      -6.9      4.532      6.940
REMARK  Name = 
REMARK  5 active torsions:
REMARK  status: ('A' for Active; 'I' for Inactive)
REMARK    1  A    between atoms: C_1  and  O_2
REMARK    2  A    between atoms: O_2  and  C_3
REMARK    3  A    between atoms: C_3  and  C_4
REMARK    4  A    between atoms: C_3  and  C_20
REMARK    5  A    between atoms: N_9  and  C_10
REMARK                            x       y       z     vdW  Elec       q    Type
REMARK                         _______ _______ _______ _____ _____    ______ ____
ROOT
ATOM      1  C   UNL     1       0.533   9.977  19.916  0.00  0.00    +0.000 C 
ATOM      2  O   UNL     1       0.101  10.278  21.035  0.00  0.00    +0.000 OA
ATOM      3  N   UNL     1       1.326   8.847  19.747  0.00  0.00    +0.000 N 
ATOM      4  C   UNL     1       1.474   7.904  20.845  0.00  0.00    +0.000 C 
ATOM      5  C   UNL     1       1.414   6.485  20.279  0.00  0.00    +0.000 C 
ATOM      6  N   UNL     1       2.398   6.268  19.210  0.00  0.00    +0.000 N 
ATOM      7  C   UNL     1       2.810   7.308  18.366  0.00  0.00    +0.000 C 
ATOM      8  O   UNL     1       3.548   7.145  17.390  0.00  0.00    +0.000 OA
ATOM      9  C   UNL     1       2.368   8.737  18.732  0.00  0.00    +0.000 C 
ENDROOT
BRANCH   6  10
ATOM     10  C   UNL     1       2.723   4.924  18.864  0.00  0.00    +0.000 A 
ATOM     11  C   UNL     1       2.121   4.336  17.743  0.00  0.00    +0.000 A 
ATOM     12  C   UNL     1       2.388   3.009  17.402  0.00  0.00    +0.000 A 
ATOM     13  C   UNL     1       3.235   2.243  18.200  0.00  0.00    +0.000 A 
ATOM     14  C   UNL     1       3.830   2.821  19.320  0.00  0.00    +0.000 A 
ATOM     15 CL   UNL     1       4.822   1.855  20.345  0.00  0.00    +0.000 Cl
ATOM     16  C   UNL     1       3.603   4.162  19.641  0.00  0.00    +0.000 A 
ENDBRANCH   6  10
BRANCH   1  17
ATOM     17  C   UNL     1       0.095  10.806  18.666  0.00  0.00    +0.000 C 
BRANCH  17  18
ATOM     18  C   UNL     1      -1.405  10.730  18.399  0.00  0.00    +0.000 A 
ATOM     19  C   UNL     1      -1.918   9.760  17.522  0.00  0.00    +0.000 A 
ATOM     20  C   UNL     1      -3.279   9.728  17.205  0.00  0.00    +0.000 A 
ATOM     21  C   UNL     1      -4.149  10.662  17.763  0.00  0.00    +0.000 A 
ATOM     22  C   UNL     1      -3.660  11.628  18.638  0.00  0.00    +0.000 A 
ATOM     23  C   UNL     1      -2.301  11.662  18.955  0.00  0.00    +0.000 A 
ENDBRANCH  17  18
BRANCH  17  25
ATOM     24  C   UNL     1       1.610  12.464  19.474  0.00  0.00    +0.000 C 
ATOM     25  O   UNL     1       0.522  12.168  18.613  0.00  0.00    +0.000 OA
ENDBRANCH  17  25
ENDBRANCH   1  17
TORSDOF 4
ENDMDL
MODEL 4
REMARK VINA RESULT:      -6.8      3.753      7.795
REMARK  Name = 
REMARK  5 active torsions:
REMARK  status: ('A' for Active; 'I' for Inactive)
REMARK    1  A    between atoms: C_1  and  O_2
REMARK    2  A    between atoms: O_2  and  C_3
REMARK    3  A    between atoms: C_3  and  C_4
REMARK    4  A    between atoms: C_3  and  C_20
REMARK    5  A    between atoms: N_9  and  C_10
REMARK                            x       y       z     vdW  Elec       q    Type
REMARK                         _______ _______ _______ _____ _____    ______ ____
ROOT
ATOM      1  C   UNL     1       4.781   4.179  18.732  0.00  0.00    +0.000 C 
ATOM      2  O   UNL     1       4.596   3.035  19.166  0.00  0.00    +0.000 OA
ATOM      3  N   UNL     1       3.778   5.138  18.821  0.00  0.00    +0.000 N 
ATOM      4  C   UNL     1       2.589   4.860  19.611  0.00  0.00    +0.000 C 
ATOM      5  C   UNL     1       2.217   6.121  20.391  0.00  0.00    +0.000 C 
ATOM      6  N   UNL     1       2.056   7.292  19.518  0.00  0.00    +0.000 N 
ATOM      7  C   UNL     1       2.787   7.430  18.330  0.00  0.00    +0.000 C 
ATOM      8  O   UNL     1       2.763   8.445  17.627  0.00  0.00    +0.000 OA
ATOM      9  C   UNL     1       3.604   6.215  17.852  0.00  0.00    +0.000 C 
ENDROOT
BRANCH   6  10
ATOM     10  C   UNL     1       1.349   8.418  20.032  0.00  0.00    +0.000 A 
ATOM     11  C   UNL     1       1.135   9.532  19.210  0.00  0.00    +0.000 A 
ATOM     12  C   UNL     1       0.482  10.665  19.699  0.00  0.00    +0.000 A 
ATOM     13  C   UNL     1       0.066  10.709  21.027  0.00  0.00    +0.000 A 
ATOM     14  C   UNL     1       0.283   9.606  21.851  0.00  0.00    +0.000 A 
ATOM     15 CL   UNL     1      -0.168   9.687  23.512  0.00  0.00    +0.000 Cl
ATOM     16  C   UNL     1       0.896   8.452  21.356  0.00  0.00    +0.000 A 
ENDBRANCH   6  10
BRANCH   1  17
ATOM     17  C   UNL     1       6.187   4.581  18.182  0.00  0.00    +0.000 C 
BRANCH  17  18
ATOM     18  C   UNL     1       6.292   4.453  16.666  0.00  0.00    +0.000 A 
ATOM     19  C   UNL     1       7.277   5.168  15.963  0.00  0.00    +0.000 A 
ATOM     20  C   UNL     1       7.335   5.124  14.567  0.00  0.00    +0.000 A 
ATOM     21  C   UNL     1       6.414   4.362  13.853  0.00  0.00    +0.000 A 
ATOM     22  C   UNL     1       5.435   3.643  14.532  0.00  0.00    +0.000 A 
ATOM     23  C   UNL     1       5.374   3.686  15.926  0.00  0.00    +0.000 A 
ENDBRANCH  17  18
BRANCH  17  25
ATOM     24  C   UNL     1       7.802   5.761  19.485  0.00  0.00    +0.000 C 
ATOM     25  O   UNL     1       6.703   5.848  18.593  0.00  0.00    +0.000 OA
ENDBRANCH  17  25
ENDBRANCH   1  17
TORSDOF 4
ENDMDL
MODEL 5
REMARK VINA RESULT:      -6.8      3.502      7.762
REMARK  Name = 
REMARK  5 active torsions:
REMARK  status: ('A' for Active; 'I' for Inactive)
REMARK    1  A    between atoms: C_1  and  O_2
REMARK    2  A    between atoms: O_2  and  C_3
REMARK    3  A    between atoms: C_3  and  C_4
REMARK    4  A    between atoms: C_3  and  C_20
REMARK    5  A    between atoms: N_9  and  C_10
REMARK                            x       y       z     vdW  Elec       q    Type
REMARK                         _______ _______ _______ _____ _____    ______ ____
ROOT
ATOM      1  C   UNL     1       4.653   4.187  18.784  0.00  0.00    +0.000 C 
ATOM      2  O   UNL     1       4.433   3.031  19.167  0.00  0.00    +0.000 OA
ATOM      3  N   UNL     1       3.677   5.169  18.907  0.00  0.00    +0.000 N 
ATOM      4  C   UNL     1       2.474   4.892  19.677  0.00  0.00    +0.000 C 
ATOM      5  C   UNL     1       2.132   6.128  20.508  0.00  0.00    +0.000 C 
ATOM      6  N   UNL     1       2.010   7.339  19.685  0.00  0.00    +0.000 N 
ATOM      7  C   UNL     1       2.753   7.507  18.508  0.00  0.00    +0.000 C 
ATOM      8  O   UNL     1       2.763   8.550  17.849  0.00  0.00    +0.000 OA
ATOM      9  C   UNL     1       3.540   6.290  17.984  0.00  0.00    +0.000 C 
ENDROOT
BRANCH   6  10
ATOM     10  C   UNL     1       1.332   8.461  20.243  0.00  0.00    +0.000 A 
ATOM     11  C   UNL     1       1.230   8.584  21.635  0.00  0.00    +0.000 A 
ATOM     12  C   UNL     1       0.536   9.651  22.209  0.00  0.00    +0.000 A 
ATOM     13  C   UNL     1      -0.093  10.589  21.395  0.00  0.00    +0.000 A 
ATOM     14  C   UNL     1      -0.001  10.468  20.010  0.00  0.00    +0.000 A 
ATOM     15 CL   UNL     1      -0.838  11.589  19.004  0.00  0.00    +0.000 Cl
ATOM     16  C   UNL     1       0.730   9.428  19.429  0.00  0.00    +0.000 A 
ENDBRANCH   6  10
BRANCH   1  17
ATOM     17  C   UNL     1       6.074   4.572  18.260  0.00  0.00    +0.000 C 
BRANCH  17  18
ATOM     18  C   UNL     1       6.194   4.480  16.742  0.00  0.00    +0.000 A 
ATOM     19  C   UNL     1       7.236   5.146  16.075  0.00  0.00    +0.000 A 
ATOM     20  C   UNL     1       7.313   5.138  14.679  0.00  0.00    +0.000 A 
ATOM     21  C   UNL     1       6.354   4.460  13.930  0.00  0.00    +0.000 A 
ATOM     22  C   UNL     1       5.318   3.790  14.574  0.00  0.00    +0.000 A 
ATOM     23  C   UNL     1       5.238   3.798  15.967  0.00  0.00    +0.000 A 
ENDBRANCH  17  18
BRANCH  17  25
ATOM     24  C   UNL     1       7.684   5.683  19.628  0.00  0.00    +0.000 C 
ATOM     25  O   UNL     1       6.611   5.817  18.709  0.00  0.00    +0.000 OA
ENDBRANCH  17  25
ENDBRANCH   1  17
TORSDOF 4
ENDMDL
MODEL 6
REMARK VINA RESULT:      -6.7      3.464      7.764
REMARK  Name = 
REMARK  5 active torsions:
REMARK  status: ('A' for Active; 'I' for Inactive)
REMARK    1  A    between atoms: C_1  and  O_2
REMARK    2  A    between atoms: O_2  and  C_3
REMARK    3  A    between atoms: C_3  and  C_4
REMARK    4  A    between atoms: C_3  and  C_20
REMARK    5  A    between atoms: N_9  and  C_10
REMARK                            x       y       z     vdW  Elec       q    Type
REMARK                         _______ _______ _______ _____ _____    ______ ____
ROOT
ATOM      1  C   UNL     1       4.712   4.309  18.347  0.00  0.00    +0.000 C 
ATOM      2  O   UNL     1       4.510   3.143  18.708  0.00  0.00    +0.000 OA
ATOM      3  N   UNL     1       3.740   5.284  18.536  0.00  0.00    +0.000 N 
ATOM      4  C   UNL     1       2.570   4.983  19.346  0.00  0.00    +0.000 C 
ATOM      5  C   UNL     1       2.259   6.196  20.223  0.00  0.00    +0.000 C 
ATOM      6  N   UNL     1       2.102   7.427  19.438  0.00  0.00    +0.000 N 
ATOM      7  C   UNL     1       2.797   7.629  18.238  0.00  0.00    +0.000 C 
ATOM      8  O   UNL     1       2.777   8.690  17.606  0.00  0.00    +0.000 OA
ATOM      9  C   UNL     1       3.563   6.430  17.650  0.00  0.00    +0.000 C 
ENDROOT
BRANCH   6  10
ATOM     10  C   UNL     1       1.444   8.533  20.053  0.00  0.00    +0.000 A 
ATOM     11  C   UNL     1       1.318   8.571  21.447  0.00  0.00    +0.000 A 
ATOM     12  C   UNL     1       0.643   9.620  22.075  0.00  0.00    +0.000 A 
ATOM     13  C   UNL     1       0.056  10.625  21.310  0.00  0.00    +0.000 A 
ATOM     14  C   UNL     1       0.172  10.588  19.922  0.00  0.00    +0.000 A 
ATOM     15 CL   UNL     1      -0.612  11.793  18.973  0.00  0.00    +0.000 Cl
ATOM     16  C   UNL     1       0.886   9.565  19.290  0.00  0.00    +0.000 A 
ENDBRANCH   6  10
BRANCH   1  17
ATOM     17  C   UNL     1       6.111   4.713  17.777  0.00  0.00    +0.000 C 
BRANCH  17  18
ATOM     18  C   UNL     1       6.189   4.599  16.258  0.00  0.00    +0.000 A 
ATOM     19  C   UNL     1       5.193   3.908  15.549  0.00  0.00    +0.000 A 
ATOM     20  C   UNL     1       5.292   3.726  14.167  0.00  0.00    +0.000 A 
ATOM     21  C   UNL     1       6.385   4.237  13.471  0.00  0.00    +0.000 A 
ATOM     22  C   UNL     1       7.380   4.929  14.156  0.00  0.00    +0.000 A 
ATOM     23  C   UNL     1       7.284   5.110  15.536  0.00  0.00    +0.000 A 
ENDBRANCH  17  18
BRANCH  17  25
ATOM     24  C   UNL     1       7.683   5.877  19.144  0.00  0.00    +0.000 C 
ATOM     25  O   UNL     1       6.636   5.974  18.191  0.00  0.00    +0.000 OA
ENDBRANCH  17  25
ENDBRANCH   1  17
TORSDOF 4
ENDMDL
MODEL 7
REMARK VINA RESULT:      -6.7      3.737      8.102
REMARK  Name = 
REMARK  5 active torsions:
REMARK  status: ('A' for Active; 'I' for Inactive)
REMARK    1  A    between atoms: C_1  and  O_2
REMARK    2  A    between atoms: O_2  and  C_3
REMARK    3  A    between atoms: C_3  and  C_4
REMARK    4  A    between atoms: C_3  and  C_20
REMARK    5  A    between atoms: N_9  and  C_10
REMARK                            x       y       z     vdW  Elec       q    Type
REMARK                         _______ _______ _______ _____ _____    ______ ____
ROOT
ATOM      1  C   UNL     1       4.050   4.395  17.815  0.00  0.00    +0.000 C 
ATOM      2  O   UNL     1       4.005   3.230  18.230  0.00  0.00    +0.000 OA
ATOM      3  N   UNL     1       3.148   5.345  18.278  0.00  0.00    +0.000 N 
ATOM      4  C   UNL     1       2.284   5.024  19.404  0.00  0.00    +0.000 C 
ATOM      5  C   UNL     1       2.210   6.244  20.323  0.00  0.00    +0.000 C 
ATOM      6  N   UNL     1       1.784   7.456  19.610  0.00  0.00    +0.000 N 
ATOM      7  C   UNL     1       2.081   7.656  18.255  0.00  0.00    +0.000 C 
ATOM      8  O   UNL     1       1.839   8.704  17.650  0.00  0.00    +0.000 OA
ATOM      9  C   UNL     1       2.676   6.468  17.475  0.00  0.00    +0.000 C 
ENDROOT
BRANCH   6  10
ATOM     10  C   UNL     1       1.304   8.552  20.384  0.00  0.00    +0.000 A 
ATOM     11  C   UNL     1       1.188   8.417  21.774  0.00  0.00    +0.000 A 
ATOM     12  C   UNL     1       0.682   9.460  22.553  0.00  0.00    +0.000 A 
ATOM     13  C   UNL     1       0.255  10.638  21.945  0.00  0.00    +0.000 A 
ATOM     14  C   UNL     1       0.361  10.774  20.563  0.00  0.00    +0.000 A 
ATOM     15 CL   UNL     1      -0.231  12.203  19.804  0.00  0.00    +0.000 Cl
ATOM     16  C   UNL     1       0.909   9.752  19.782  0.00  0.00    +0.000 A 
ENDBRANCH   6  10
BRANCH   1  17
ATOM     17  C   UNL     1       5.200   4.828  16.849  0.00  0.00    +0.000 C 
BRANCH  17  18
ATOM     18  C   UNL     1       6.249   5.703  17.529  0.00  0.00    +0.000 A 
ATOM     19  C   UNL     1       6.528   6.986  17.030  0.00  0.00    +0.000 A 
ATOM     20  C   UNL     1       7.541   7.769  17.592  0.00  0.00    +0.000 A 
ATOM     21  C   UNL     1       8.288   7.282  18.662  0.00  0.00    +0.000 A 
ATOM     22  C   UNL     1       8.022   6.015  19.173  0.00  0.00    +0.000 A 
ATOM     23  C   UNL     1       7.012   5.232  18.613  0.00  0.00    +0.000 A 
ENDBRANCH  17  18
BRANCH  17  25
ATOM     24  C   UNL     1       6.226   4.172  14.797  0.00  0.00    +0.000 C 
ATOM     25  O   UNL     1       5.847   3.792  16.110  0.00  0.00    +0.000 OA
ENDBRANCH  17  25
ENDBRANCH   1  17
TORSDOF 4
ENDMDL
MODEL 8
REMARK VINA RESULT:      -6.6      4.419      7.491
REMARK  Name = 
REMARK  5 active torsions:
REMARK  status: ('A' for Active; 'I' for Inactive)
REMARK    1  A    between atoms: C_1  and  O_2
REMARK    2  A    between atoms: O_2  and  C_3
REMARK    3  A    between atoms: C_3  and  C_4
REMARK    4  A    between atoms: C_3  and  C_20
REMARK    5  A    between atoms: N_9  and  C_10
REMARK                            x       y       z     vdW  Elec       q    Type
REMARK                         _______ _______ _______ _____ _____    ______ ____
ROOT
ATOM      1  C   UNL     1      -0.279  10.017  20.586  0.00  0.00    +0.000 C 
ATOM      2  O   UNL     1      -0.472  10.113  21.804  0.00  0.00    +0.000 OA
ATOM      3  N   UNL     1       0.750   9.222  20.096  0.00  0.00    +0.000 N 
ATOM      4  C   UNL     1       1.467   8.338  21.001  0.00  0.00    +0.000 C 
ATOM      5  C   UNL     1       1.703   7.004  20.293  0.00  0.00    +0.000 C 
ATOM      6  N   UNL     1       2.387   7.168  19.004  0.00  0.00    +0.000 N 
ATOM      7  C   UNL     1       2.219   8.320  18.223  0.00  0.00    +0.000 C 
ATOM      8  O   UNL     1       2.686   8.450  17.087  0.00  0.00    +0.000 OA
ATOM      9  C   UNL     1       1.468   9.506  18.858  0.00  0.00    +0.000 C 
ENDROOT
BRANCH   6  10
ATOM     10  C   UNL     1       3.008   6.023  18.425  0.00  0.00    +0.000 A 
ATOM     11  C   UNL     1       2.211   4.979  17.936  0.00  0.00    +0.000 A 
ATOM     12  C   UNL     1       2.792   3.828  17.401  0.00  0.00    +0.000 A 
ATOM     13  C   UNL     1       4.178   3.693  17.382  0.00  0.00    +0.000 A 
ATOM     14  C   UNL     1       4.975   4.725  17.874  0.00  0.00    +0.000 A 
ATOM     15 CL   UNL     1       6.686   4.528  17.914  0.00  0.00    +0.000 Cl
ATOM     16  C   UNL     1       4.401   5.899  18.369  0.00  0.00    +0.000 A 
ENDBRANCH   6  10
BRANCH   1  17
ATOM     17  C   UNL     1      -1.267  10.705  19.589  0.00  0.00    +0.000 C 
BRANCH  17  18
ATOM     18  C   UNL     1      -1.098  12.220  19.534  0.00  0.00    +0.000 A 
ATOM     19  C   UNL     1      -0.185  12.796  18.636  0.00  0.00    +0.000 A 
ATOM     20  C   UNL     1       0.040  14.176  18.628  0.00  0.00    +0.000 A 
ATOM     21  C   UNL     1      -0.648  15.001  19.515  0.00  0.00    +0.000 A 
ATOM     22  C   UNL     1      -1.560  14.448  20.409  0.00  0.00    +0.000 A 
ATOM     23  C   UNL     1      -1.786  13.071  20.419  0.00  0.00    +0.000 A 
ENDBRANCH  17  18
BRANCH  17  25
ATOM     24  C   UNL     1      -2.628   9.988  17.764  0.00  0.00    +0.000 C 
ATOM     25  O   UNL     1      -1.313  10.180  18.262  0.00  0.00    +0.000 OA
ENDBRANCH  17  25
ENDBRANCH   1  17
TORSDOF 4
ENDMDL
MODEL 9
REMARK VINA RESULT:      -6.6      5.029      7.824
REMARK  Name = 
REMARK  5 active torsions:
REMARK  status: ('A' for Active; 'I' for Inactive)
REMARK    1  A    between atoms: C_1  and  O_2
REMARK    2  A    between atoms: O_2  and  C_3
REMARK    3  A    between atoms: C_3  and  C_4
REMARK    4  A    between atoms: C_3  and  C_20
REMARK    5  A    between atoms: N_9  and  C_10
REMARK                            x       y       z     vdW  Elec       q    Type
REMARK                         _______ _______ _______ _____ _____    ______ ____
ROOT
ATOM      1  C   UNL     1       0.321  11.133  20.097  0.00  0.00    +0.000 C 
ATOM      2  O   UNL     1       0.058  11.726  21.151  0.00  0.00    +0.000 OA
ATOM      3  N   UNL     1       1.002   9.921  20.121  0.00  0.00    +0.000 N 
ATOM      4  C   UNL     1       1.222   9.247  21.391  0.00  0.00    +0.000 C 
ATOM      5  C   UNL     1       0.989   7.749  21.194  0.00  0.00    +0.000 C 
ATOM      6  N   UNL     1       1.809   7.194  20.110  0.00  0.00    +0.000 N 
ATOM      7  C   UNL     1       2.183   7.965  19.001  0.00  0.00    +0.000 C 
ATOM      8  O   UNL     1       2.777   7.508  18.020  0.00  0.00    +0.000 OA
ATOM      9  C   UNL     1       1.895   9.477  19.057  0.00  0.00    +0.000 C 
ENDROOT
BRANCH   6  10
ATOM     10  C   UNL     1       1.989   5.780  20.065  0.00  0.00    +0.000 A 
ATOM     11  C   UNL     1       0.917   4.938  20.387  0.00  0.00    +0.000 A 
ATOM     12  C   UNL     1       1.075   3.551  20.391  0.00  0.00    +0.000 A 
ATOM     13  C   UNL     1       2.318   2.992  20.105  0.00  0.00    +0.000 A 
ATOM     14  C   UNL     1       3.389   3.825  19.790  0.00  0.00    +0.000 A 
ATOM     15 CL   UNL     1       4.943   3.138  19.505  0.00  0.00    +0.000 Cl
ATOM     16  C   UNL     1       3.227   5.213  19.740  0.00  0.00    +0.000 A 
ENDBRANCH   6  10
BRANCH   1  17
ATOM     17  C   UNL     1      -0.214  11.691  18.739  0.00  0.00    +0.000 C 
BRANCH  17  18
ATOM     18  C   UNL     1      -1.633  11.230  18.424  0.00  0.00    +0.000 A 
ATOM     19  C   UNL     1      -1.844  10.095  17.623  0.00  0.00    +0.000 A 
ATOM     20  C   UNL     1      -3.137   9.705  17.259  0.00  0.00    +0.000 A 
ATOM     21  C   UNL     1      -4.237  10.441  17.693  0.00  0.00    +0.000 A 
ATOM     22  C   UNL     1      -4.047  11.565  18.492  0.00  0.00    +0.000 A 
ATOM     23  C   UNL     1      -2.758  11.956  18.856  0.00  0.00    +0.000 A 
ENDBRANCH  17  18
BRANCH  17  25
ATOM     24  C   UNL     1       1.220  13.589  18.536  0.00  0.00    +0.000 C 
ATOM     25  O   UNL     1      -0.113  13.101  18.537  0.00  0.00    +0.000 OA
ENDBRANCH  17  25
ENDBRANCH   1  17
TORSDOF 4
ENDMDL
