MODEL 1
REMARK VINA RESULT:      -8.4      0.000      0.000
REMARK  Name = 
REMARK  7 active torsions:
REMARK  status: ('A' for Active; 'I' for Inactive)
REMARK    1  A    between atoms: C_1  and  C_2
REMARK    2  A    between atoms: C_2  and  C_3
REMARK    3  A    between atoms: N_5  and  S_6
REMARK    4  A    between atoms: S_6  and  C_9
REMARK    5  A    between atoms: C_18  and  C_20
REMARK    6  A    between atoms: C_20  and  C_21
REMARK    7  A    between atoms: C_21  and  C_22
REMARK                            x       y       z     vdW  Elec       q    Type
REMARK                         _______ _______ _______ _____ _____    ______ ____
ROOT
ATOM      1  C   UNL     1       7.080   4.657  16.484  0.00  0.00    +0.000 C 
ATOM      2  C   UNL     1       6.876   5.141  17.916  0.00  0.00    +0.000 C 
ATOM      3  C   UNL     1       8.049   4.611  18.805  0.00  0.00    +0.000 C 
ATOM      4  C   UNL     1       8.227   6.023  19.346  0.00  0.00    +0.000 C 
ATOM      5  N   UNL     1       7.437   6.471  18.215  0.00  0.00    +0.000 N 
ATOM      6  C   UNL     1       7.400   7.677  17.571  0.00  0.00    +0.000 C 
ATOM      7  O   UNL     1       6.651   7.882  16.620  0.00  0.00    +0.000 OA
ENDROOT
BRANCH   2   8
ATOM      8  C   UNL     1       5.436   4.793  18.435  0.00  0.00    +0.000 C 
ATOM      9  O   UNL     1       5.099   3.624  18.638  0.00  0.00    +0.000 OA
ATOM     10  N   UNL     1       4.544   5.853  18.636  0.00  0.00    +0.000 N 
ATOM     11  H   UNL     1       4.777   6.824  18.408  0.00  0.00    +0.000 HD
BRANCH  10  12
ATOM     12  S   UNL     1       2.946   5.590  19.091  0.00  0.00    +0.000 S 
ATOM     13  O   UNL     1       2.305   4.879  18.004  0.00  0.00    +0.000 OA
ATOM     14  O   UNL     1       2.908   5.060  20.434  0.00  0.00    +0.000 OA
BRANCH  12  15
ATOM     15  C   UNL     1       2.274   7.239  19.113  0.00  0.00    +0.000 A 
ATOM     16  C   UNL     1       2.307   8.014  17.950  0.00  0.00    +0.000 A 
ATOM     17  C   UNL     1       1.752   9.295  17.962  0.00  0.00    +0.000 A 
ATOM     18  C   UNL     1       1.156   9.790  19.123  0.00  0.00    +0.000 A 
ATOM     19  C   UNL     1       1.099   9.003  20.274  0.00  0.00    +0.000 A 
ATOM     20  C   UNL     1       1.651   7.722  20.269  0.00  0.00    +0.000 A 
ENDBRANCH  12  15
ENDBRANCH  10  12
ENDBRANCH   2   8
BRANCH   6  21
ATOM     21  C   UNL     1       8.407   8.705  18.098  0.00  0.00    +0.000 C 
BRANCH  21  22
ATOM     22  C   UNL     1       7.985  10.147  17.821  0.00  0.00    +0.000 C 
BRANCH  22  23
ATOM     23  C   UNL     1       9.022  11.173  18.259  0.00  0.00    +0.000 A 
ATOM     24  C   UNL     1      10.172  10.749  18.953  0.00  0.00    +0.000 A 
ATOM     25  C   UNL     1      11.146  11.669  19.364  0.00  0.00    +0.000 A 
ATOM     26  C   UNL     1      10.986  13.023  19.084  0.00  0.00    +0.000 A 
ATOM     27 CL   UNL     1      12.180  14.153  19.591  0.00  0.00    +0.000 Cl
ATOM     28  C   UNL     1       9.860  13.468  18.401  0.00  0.00    +0.000 A 
ATOM     29  C   UNL     1       8.882  12.550  17.996  0.00  0.00    +0.000 A 
ATOM     30 CL   UNL     1       7.502  13.184  17.171  0.00  0.00    +0.000 Cl
ENDBRANCH  22  23
ENDBRANCH  21  22
ENDBRANCH   6  21
TORSDOF 6
ENDMDL
MODEL 2
REMARK VINA RESULT:      -8.3      5.472      8.085
REMARK  Name = 
REMARK  7 active torsions:
REMARK  status: ('A' for Active; 'I' for Inactive)
REMARK    1  A    between atoms: C_1  and  C_2
REMARK    2  A    between atoms: C_2  and  C_3
REMARK    3  A    between atoms: N_5  and  S_6
REMARK    4  A    between atoms: S_6  and  C_9
REMARK    5  A    between atoms: C_18  and  C_20
REMARK    6  A    between atoms: C_20  and  C_21
REMARK    7  A    between atoms: C_21  and  C_22
REMARK                            x       y       z     vdW  Elec       q    Type
REMARK                         _______ _______ _______ _____ _____    ______ ____
ROOT
ATOM      1  C   UNL     1       3.323   2.544  18.967  0.00  0.00    +0.000 C 
ATOM      2  C   UNL     1       3.528   3.957  18.429  0.00  0.00    +0.000 C 
ATOM      3  C   UNL     1       2.544   4.195  17.236  0.00  0.00    +0.000 C 
ATOM      4  C   UNL     1       2.133   5.509  17.887  0.00  0.00    +0.000 C 
ATOM      5  N   UNL     1       2.741   5.005  19.103  0.00  0.00    +0.000 N 
ATOM      6  C   UNL     1       2.498   5.305  20.415  0.00  0.00    +0.000 C 
ATOM      7  O   UNL     1       3.125   4.777  21.329  0.00  0.00    +0.000 OA
ENDROOT
BRANCH   2   8
ATOM      8  C   UNL     1       5.040   4.232  18.112  0.00  0.00    +0.000 C 
ATOM      9  O   UNL     1       5.900   4.149  18.993  0.00  0.00    +0.000 OA
ATOM     10  N   UNL     1       5.373   4.596  16.803  0.00  0.00    +0.000 N 
ATOM     11  H   UNL     1       4.670   4.741  16.072  0.00  0.00    +0.000 HD
BRANCH  10  12
ATOM     12  S   UNL     1       6.946   5.013  16.373  0.00  0.00    +0.000 S 
ATOM     13  O   UNL     1       7.066   6.447  16.537  0.00  0.00    +0.000 OA
ATOM     14  O   UNL     1       7.877   4.122  17.026  0.00  0.00    +0.000 OA
BRANCH  12  15
ATOM     15  C   UNL     1       6.971   4.676  14.624  0.00  0.00    +0.000 A 
ATOM     16  C   UNL     1       6.080   3.741  14.088  0.00  0.00    +0.000 A 
ATOM     17  C   UNL     1       6.080   3.502  12.713  0.00  0.00    +0.000 A 
ATOM     18  C   UNL     1       6.953   4.203  11.879  0.00  0.00    +0.000 A 
ATOM     19  C   UNL     1       7.820   5.158  12.414  0.00  0.00    +0.000 A 
ATOM     20  C   UNL     1       7.825   5.402  13.787  0.00  0.00    +0.000 A 
ENDBRANCH  12  15
ENDBRANCH  10  12
ENDBRANCH   2   8
BRANCH   6  21
ATOM     21  C   UNL     1       1.349   6.295  20.634  0.00  0.00    +0.000 C 
BRANCH  21  22
ATOM     22  C   UNL     1       1.727   7.734  20.282  0.00  0.00    +0.000 C 
BRANCH  22  23
ATOM     23  C   UNL     1       0.854   8.773  20.974  0.00  0.00    +0.000 A 
ATOM     24  C   UNL     1       0.686   8.722  22.372  0.00  0.00    +0.000 A 
ATOM     25  C   UNL     1      -0.107   9.667  23.037  0.00  0.00    +0.000 A 
ATOM     26  C   UNL     1      -0.738  10.677  22.316  0.00  0.00    +0.000 A 
ATOM     27 CL   UNL     1      -1.714  11.835  23.132  0.00  0.00    +0.000 Cl
ATOM     28  C   UNL     1      -0.589  10.749  20.936  0.00  0.00    +0.000 A 
ATOM     29  C   UNL     1       0.197   9.800  20.269  0.00  0.00    +0.000 A 
ATOM     30 CL   UNL     1       0.315   9.945  18.551  0.00  0.00    +0.000 Cl
ENDBRANCH  22  23
ENDBRANCH  21  22
ENDBRANCH   6  21
TORSDOF 6
ENDMDL
MODEL 3
REMARK VINA RESULT:      -8.3      5.340      7.822
REMARK  Name = 
REMARK  7 active torsions:
REMARK  status: ('A' for Active; 'I' for Inactive)
REMARK    1  A    between atoms: C_1  and  C_2
REMARK    2  A    between atoms: C_2  and  C_3
REMARK    3  A    between atoms: N_5  and  S_6
REMARK    4  A    between atoms: S_6  and  C_9
REMARK    5  A    between atoms: C_18  and  C_20
REMARK    6  A    between atoms: C_20  and  C_21
REMARK    7  A    between atoms: C_21  and  C_22
REMARK                            x       y       z     vdW  Elec       q    Type
REMARK                         _______ _______ _______ _____ _____    ______ ____
ROOT
ATOM      1  C   UNL     1       3.593   2.290  19.002  0.00  0.00    +0.000 C 
ATOM      2  C   UNL     1       3.618   3.690  18.395  0.00  0.00    +0.000 C 
ATOM      3  C   UNL     1       2.627   3.737  17.185  0.00  0.00    +0.000 C 
ATOM      4  C   UNL     1       2.039   5.017  17.766  0.00  0.00    +0.000 C 
ATOM      5  N   UNL     1       2.692   4.658  19.011  0.00  0.00    +0.000 N 
ATOM      6  C   UNL     1       2.394   4.987  20.304  0.00  0.00    +0.000 C 
ATOM      7  O   UNL     1       3.074   4.591  21.247  0.00  0.00    +0.000 OA
ENDROOT
BRANCH   2   8
ATOM      8  C   UNL     1       5.085   4.145  18.075  0.00  0.00    +0.000 C 
ATOM      9  O   UNL     1       5.918   4.287  18.974  0.00  0.00    +0.000 OA
ATOM     10  N   UNL     1       5.407   4.404  16.738  0.00  0.00    +0.000 N 
ATOM     11  H   UNL     1       4.716   4.361  15.983  0.00  0.00    +0.000 HD
BRANCH  10  12
ATOM     12  S   UNL     1       6.918   4.995  16.290  0.00  0.00    +0.000 S 
ATOM     13  O   UNL     1       6.894   6.427  16.500  0.00  0.00    +0.000 OA
ATOM     14  O   UNL     1       7.951   4.184  16.892  0.00  0.00    +0.000 OA
BRANCH  12  15
ATOM     15  C   UNL     1       6.935   4.718  14.531  0.00  0.00    +0.000 A 
ATOM     16  C   UNL     1       7.838   5.424  13.729  0.00  0.00    +0.000 A 
ATOM     17  C   UNL     1       7.870   5.182  12.355  0.00  0.00    +0.000 A 
ATOM     18  C   UNL     1       7.017   4.232  11.789  0.00  0.00    +0.000 A 
ATOM     19  C   UNL     1       6.138   3.508  12.597  0.00  0.00    +0.000 A 
ATOM     20  C   UNL     1       6.101   3.745  13.971  0.00  0.00    +0.000 A 
ENDBRANCH  12  15
ENDBRANCH  10  12
ENDBRANCH   2   8
BRANCH   6  21
ATOM     21  C   UNL     1       1.124   5.827  20.465  0.00  0.00    +0.000 C 
BRANCH  21  22
ATOM     22  C   UNL     1       1.325   7.045  21.366  0.00  0.00    +0.000 C 
BRANCH  22  23
ATOM     23  C   UNL     1       1.069   8.369  20.657  0.00  0.00    +0.000 A 
ATOM     24  C   UNL     1       1.576   8.572  19.358  0.00  0.00    +0.000 A 
ATOM     25  C   UNL     1       1.354   9.778  18.679  0.00  0.00    +0.000 A 
ATOM     26  C   UNL     1       0.620  10.793  19.286  0.00  0.00    +0.000 A 
ATOM     27 CL   UNL     1       0.349  12.275  18.453  0.00  0.00    +0.000 Cl
ATOM     28  C   UNL     1       0.110  10.618  20.568  0.00  0.00    +0.000 A 
ATOM     29  C   UNL     1       0.338   9.417  21.250  0.00  0.00    +0.000 A 
ATOM     30 CL   UNL     1      -0.310   9.284  22.847  0.00  0.00    +0.000 Cl
ENDBRANCH  22  23
ENDBRANCH  21  22
ENDBRANCH   6  21
TORSDOF 6
ENDMDL
MODEL 4
REMARK VINA RESULT:      -7.6      1.029      1.031
REMARK  Name = 
REMARK  7 active torsions:
REMARK  status: ('A' for Active; 'I' for Inactive)
REMARK    1  A    between atoms: C_1  and  C_2
REMARK    2  A    between atoms: C_2  and  C_3
REMARK    3  A    between atoms: N_5  and  S_6
REMARK    4  A    between atoms: S_6  and  C_9
REMARK    5  A    between atoms: C_18  and  C_20
REMARK    6  A    between atoms: C_20  and  C_21
REMARK    7  A    between atoms: C_21  and  C_22
REMARK                            x       y       z     vdW  Elec       q    Type
REMARK                         _______ _______ _______ _____ _____    ______ ____
ROOT
ATOM      1  C   UNL     1       7.164   5.200  16.106  0.00  0.00    +0.000 C 
ATOM      2  C   UNL     1       6.768   5.456  17.557  0.00  0.00    +0.000 C 
ATOM      3  C   UNL     1       7.741   4.669  18.497  0.00  0.00    +0.000 C 
ATOM      4  C   UNL     1       7.932   5.946  19.304  0.00  0.00    +0.000 C 
ATOM      5  N   UNL     1       7.369   6.654  18.170  0.00  0.00    +0.000 N 
ATOM      6  C   UNL     1       7.524   7.948  17.756  0.00  0.00    +0.000 C 
ATOM      7  O   UNL     1       6.954   8.383  16.760  0.00  0.00    +0.000 OA
ENDROOT
BRANCH   2   8
ATOM      8  C   UNL     1       5.241   5.171  17.790  0.00  0.00    +0.000 C 
ATOM      9  O   UNL     1       4.487   4.937  16.842  0.00  0.00    +0.000 OA
ATOM     10  N   UNL     1       4.766   5.216  19.105  0.00  0.00    +0.000 N 
ATOM     11  H   UNL     1       5.357   5.477  19.900  0.00  0.00    +0.000 HD
BRANCH  10  12
ATOM     12  S   UNL     1       3.132   5.028  19.461  0.00  0.00    +0.000 S 
ATOM     13  O   UNL     1       2.552   4.237  18.396  0.00  0.00    +0.000 OA
ATOM     14  O   UNL     1       2.983   4.621  20.839  0.00  0.00    +0.000 OA
BRANCH  12  15
ATOM     15  C   UNL     1       2.506   6.687  19.290  0.00  0.00    +0.000 A 
ATOM     16  C   UNL     1       2.592   7.332  18.053  0.00  0.00    +0.000 A 
ATOM     17  C   UNL     1       2.073   8.621  17.913  0.00  0.00    +0.000 A 
ATOM     18  C   UNL     1       1.460   9.252  18.997  0.00  0.00    +0.000 A 
ATOM     19  C   UNL     1       1.349   8.592  20.222  0.00  0.00    +0.000 A 
ATOM     20  C   UNL     1       1.866   7.305  20.369  0.00  0.00    +0.000 A 
ENDBRANCH  12  15
ENDBRANCH  10  12
ENDBRANCH   2   8
BRANCH   6  21
ATOM     21  C   UNL     1       8.505   8.767  18.600  0.00  0.00    +0.000 C 
BRANCH  21  22
ATOM     22  C   UNL     1       9.028  10.005  17.873  0.00  0.00    +0.000 C 
BRANCH  22  23
ATOM     23  C   UNL     1       9.337  11.168  18.806  0.00  0.00    +0.000 A 
ATOM     24  C   UNL     1      10.118  10.949  19.958  0.00  0.00    +0.000 A 
ATOM     25  C   UNL     1      10.422  12.000  20.833  0.00  0.00    +0.000 A 
ATOM     26  C   UNL     1       9.955  13.284  20.567  0.00  0.00    +0.000 A 
ATOM     27 CL   UNL     1      10.326  14.574  21.644  0.00  0.00    +0.000 Cl
ATOM     28  C   UNL     1       9.181  13.527  19.438  0.00  0.00    +0.000 A 
ATOM     29  C   UNL     1       8.870  12.476  18.567  0.00  0.00    +0.000 A 
ATOM     30 CL   UNL     1       7.886  12.855  17.197  0.00  0.00    +0.000 Cl
ENDBRANCH  22  23
ENDBRANCH  21  22
ENDBRANCH   6  21
TORSDOF 6
ENDMDL
MODEL 5
REMARK VINA RESULT:      -7.6      2.165      2.864
REMARK  Name = 
REMARK  7 active torsions:
REMARK  status: ('A' for Active; 'I' for Inactive)
REMARK    1  A    between atoms: C_1  and  C_2
REMARK    2  A    between atoms: C_2  and  C_3
REMARK    3  A    between atoms: N_5  and  S_6
REMARK    4  A    between atoms: S_6  and  C_9
REMARK    5  A    between atoms: C_18  and  C_20
REMARK    6  A    between atoms: C_20  and  C_21
REMARK    7  A    between atoms: C_21  and  C_22
REMARK                            x       y       z     vdW  Elec       q    Type
REMARK                         _______ _______ _______ _____ _____    ______ ____
ROOT
ATOM      1  C   UNL     1       7.002   4.624  16.601  0.00  0.00    +0.000 C 
ATOM      2  C   UNL     1       6.486   5.236  17.901  0.00  0.00    +0.000 C 
ATOM      3  C   UNL     1       7.244   4.585  19.105  0.00  0.00    +0.000 C 
ATOM      4  C   UNL     1       7.507   5.984  19.646  0.00  0.00    +0.000 C 
ATOM      5  N   UNL     1       7.165   6.474  18.325  0.00  0.00    +0.000 N 
ATOM      6  C   UNL     1       7.527   7.621  17.675  0.00  0.00    +0.000 C 
ATOM      7  O   UNL     1       7.130   7.878  16.542  0.00  0.00    +0.000 OA
ENDROOT
BRANCH   2   8
ATOM      8  C   UNL     1       4.920   5.165  17.981  0.00  0.00    +0.000 C 
ATOM      9  O   UNL     1       4.291   4.299  17.368  0.00  0.00    +0.000 OA
ATOM     10  N   UNL     1       4.265   6.131  18.752  0.00  0.00    +0.000 N 
ATOM     11  H   UNL     1       4.760   6.902  19.213  0.00  0.00    +0.000 HD
BRANCH  10  12
ATOM     12  S   UNL     1       2.586   6.214  18.828  0.00  0.00    +0.000 S 
ATOM     13  O   UNL     1       2.254   7.346  19.668  0.00  0.00    +0.000 OA
ATOM     14  O   UNL     1       2.038   6.105  17.496  0.00  0.00    +0.000 OA
BRANCH  12  15
ATOM     15  C   UNL     1       2.167   4.740  19.735  0.00  0.00    +0.000 A 
ATOM     16  C   UNL     1       2.544   4.624  21.077  0.00  0.00    +0.000 A 
ATOM     17  C   UNL     1       2.187   3.481  21.794  0.00  0.00    +0.000 A 
ATOM     18  C   UNL     1       1.446   2.470  21.179  0.00  0.00    +0.000 A 
ATOM     19  C   UNL     1       1.047   2.602  19.848  0.00  0.00    +0.000 A 
ATOM     20  C   UNL     1       1.400   3.742  19.126  0.00  0.00    +0.000 A 
ENDBRANCH  12  15
ENDBRANCH  10  12
ENDBRANCH   2   8
BRANCH   6  21
ATOM     21  C   UNL     1       8.507   8.505  18.453  0.00  0.00    +0.000 C 
BRANCH  21  22
ATOM     22  C   UNL     1       8.778   9.843  17.765  0.00  0.00    +0.000 C 
BRANCH  22  23
ATOM     23  C   UNL     1       9.116  10.964  18.739  0.00  0.00    +0.000 A 
ATOM     24  C   UNL     1       9.864  10.677  19.898  0.00  0.00    +0.000 A 
ATOM     25  C   UNL     1      10.195  11.689  20.810  0.00  0.00    +0.000 A 
ATOM     26  C   UNL     1       9.787  12.999  20.574  0.00  0.00    +0.000 A 
ATOM     27 CL   UNL     1      10.191  14.240  21.696  0.00  0.00    +0.000 Cl
ATOM     28  C   UNL     1       9.048  13.308  19.438  0.00  0.00    +0.000 A 
ATOM     29  C   UNL     1       8.709  12.296  18.530  0.00  0.00    +0.000 A 
ATOM     30 CL   UNL     1       7.770  12.757  17.154  0.00  0.00    +0.000 Cl
ENDBRANCH  22  23
ENDBRANCH  21  22
ENDBRANCH   6  21
TORSDOF 6
ENDMDL
MODEL 6
REMARK VINA RESULT:      -7.5      2.526      3.258
REMARK  Name = 
REMARK  7 active torsions:
REMARK  status: ('A' for Active; 'I' for Inactive)
REMARK    1  A    between atoms: C_1  and  C_2
REMARK    2  A    between atoms: C_2  and  C_3
REMARK    3  A    between atoms: N_5  and  S_6
REMARK    4  A    between atoms: S_6  and  C_9
REMARK    5  A    between atoms: C_18  and  C_20
REMARK    6  A    between atoms: C_20  and  C_21
REMARK    7  A    between atoms: C_21  and  C_22
REMARK                            x       y       z     vdW  Elec       q    Type
REMARK                         _______ _______ _______ _____ _____    ______ ____
ROOT
ATOM      1  C   UNL     1       6.818   5.579  15.990  0.00  0.00    +0.000 C 
ATOM      2  C   UNL     1       6.550   5.742  17.484  0.00  0.00    +0.000 C 
ATOM      3  C   UNL     1       7.489   4.774  18.277  0.00  0.00    +0.000 C 
ATOM      4  C   UNL     1       7.874   5.945  19.172  0.00  0.00    +0.000 C 
ATOM      5  N   UNL     1       7.320   6.809  18.148  0.00  0.00    +0.000 N 
ATOM      6  C   UNL     1       7.591   8.112  17.833  0.00  0.00    +0.000 C 
ATOM      7  O   UNL     1       7.009   8.694  16.922  0.00  0.00    +0.000 OA
ENDROOT
BRANCH   2   8
ATOM      8  C   UNL     1       5.020   5.600  17.806  0.00  0.00    +0.000 C 
ATOM      9  O   UNL     1       4.471   6.343  18.623  0.00  0.00    +0.000 OA
ATOM     10  N   UNL     1       4.310   4.588  17.150  0.00  0.00    +0.000 N 
ATOM     11  H   UNL     1       4.758   3.914  16.522  0.00  0.00    +0.000 HD
BRANCH  10  12
ATOM     12  S   UNL     1       2.692   4.278  17.493  0.00  0.00    +0.000 S 
ATOM     13  O   UNL     1       2.036   5.560  17.645  0.00  0.00    +0.000 OA
ATOM     14  O   UNL     1       2.180   3.300  16.561  0.00  0.00    +0.000 OA
BRANCH  12  15
ATOM     15  C   UNL     1       2.776   3.532  19.109  0.00  0.00    +0.000 A 
ATOM     16  C   UNL     1       3.869   2.727  19.441  0.00  0.00    +0.000 A 
ATOM     17  C   UNL     1       3.947   2.169  20.719  0.00  0.00    +0.000 A 
ATOM     18  C   UNL     1       2.949   2.427  21.660  0.00  0.00    +0.000 A 
ATOM     19  C   UNL     1       1.874   3.255  21.333  0.00  0.00    +0.000 A 
ATOM     20  C   UNL     1       1.789   3.816  20.059  0.00  0.00    +0.000 A 
ENDBRANCH  12  15
ENDBRANCH  10  12
ENDBRANCH   2   8
BRANCH   6  21
ATOM     21  C   UNL     1       8.711   8.742  18.666  0.00  0.00    +0.000 C 
BRANCH  21  22
ATOM     22  C   UNL     1       9.194  10.078  18.102  0.00  0.00    +0.000 C 
BRANCH  22  23
ATOM     23  C   UNL     1       9.354  11.159  19.163  0.00  0.00    +0.000 A 
ATOM     24  C   UNL     1       9.156  10.837  20.520  0.00  0.00    +0.000 A 
ATOM     25  C   UNL     1       9.301  11.809  21.519  0.00  0.00    +0.000 A 
ATOM     26  C   UNL     1       9.650  13.112  21.177  0.00  0.00    +0.000 A 
ATOM     27 CL   UNL     1       9.825  14.306  22.404  0.00  0.00    +0.000 Cl
ATOM     28  C   UNL     1       9.851  13.456  19.845  0.00  0.00    +0.000 A 
ATOM     29  C   UNL     1       9.698  12.487  18.845  0.00  0.00    +0.000 A 
ATOM     30 CL   UNL     1       9.944  12.998  17.212  0.00  0.00    +0.000 Cl
ENDBRANCH  22  23
ENDBRANCH  21  22
ENDBRANCH   6  21
TORSDOF 6
ENDMDL
MODEL 7
REMARK VINA RESULT:      -7.5      5.466      8.217
REMARK  Name = 
REMARK  7 active torsions:
REMARK  status: ('A' for Active; 'I' for Inactive)
REMARK    1  A    between atoms: C_1  and  C_2
REMARK    2  A    between atoms: C_2  and  C_3
REMARK    3  A    between atoms: N_5  and  S_6
REMARK    4  A    between atoms: S_6  and  C_9
REMARK    5  A    between atoms: C_18  and  C_20
REMARK    6  A    between atoms: C_20  and  C_21
REMARK    7  A    between atoms: C_21  and  C_22
REMARK                            x       y       z     vdW  Elec       q    Type
REMARK                         _______ _______ _______ _____ _____    ______ ____
ROOT
ATOM      1  C   UNL     1       1.955   5.001  17.774  0.00  0.00    +0.000 C 
ATOM      2  C   UNL     1       2.934   6.128  18.090  0.00  0.00    +0.000 C 
ATOM      3  C   UNL     1       2.575   7.374  17.214  0.00  0.00    +0.000 C 
ATOM      4  C   UNL     1       2.638   8.229  18.473  0.00  0.00    +0.000 C 
ATOM      5  N   UNL     1       2.554   6.991  19.223  0.00  0.00    +0.000 N 
ATOM      6  C   UNL     1       2.097   6.740  20.487  0.00  0.00    +0.000 C 
ATOM      7  O   UNL     1       2.108   5.611  20.969  0.00  0.00    +0.000 OA
ENDROOT
BRANCH   2   8
ATOM      8  C   UNL     1       4.422   5.639  17.976  0.00  0.00    +0.000 C 
ATOM      9  O   UNL     1       5.005   5.147  18.946  0.00  0.00    +0.000 OA
ATOM     10  N   UNL     1       5.066   5.802  16.745  0.00  0.00    +0.000 N 
ATOM     11  H   UNL     1       4.627   6.271  15.947  0.00  0.00    +0.000 HD
BRANCH  10  12
ATOM     12  S   UNL     1       6.689   5.408  16.537  0.00  0.00    +0.000 S 
ATOM     13  O   UNL     1       7.438   6.645  16.603  0.00  0.00    +0.000 OA
ATOM     14  O   UNL     1       7.030   4.299  17.397  0.00  0.00    +0.000 OA
BRANCH  12  15
ATOM     15  C   UNL     1       6.737   4.850  14.846  0.00  0.00    +0.000 A 
ATOM     16  C   UNL     1       5.809   3.902  14.406  0.00  0.00    +0.000 A 
ATOM     17  C   UNL     1       5.830   3.489  13.073  0.00  0.00    +0.000 A 
ATOM     18  C   UNL     1       6.760   4.031  12.184  0.00  0.00    +0.000 A 
ATOM     19  C   UNL     1       7.666   4.999  12.621  0.00  0.00    +0.000 A 
ATOM     20  C   UNL     1       7.651   5.416  13.952  0.00  0.00    +0.000 A 
ENDBRANCH  12  15
ENDBRANCH  10  12
ENDBRANCH   2   8
BRANCH   6  21
ATOM     21  C   UNL     1       1.523   7.965  21.205  0.00  0.00    +0.000 C 
BRANCH  21  22
ATOM     22  C   UNL     1       0.036   8.179  20.924  0.00  0.00    +0.000 C 
BRANCH  22  23
ATOM     23  C   UNL     1      -0.338   9.644  20.736  0.00  0.00    +0.000 A 
ATOM     24  C   UNL     1      -0.441  10.174  19.434  0.00  0.00    +0.000 A 
ATOM     25  C   UNL     1      -0.787  11.516  19.229  0.00  0.00    +0.000 A 
ATOM     26  C   UNL     1      -1.039  12.345  20.320  0.00  0.00    +0.000 A 
ATOM     27 CL   UNL     1      -1.462  13.994  20.068  0.00  0.00    +0.000 Cl
ATOM     28  C   UNL     1      -0.943  11.846  21.614  0.00  0.00    +0.000 A 
ATOM     29  C   UNL     1      -0.589  10.507  21.820  0.00  0.00    +0.000 A 
ATOM     30 CL   UNL     1      -0.469   9.969  23.458  0.00  0.00    +0.000 Cl
ENDBRANCH  22  23
ENDBRANCH  21  22
ENDBRANCH   6  21
TORSDOF 6
ENDMDL
MODEL 8
REMARK VINA RESULT:      -7.4      6.112      9.174
REMARK  Name = 
REMARK  7 active torsions:
REMARK  status: ('A' for Active; 'I' for Inactive)
REMARK    1  A    between atoms: C_1  and  C_2
REMARK    2  A    between atoms: C_2  and  C_3
REMARK    3  A    between atoms: N_5  and  S_6
REMARK    4  A    between atoms: S_6  and  C_9
REMARK    5  A    between atoms: C_18  and  C_20
REMARK    6  A    between atoms: C_20  and  C_21
REMARK    7  A    between atoms: C_21  and  C_22
REMARK                            x       y       z     vdW  Elec       q    Type
REMARK                         _______ _______ _______ _____ _____    ______ ____
ROOT
ATOM      1  C   UNL     1       0.328  13.102  18.278  0.00  0.00    +0.000 C 
ATOM      2  C   UNL     1      -0.139  11.891  19.080  0.00  0.00    +0.000 C 
ATOM      3  C   UNL     1      -1.479  11.362  18.469  0.00  0.00    +0.000 C 
ATOM      4  C   UNL     1      -0.883   9.961  18.474  0.00  0.00    +0.000 C 
ATOM      5  N   UNL     1       0.410  10.596  18.639  0.00  0.00    +0.000 N 
ATOM      6  C   UNL     1       1.666  10.167  18.310  0.00  0.00    +0.000 C 
ATOM      7  O   UNL     1       2.663  10.847  18.535  0.00  0.00    +0.000 OA
ENDROOT
BRANCH   2   8
ATOM      8  C   UNL     1      -0.186  12.210  20.617  0.00  0.00    +0.000 C 
ATOM      9  O   UNL     1       0.852  12.361  21.267  0.00  0.00    +0.000 OA
ATOM     10  N   UNL     1      -1.444  12.293  21.224  0.00  0.00    +0.000 N 
ATOM     11  H   UNL     1      -2.316  12.102  20.721  0.00  0.00    +0.000 HD
BRANCH  10  12
ATOM     12  S   UNL     1      -1.612  12.528  22.882  0.00  0.00    +0.000 S 
ATOM     13  O   UNL     1      -1.203  11.299  23.529  0.00  0.00    +0.000 OA
ATOM     14  O   UNL     1      -1.009  13.787  23.254  0.00  0.00    +0.000 OA
BRANCH  12  15
ATOM     15  C   UNL     1      -3.377  12.666  23.075  0.00  0.00    +0.000 A 
ATOM     16  C   UNL     1      -4.183  12.849  21.948  0.00  0.00    +0.000 A 
ATOM     17  C   UNL     1      -5.568  12.926  22.099  0.00  0.00    +0.000 A 
ATOM     18  C   UNL     1      -6.144  12.805  23.365  0.00  0.00    +0.000 A 
ATOM     19  C   UNL     1      -5.338  12.592  24.485  0.00  0.00    +0.000 A 
ATOM     20  C   UNL     1      -3.953  12.514  24.341  0.00  0.00    +0.000 A 
ENDBRANCH  12  15
ENDBRANCH  10  12
ENDBRANCH   2   8
BRANCH   6  21
ATOM     21  C   UNL     1       1.703   8.814  17.594  0.00  0.00    +0.000 C 
BRANCH  21  22
ATOM     22  C   UNL     1       2.168   7.673  18.498  0.00  0.00    +0.000 C 
BRANCH  22  23
ATOM     23  C   UNL     1       3.131   6.713  17.811  0.00  0.00    +0.000 A 
ATOM     24  C   UNL     1       4.203   7.226  17.053  0.00  0.00    +0.000 A 
ATOM     25  C   UNL     1       5.108   6.368  16.414  0.00  0.00    +0.000 A 
ATOM     26  C   UNL     1       4.957   4.988  16.527  0.00  0.00    +0.000 A 
ATOM     27 CL   UNL     1       6.067   3.935  15.740  0.00  0.00    +0.000 Cl
ATOM     28  C   UNL     1       3.908   4.457  17.269  0.00  0.00    +0.000 A 
ATOM     29  C   UNL     1       2.998   5.314  17.901  0.00  0.00    +0.000 A 
ATOM     30 CL   UNL     1       1.709   4.577  18.786  0.00  0.00    +0.000 Cl
ENDBRANCH  22  23
ENDBRANCH  21  22
ENDBRANCH   6  21
TORSDOF 6
ENDMDL
MODEL 9
REMARK VINA RESULT:      -7.3      5.965      8.913
REMARK  Name = 
REMARK  7 active torsions:
REMARK  status: ('A' for Active; 'I' for Inactive)
REMARK    1  A    between atoms: C_1  and  C_2
REMARK    2  A    between atoms: C_2  and  C_3
REMARK    3  A    between atoms: N_5  and  S_6
REMARK    4  A    between atoms: S_6  and  C_9
REMARK    5  A    between atoms: C_18  and  C_20
REMARK    6  A    between atoms: C_20  and  C_21
REMARK    7  A    between atoms: C_21  and  C_22
REMARK                            x       y       z     vdW  Elec       q    Type
REMARK                         _______ _______ _______ _____ _____    ______ ____
ROOT
ATOM      1  C   UNL     1      -0.590  11.333  18.421  0.00  0.00    +0.000 C 
ATOM      2  C   UNL     1       0.344  10.900  19.547  0.00  0.00    +0.000 C 
ATOM      3  C   UNL     1      -0.490  10.151  20.640  0.00  0.00    +0.000 C 
ATOM      4  C   UNL     1       0.549   9.037  20.614  0.00  0.00    +0.000 C 
ATOM      5  N   UNL     1       0.999   9.594  19.353  0.00  0.00    +0.000 N 
ATOM      6  C   UNL     1       1.646   9.011  18.298  0.00  0.00    +0.000 C 
ATOM      7  O   UNL     1       1.961   9.649  17.298  0.00  0.00    +0.000 OA
ENDROOT
BRANCH   2   8
ATOM      8  C   UNL     1       1.201  12.106  20.072  0.00  0.00    +0.000 C 
ATOM      9  O   UNL     1       1.922  11.989  21.066  0.00  0.00    +0.000 OA
ATOM     10  N   UNL     1       1.099  13.321  19.386  0.00  0.00    +0.000 N 
ATOM     11  H   UNL     1       0.455  13.463  18.602  0.00  0.00    +0.000 HD
BRANCH  10  12
ATOM     12  S   UNL     1       1.891  14.707  19.919  0.00  0.00    +0.000 S 
ATOM     13  O   UNL     1       1.425  14.973  21.263  0.00  0.00    +0.000 OA
ATOM     14  O   UNL     1       3.305  14.590  19.644  0.00  0.00    +0.000 OA
BRANCH  12  15
ATOM     15  C   UNL     1       1.212  15.970  18.863  0.00  0.00    +0.000 A 
ATOM     16  C   UNL     1      -0.171  16.175  18.833  0.00  0.00    +0.000 A 
ATOM     17  C   UNL     1      -0.698  17.186  18.028  0.00  0.00    +0.000 A 
ATOM     18  C   UNL     1       0.152  17.996  17.272  0.00  0.00    +0.000 A 
ATOM     19  C   UNL     1       1.534  17.808  17.328  0.00  0.00    +0.000 A 
ATOM     20  C   UNL     1       2.067  16.799  18.130  0.00  0.00    +0.000 A 
ENDBRANCH  12  15
ENDBRANCH  10  12
ENDBRANCH   2   8
BRANCH   6  21
ATOM     21  C   UNL     1       1.880   7.505  18.455  0.00  0.00    +0.000 C 
BRANCH  21  22
ATOM     22  C   UNL     1       3.333   7.158  18.776  0.00  0.00    +0.000 C 
BRANCH  22  23
ATOM     23  C   UNL     1       3.995   6.290  17.714  0.00  0.00    +0.000 A 
ATOM     24  C   UNL     1       4.765   6.896  16.701  0.00  0.00    +0.000 A 
ATOM     25  C   UNL     1       5.390   6.124  15.713  0.00  0.00    +0.000 A 
ATOM     26  C   UNL     1       5.258   4.738  15.725  0.00  0.00    +0.000 A 
ATOM     27 CL   UNL     1       6.023   3.790  14.509  0.00  0.00    +0.000 Cl
ATOM     28  C   UNL     1       4.503   4.116  16.713  0.00  0.00    +0.000 A 
ATOM     29  C   UNL     1       3.871   4.887  17.696  0.00  0.00    +0.000 A 
ATOM     30 CL   UNL     1       2.933   4.042  18.876  0.00  0.00    +0.000 Cl
ENDBRANCH  22  23
ENDBRANCH  21  22
ENDBRANCH   6  21
TORSDOF 6
ENDMDL
