MODEL 1
REMARK VINA RESULT:      -7.7      0.000      0.000
REMARK  Name = 
REMARK  1 active torsions:
REMARK  status: ('A' for Active; 'I' for Inactive)
REMARK    1  A    between atoms: C_11  and  C_12
REMARK                            x       y       z     vdW  Elec       q    Type
REMARK                         _______ _______ _______ _____ _____    ______ ____
ROOT
ATOM      1  O   UNL     1       2.528   6.819  19.113  0.00  0.00    +0.000 OA
ATOM      2  C   UNL     1       2.820   5.781  18.545  0.00  0.00    +0.000 C 
ATOM      3  C   UNL     1       2.175   4.499  18.829  0.00  0.00    +0.000 A 
ATOM      4  C   UNL     1       1.175   4.223  19.743  0.00  0.00    +0.000 A 
ATOM      5  C   UNL     1       0.730   2.901  19.833  0.00  0.00    +0.000 A 
ATOM      6  C   UNL     1       1.287   1.895  19.021  0.00  0.00    +0.000 A 
ATOM      7  C   UNL     1       2.300   2.194  18.105  0.00  0.00    +0.000 A 
ATOM      8  C   UNL     1       2.726   3.507  18.029  0.00  0.00    +0.000 A 
ATOM      9  C   UNL     1       3.764   4.079  17.171  0.00  0.00    +0.000 C 
ATOM     10  O   UNL     1       4.410   3.424  16.374  0.00  0.00    +0.000 OA
ATOM     11  C   UNL     1       3.855   5.571  17.451  0.00  0.00    +0.000 C 
ENDROOT
BRANCH  11  12
ATOM     12  C   UNL     1       5.244   6.028  17.838  0.00  0.00    +0.000 A 
ATOM     13  C   UNL     1       5.848   7.089  17.143  0.00  0.00    +0.000 A 
ATOM     14  C   UNL     1       7.128   7.527  17.489  0.00  0.00    +0.000 A 
ATOM     15  C   UNL     1       7.808   6.906  18.527  0.00  0.00    +0.000 A 
ATOM     16  F   UNL     1       9.036   7.326  18.859  0.00  0.00    +0.000 F 
ATOM     17  C   UNL     1       7.234   5.853  19.227  0.00  0.00    +0.000 A 
ATOM     18  C   UNL     1       5.954   5.414  18.885  0.00  0.00    +0.000 A 
ENDBRANCH  11  12
TORSDOF 1
ENDMDL
MODEL 2
REMARK VINA RESULT:      -7.6      0.210      1.158
REMARK  Name = 
REMARK  1 active torsions:
REMARK  status: ('A' for Active; 'I' for Inactive)
REMARK    1  A    between atoms: C_11  and  C_12
REMARK                            x       y       z     vdW  Elec       q    Type
REMARK                         _______ _______ _______ _____ _____    ______ ____
ROOT
ATOM      1  O   UNL     1       2.472   6.807  19.358  0.00  0.00    +0.000 OA
ATOM      2  C   UNL     1       2.709   5.790  18.731  0.00  0.00    +0.000 C 
ATOM      3  C   UNL     1       2.055   4.509  18.997  0.00  0.00    +0.000 A 
ATOM      4  C   UNL     1       1.101   4.213  19.954  0.00  0.00    +0.000 A 
ATOM      5  C   UNL     1       0.633   2.896  20.013  0.00  0.00    +0.000 A 
ATOM      6  C   UNL     1       1.123   1.917  19.128  0.00  0.00    +0.000 A 
ATOM      7  C   UNL     1       2.090   2.235  18.170  0.00  0.00    +0.000 A 
ATOM      8  C   UNL     1       2.538   3.542  18.126  0.00  0.00    +0.000 A 
ATOM      9  C   UNL     1       3.539   4.131  17.236  0.00  0.00    +0.000 C 
ATOM     10  O   UNL     1       4.126   3.500  16.376  0.00  0.00    +0.000 OA
ATOM     11  C   UNL     1       3.677   5.608  17.573  0.00  0.00    +0.000 C 
ENDROOT
BRANCH  11  12
ATOM     12  C   UNL     1       5.095   6.021  17.901  0.00  0.00    +0.000 A 
ATOM     13  C   UNL     1       5.771   5.409  18.970  0.00  0.00    +0.000 A 
ATOM     14  C   UNL     1       7.081   5.775  19.285  0.00  0.00    +0.000 A 
ATOM     15  C   UNL     1       7.718   6.754  18.535  0.00  0.00    +0.000 A 
ATOM     16  F   UNL     1       8.975   7.105  18.837  0.00  0.00    +0.000 F 
ATOM     17  C   UNL     1       7.071   7.376  17.475  0.00  0.00    +0.000 A 
ATOM     18  C   UNL     1       5.762   7.011  17.157  0.00  0.00    +0.000 A 
ENDBRANCH  11  12
TORSDOF 1
ENDMDL
MODEL 3
REMARK VINA RESULT:      -7.4      2.497      3.447
REMARK  Name = 
REMARK  1 active torsions:
REMARK  status: ('A' for Active; 'I' for Inactive)
REMARK    1  A    between atoms: C_11  and  C_12
REMARK                            x       y       z     vdW  Elec       q    Type
REMARK                         _______ _______ _______ _____ _____    ______ ____
ROOT
ATOM      1  O   UNL     1       5.290   2.298  19.517  0.00  0.00    +0.000 OA
ATOM      2  C   UNL     1       4.681   3.350  19.445  0.00  0.00    +0.000 C 
ATOM      3  C   UNL     1       3.303   3.517  19.908  0.00  0.00    +0.000 A 
ATOM      4  C   UNL     1       2.468   2.575  20.480  0.00  0.00    +0.000 A 
ATOM      5  C   UNL     1       1.179   2.985  20.832  0.00  0.00    +0.000 A 
ATOM      6  C   UNL     1       0.756   4.309  20.607  0.00  0.00    +0.000 A 
ATOM      7  C   UNL     1       1.615   5.246  20.025  0.00  0.00    +0.000 A 
ATOM      8  C   UNL     1       2.886   4.822  19.685  0.00  0.00    +0.000 A 
ATOM      9  C   UNL     1       3.965   5.590  19.062  0.00  0.00    +0.000 C 
ATOM     10  O   UNL     1       3.862   6.764  18.756  0.00  0.00    +0.000 OA
ATOM     11  C   UNL     1       5.173   4.682  18.900  0.00  0.00    +0.000 C 
ENDROOT
BRANCH  11  12
ATOM     12  C   UNL     1       5.680   4.601  17.477  0.00  0.00    +0.000 A 
ATOM     13  C   UNL     1       4.801   4.238  16.443  0.00  0.00    +0.000 A 
ATOM     14  C   UNL     1       5.250   4.162  15.123  0.00  0.00    +0.000 A 
ATOM     15  C   UNL     1       6.576   4.446  14.832  0.00  0.00    +0.000 A 
ATOM     16  F   UNL     1       7.007   4.374  13.566  0.00  0.00    +0.000 F 
ATOM     17  C   UNL     1       7.466   4.805  15.837  0.00  0.00    +0.000 A 
ATOM     18  C   UNL     1       7.020   4.883  17.157  0.00  0.00    +0.000 A 
ENDBRANCH  11  12
TORSDOF 1
ENDMDL
MODEL 4
REMARK VINA RESULT:      -7.4      2.505      3.466
REMARK  Name = 
REMARK  1 active torsions:
REMARK  status: ('A' for Active; 'I' for Inactive)
REMARK    1  A    between atoms: C_11  and  C_12
REMARK                            x       y       z     vdW  Elec       q    Type
REMARK                         _______ _______ _______ _____ _____    ______ ____
ROOT
ATOM      1  O   UNL     1       5.288   2.270  19.550  0.00  0.00    +0.000 OA
ATOM      2  C   UNL     1       4.662   3.312  19.467  0.00  0.00    +0.000 C 
ATOM      3  C   UNL     1       3.286   3.463  19.939  0.00  0.00    +0.000 A 
ATOM      4  C   UNL     1       2.470   2.516  20.530  0.00  0.00    +0.000 A 
ATOM      5  C   UNL     1       1.177   2.910  20.887  0.00  0.00    +0.000 A 
ATOM      6  C   UNL     1       0.731   4.224  20.648  0.00  0.00    +0.000 A 
ATOM      7  C   UNL     1       1.571   5.166  20.046  0.00  0.00    +0.000 A 
ATOM      8  C   UNL     1       2.846   4.758  19.702  0.00  0.00    +0.000 A 
ATOM      9  C   UNL     1       3.908   5.534  19.060  0.00  0.00    +0.000 C 
ATOM     10  O   UNL     1       3.784   6.702  18.739  0.00  0.00    +0.000 OA
ATOM     11  C   UNL     1       5.129   4.643  18.901  0.00  0.00    +0.000 C 
ENDROOT
BRANCH  11  12
ATOM     12  C   UNL     1       5.626   4.551  17.475  0.00  0.00    +0.000 A 
ATOM     13  C   UNL     1       6.978   4.808  17.190  0.00  0.00    +0.000 A 
ATOM     14  C   UNL     1       7.456   4.725  15.880  0.00  0.00    +0.000 A 
ATOM     15  C   UNL     1       6.585   4.388  14.853  0.00  0.00    +0.000 A 
ATOM     16  F   UNL     1       7.044   4.308  13.597  0.00  0.00    +0.000 F 
ATOM     17  C   UNL     1       5.244   4.133  15.109  0.00  0.00    +0.000 A 
ATOM     18  C   UNL     1       4.764   4.214  16.417  0.00  0.00    +0.000 A 
ENDBRANCH  11  12
TORSDOF 1
ENDMDL
MODEL 5
REMARK VINA RESULT:      -7.4      2.971      5.080
REMARK  Name = 
REMARK  1 active torsions:
REMARK  status: ('A' for Active; 'I' for Inactive)
REMARK    1  A    between atoms: C_11  and  C_12
REMARK                            x       y       z     vdW  Elec       q    Type
REMARK                         _______ _______ _______ _____ _____    ______ ____
ROOT
ATOM      1  O   UNL     1       6.296   4.749  19.389  0.00  0.00    +0.000 OA
ATOM      2  C   UNL     1       5.556   4.454  18.468  0.00  0.00    +0.000 C 
ATOM      3  C   UNL     1       5.969   4.475  17.065  0.00  0.00    +0.000 A 
ATOM      4  C   UNL     1       7.200   4.816  16.535  0.00  0.00    +0.000 A 
ATOM      5  C   UNL     1       7.342   4.764  15.145  0.00  0.00    +0.000 A 
ATOM      6  C   UNL     1       6.264   4.380  14.324  0.00  0.00    +0.000 A 
ATOM      7  C   UNL     1       5.026   4.042  14.879  0.00  0.00    +0.000 A 
ATOM      8  C   UNL     1       4.906   4.097  16.255  0.00  0.00    +0.000 A 
ATOM      9  C   UNL     1       3.733   3.805  17.079  0.00  0.00    +0.000 C 
ATOM     10  O   UNL     1       2.661   3.454  16.618  0.00  0.00    +0.000 OA
ATOM     11  C   UNL     1       4.106   4.002  18.540  0.00  0.00    +0.000 C 
ENDROOT
BRANCH  11  12
ATOM     12  C   UNL     1       3.205   4.976  19.266  0.00  0.00    +0.000 A 
ATOM     13  C   UNL     1       3.176   6.325  18.873  0.00  0.00    +0.000 A 
ATOM     14  C   UNL     1       2.348   7.237  19.530  0.00  0.00    +0.000 A 
ATOM     15  C   UNL     1       1.549   6.807  20.580  0.00  0.00    +0.000 A 
ATOM     16  F   UNL     1       0.755   7.682  21.209  0.00  0.00    +0.000 F 
ATOM     17  C   UNL     1       1.562   5.479  20.988  0.00  0.00    +0.000 A 
ATOM     18  C   UNL     1       2.388   4.564  20.333  0.00  0.00    +0.000 A 
ENDBRANCH  11  12
TORSDOF 1
ENDMDL
MODEL 6
REMARK VINA RESULT:      -7.3      2.426      3.490
REMARK  Name = 
REMARK  1 active torsions:
REMARK  status: ('A' for Active; 'I' for Inactive)
REMARK    1  A    between atoms: C_11  and  C_12
REMARK                            x       y       z     vdW  Elec       q    Type
REMARK                         _______ _______ _______ _____ _____    ______ ____
ROOT
ATOM      1  O   UNL     1       4.060   1.490  17.862  0.00  0.00    +0.000 OA
ATOM      2  C   UNL     1       4.002   2.581  18.399  0.00  0.00    +0.000 C 
ATOM      3  C   UNL     1       2.811   3.077  19.089  0.00  0.00    +0.000 A 
ATOM      4  C   UNL     1       1.590   2.449  19.257  0.00  0.00    +0.000 A 
ATOM      5  C   UNL     1       0.598   3.144  19.955  0.00  0.00    +0.000 A 
ATOM      6  C   UNL     1       0.842   4.434  20.463  0.00  0.00    +0.000 A 
ATOM      7  C   UNL     1       2.082   5.053  20.281  0.00  0.00    +0.000 A 
ATOM      8  C   UNL     1       3.051   4.349  19.590  0.00  0.00    +0.000 A 
ATOM      9  C   UNL     1       4.415   4.765  19.258  0.00  0.00    +0.000 C 
ATOM     10  O   UNL     1       4.882   5.843  19.575  0.00  0.00    +0.000 OA
ATOM     11  C   UNL     1       5.092   3.637  18.495  0.00  0.00    +0.000 C 
ENDROOT
BRANCH  11  12
ATOM     12  C   UNL     1       5.641   4.062  17.151  0.00  0.00    +0.000 A 
ATOM     13  C   UNL     1       6.987   4.451  17.039  0.00  0.00    +0.000 A 
ATOM     14  C   UNL     1       7.512   4.843  15.806  0.00  0.00    +0.000 A 
ATOM     15  C   UNL     1       6.695   4.851  14.684  0.00  0.00    +0.000 A 
ATOM     16  F   UNL     1       7.199   5.227  13.502  0.00  0.00    +0.000 F 
ATOM     17  C   UNL     1       5.361   4.474  14.770  0.00  0.00    +0.000 A 
ATOM     18  C   UNL     1       4.833   4.080  16.001  0.00  0.00    +0.000 A 
ENDBRANCH  11  12
TORSDOF 1
ENDMDL
MODEL 7
REMARK VINA RESULT:      -7.3      2.975      5.195
REMARK  Name = 
REMARK  1 active torsions:
REMARK  status: ('A' for Active; 'I' for Inactive)
REMARK    1  A    between atoms: C_11  and  C_12
REMARK                            x       y       z     vdW  Elec       q    Type
REMARK                         _______ _______ _______ _____ _____    ______ ____
ROOT
ATOM      1  O   UNL     1       6.282   4.846  19.399  0.00  0.00    +0.000 OA
ATOM      2  C   UNL     1       5.542   4.521  18.488  0.00  0.00    +0.000 C 
ATOM      3  C   UNL     1       5.952   4.506  17.084  0.00  0.00    +0.000 A 
ATOM      4  C   UNL     1       7.181   4.839  16.543  0.00  0.00    +0.000 A 
ATOM      5  C   UNL     1       7.320   4.750  15.155  0.00  0.00    +0.000 A 
ATOM      6  C   UNL     1       6.244   4.337  14.347  0.00  0.00    +0.000 A 
ATOM      7  C   UNL     1       5.009   4.007  14.912  0.00  0.00    +0.000 A 
ATOM      8  C   UNL     1       4.891   4.100  16.287  0.00  0.00    +0.000 A 
ATOM      9  C   UNL     1       3.720   3.824  17.120  0.00  0.00    +0.000 C 
ATOM     10  O   UNL     1       2.650   3.455  16.672  0.00  0.00    +0.000 OA
ATOM     11  C   UNL     1       4.095   4.063  18.574  0.00  0.00    +0.000 C 
ENDROOT
BRANCH  11  12
ATOM     12  C   UNL     1       3.190   5.052  19.275  0.00  0.00    +0.000 A 
ATOM     13  C   UNL     1       2.365   4.618  20.327  0.00  0.00    +0.000 A 
ATOM     14  C   UNL     1       1.525   5.517  20.988  0.00  0.00    +0.000 A 
ATOM     15  C   UNL     1       1.505   6.849  20.600  0.00  0.00    +0.000 A 
ATOM     16  F   UNL     1       0.700   7.711  21.234  0.00  0.00    +0.000 F 
ATOM     17  C   UNL     1       2.309   7.302  19.562  0.00  0.00    +0.000 A 
ATOM     18  C   UNL     1       3.150   6.406  18.900  0.00  0.00    +0.000 A 
ENDBRANCH  11  12
TORSDOF 1
ENDMDL
MODEL 8
REMARK VINA RESULT:      -7.3      2.424      3.445
REMARK  Name = 
REMARK  1 active torsions:
REMARK  status: ('A' for Active; 'I' for Inactive)
REMARK    1  A    between atoms: C_11  and  C_12
REMARK                            x       y       z     vdW  Elec       q    Type
REMARK                         _______ _______ _______ _____ _____    ______ ____
ROOT
ATOM      1  O   UNL     1       4.056   1.499  17.909  0.00  0.00    +0.000 OA
ATOM      2  C   UNL     1       3.991   2.595  18.437  0.00  0.00    +0.000 C 
ATOM      3  C   UNL     1       2.791   3.097  19.105  0.00  0.00    +0.000 A 
ATOM      4  C   UNL     1       1.567   2.472  19.259  0.00  0.00    +0.000 A 
ATOM      5  C   UNL     1       0.565   3.172  19.937  0.00  0.00    +0.000 A 
ATOM      6  C   UNL     1       0.803   4.466  20.439  0.00  0.00    +0.000 A 
ATOM      7  C   UNL     1       2.046   5.082  20.271  0.00  0.00    +0.000 A 
ATOM      8  C   UNL     1       3.025   4.373  19.599  0.00  0.00    +0.000 A 
ATOM      9  C   UNL     1       4.393   4.785  19.284  0.00  0.00    +0.000 C 
ATOM     10  O   UNL     1       4.857   5.866  19.600  0.00  0.00    +0.000 OA
ATOM     11  C   UNL     1       5.081   3.651  18.541  0.00  0.00    +0.000 C 
ENDROOT
BRANCH  11  12
ATOM     12  C   UNL     1       5.650   4.065  17.202  0.00  0.00    +0.000 A 
ATOM     13  C   UNL     1       4.825   4.067  16.064  0.00  0.00    +0.000 A 
ATOM     14  C   UNL     1       5.332   4.450  14.821  0.00  0.00    +0.000 A 
ATOM     15  C   UNL     1       6.662   4.830  14.710  0.00  0.00    +0.000 A 
ATOM     16  F   UNL     1       7.148   5.197  13.517  0.00  0.00    +0.000 F 
ATOM     17  C   UNL     1       7.498   4.834  15.819  0.00  0.00    +0.000 A 
ATOM     18  C   UNL     1       6.994   4.452  17.064  0.00  0.00    +0.000 A 
ENDBRANCH  11  12
TORSDOF 1
ENDMDL
MODEL 9
REMARK VINA RESULT:      -7.3      2.540      3.133
REMARK  Name = 
REMARK  1 active torsions:
REMARK  status: ('A' for Active; 'I' for Inactive)
REMARK    1  A    between atoms: C_11  and  C_12
REMARK                            x       y       z     vdW  Elec       q    Type
REMARK                         _______ _______ _______ _____ _____    ______ ____
ROOT
ATOM      1  O   UNL     1       4.759   5.680  19.923  0.00  0.00    +0.000 OA
ATOM      2  C   UNL     1       3.761   5.210  19.404  0.00  0.00    +0.000 C 
ATOM      3  C   UNL     1       2.847   4.301  20.095  0.00  0.00    +0.000 A 
ATOM      4  C   UNL     1       2.926   3.820  21.389  0.00  0.00    +0.000 A 
ATOM      5  C   UNL     1       1.922   2.947  21.817  0.00  0.00    +0.000 A 
ATOM      6  C   UNL     1       0.874   2.576  20.953  0.00  0.00    +0.000 A 
ATOM      7  C   UNL     1       0.812   3.071  19.647  0.00  0.00    +0.000 A 
ATOM      8  C   UNL     1       1.814   3.934  19.244  0.00  0.00    +0.000 A 
ATOM      9  C   UNL     1       1.989   4.581  17.943  0.00  0.00    +0.000 C 
ATOM     10  O   UNL     1       1.223   4.426  17.009  0.00  0.00    +0.000 OA
ATOM     11  C   UNL     1       3.238   5.446  17.997  0.00  0.00    +0.000 C 
ENDROOT
BRANCH  11  12
ATOM     12  C   UNL     1       4.244   5.120  16.916  0.00  0.00    +0.000 A 
ATOM     13  C   UNL     1       4.605   3.782  16.680  0.00  0.00    +0.000 A 
ATOM     14  C   UNL     1       5.530   3.461  15.684  0.00  0.00    +0.000 A 
ATOM     15  C   UNL     1       6.097   4.474  14.923  0.00  0.00    +0.000 A 
ATOM     16  F   UNL     1       6.984   4.166  13.968  0.00  0.00    +0.000 F 
ATOM     17  C   UNL     1       5.759   5.803  15.139  0.00  0.00    +0.000 A 
ATOM     18  C   UNL     1       4.834   6.127  16.133  0.00  0.00    +0.000 A 
ENDBRANCH  11  12
TORSDOF 1
ENDMDL
