MODEL 1
REMARK VINA RESULT:      -7.0      0.000      0.000
REMARK  Name = 
REMARK  10 active torsions:
REMARK  status: ('A' for Active; 'I' for Inactive)
REMARK    1  A    between atoms: C_1  and  C_2
REMARK    2  A    between atoms: C_2  and  C_3
REMARK    3  A    between atoms: C_3  and  C_4
REMARK    4  A    between atoms: C_4  and  C_5
REMARK    5  A    between atoms: C_7  and  N_8
REMARK    6  A    between atoms: N_8  and  C_9
REMARK    7  A    between atoms: C_9  and  C_10
REMARK    8  A    between atoms: C_10  and  O_11
REMARK    9  A    between atoms: C_10  and  C_12
REMARK   10  A    between atoms: C_12  and  O_13
REMARK                            x       y       z     vdW  Elec       q    Type
REMARK                         _______ _______ _______ _____ _____    ______ ____
ROOT
ATOM      1  C   UNL     1       7.146   5.957  17.163  0.00  0.00    +0.000 A 
ATOM      2  C   UNL     1       6.135   5.092  17.553  0.00  0.00    +0.000 A 
ATOM      3  C   UNL     1       5.554   4.229  16.621  0.00  0.00    +0.000 A 
ATOM      4  C   UNL     1       6.046   4.261  15.285  0.00  0.00    +0.000 A 
ATOM      5  C   UNL     1       5.569   3.426  14.243  0.00  0.00    +0.000 A 
ATOM      6  C   UNL     1       6.077   3.528  12.946  0.00  0.00    +0.000 A 
ATOM      7  C   UNL     1       7.063   4.463  12.664  0.00  0.00    +0.000 A 
ATOM      8  C   UNL     1       7.541   5.285  13.684  0.00  0.00    +0.000 A 
ATOM      9  C   UNL     1       7.058   5.199  14.983  0.00  0.00    +0.000 A 
ATOM     10  N   UNL     1       7.596   6.019  15.895  0.00  0.00    +0.000 NA
ENDROOT
BRANCH   3  11
ATOM     11  N   UNL     1       4.601   3.245  17.015  0.00  0.00    +0.000 N 
ATOM     12  H   UNL     1       5.119   2.503  17.490  0.00  0.00    +0.000 HD
BRANCH  11  13
ATOM     13  C   UNL     1       3.468   3.714  17.825  0.00  0.00    +0.000 C 
BRANCH  13  14
ATOM     14  C   UNL     1       2.957   2.660  18.816  0.00  0.00    +0.000 C 
BRANCH  14  15
ATOM     15  O   UNL     1       2.920   1.387  18.151  0.00  0.00    +0.000 OA
ATOM     16  H   UNL     1       2.035   1.282  17.757  0.00  0.00    +0.000 HD
ENDBRANCH  14  15
BRANCH  14  17
ATOM     17  C   UNL     1       3.808   2.575  20.088  0.00  0.00    +0.000 C 
BRANCH  17  18
ATOM     18  O   UNL     1       5.101   2.041  19.801  0.00  0.00    +0.000 OA
ATOM     19  H   UNL     1       5.680   2.780  19.545  0.00  0.00    +0.000 HD
ENDBRANCH  17  18
ENDBRANCH  14  17
ENDBRANCH  13  14
ENDBRANCH  11  13
ENDBRANCH   3  11
BRANCH   1  20
ATOM     20  C   UNL     1       7.808   6.846  18.180  0.00  0.00    +0.000 C 
BRANCH  20  21
ATOM     21  C   UNL     1       7.949   8.278  17.672  0.00  0.00    +0.000 C 
BRANCH  21  23
ATOM     22  C   UNL     1       8.881  10.557  18.162  0.00  0.00    +0.000 C 
ATOM     23  C   UNL     1       8.732   9.132  18.664  0.00  0.00    +0.000 C 
ENDBRANCH  21  23
ENDBRANCH  20  21
ENDBRANCH   1  20
TORSDOF 9
ENDMDL
MODEL 2
REMARK VINA RESULT:      -6.8      0.944      1.221
REMARK  Name = 
REMARK  10 active torsions:
REMARK  status: ('A' for Active; 'I' for Inactive)
REMARK    1  A    between atoms: C_1  and  C_2
REMARK    2  A    between atoms: C_2  and  C_3
REMARK    3  A    between atoms: C_3  and  C_4
REMARK    4  A    between atoms: C_4  and  C_5
REMARK    5  A    between atoms: C_7  and  N_8
REMARK    6  A    between atoms: N_8  and  C_9
REMARK    7  A    between atoms: C_9  and  C_10
REMARK    8  A    between atoms: C_10  and  O_11
REMARK    9  A    between atoms: C_10  and  C_12
REMARK   10  A    between atoms: C_12  and  O_13
REMARK                            x       y       z     vdW  Elec       q    Type
REMARK                         _______ _______ _______ _____ _____    ______ ____
ROOT
ATOM      1  C   UNL     1       6.973   6.092  17.050  0.00  0.00    +0.000 A 
ATOM      2  C   UNL     1       5.766   5.496  17.379  0.00  0.00    +0.000 A 
ATOM      3  C   UNL     1       5.103   4.697  16.443  0.00  0.00    +0.000 A 
ATOM      4  C   UNL     1       5.715   4.511  15.172  0.00  0.00    +0.000 A 
ATOM      5  C   UNL     1       5.171   3.709  14.138  0.00  0.00    +0.000 A 
ATOM      6  C   UNL     1       5.811   3.589  12.902  0.00  0.00    +0.000 A 
ATOM      7  C   UNL     1       6.999   4.269  12.674  0.00  0.00    +0.000 A 
ATOM      8  C   UNL     1       7.545   5.057  13.688  0.00  0.00    +0.000 A 
ATOM      9  C   UNL     1       6.932   5.186  14.927  0.00  0.00    +0.000 A 
ATOM     10  N   UNL     1       7.546   5.950  15.840  0.00  0.00    +0.000 NA
ENDROOT
BRANCH   3  11
ATOM     11  N   UNL     1       3.925   3.974  16.790  0.00  0.00    +0.000 N 
ATOM     12  H   UNL     1       4.065   3.010  16.477  0.00  0.00    +0.000 HD
BRANCH  11  13
ATOM     13  C   UNL     1       3.510   4.026  18.199  0.00  0.00    +0.000 C 
BRANCH  13  14
ATOM     14  C   UNL     1       2.032   3.669  18.407  0.00  0.00    +0.000 C 
BRANCH  14  15
ATOM     15  O   UNL     1       1.284   4.135  17.272  0.00  0.00    +0.000 OA
ATOM     16  H   UNL     1       0.351   4.212  17.541  0.00  0.00    +0.000 HD
ENDBRANCH  14  15
BRANCH  14  17
ATOM     17  C   UNL     1       1.806   2.168  18.617  0.00  0.00    +0.000 C 
BRANCH  17  18
ATOM     18  O   UNL     1       2.944   1.417  18.193  0.00  0.00    +0.000 OA
ATOM     19  H   UNL     1       2.658   0.815  17.483  0.00  0.00    +0.000 HD
ENDBRANCH  17  18
ENDBRANCH  14  17
ENDBRANCH  13  14
ENDBRANCH  11  13
ENDBRANCH   3  11
BRANCH   1  20
ATOM     20  C   UNL     1       7.712   6.906  18.077  0.00  0.00    +0.000 C 
BRANCH  20  21
ATOM     21  C   UNL     1       7.821   8.371  17.664  0.00  0.00    +0.000 C 
BRANCH  21  23
ATOM     22  C   UNL     1       9.033  10.524  18.117  0.00  0.00    +0.000 C 
ATOM     23  C   UNL     1       8.667   9.156  18.664  0.00  0.00    +0.000 C 
ENDBRANCH  21  23
ENDBRANCH  20  21
ENDBRANCH   1  20
TORSDOF 9
ENDMDL
MODEL 3
REMARK VINA RESULT:      -6.7      2.547      5.049
REMARK  Name = 
REMARK  10 active torsions:
REMARK  status: ('A' for Active; 'I' for Inactive)
REMARK    1  A    between atoms: C_1  and  C_2
REMARK    2  A    between atoms: C_2  and  C_3
REMARK    3  A    between atoms: C_3  and  C_4
REMARK    4  A    between atoms: C_4  and  C_5
REMARK    5  A    between atoms: C_7  and  N_8
REMARK    6  A    between atoms: N_8  and  C_9
REMARK    7  A    between atoms: C_9  and  C_10
REMARK    8  A    between atoms: C_10  and  O_11
REMARK    9  A    between atoms: C_10  and  C_12
REMARK   10  A    between atoms: C_12  and  O_13
REMARK                            x       y       z     vdW  Elec       q    Type
REMARK                         _______ _______ _______ _____ _____    ______ ____
ROOT
ATOM      1  C   UNL     1       5.835   5.454  16.304  0.00  0.00    +0.000 A 
ATOM      2  C   UNL     1       6.024   4.513  17.304  0.00  0.00    +0.000 A 
ATOM      3  C   UNL     1       5.248   4.559  18.464  0.00  0.00    +0.000 A 
ATOM      4  C   UNL     1       4.263   5.582  18.568  0.00  0.00    +0.000 A 
ATOM      5  C   UNL     1       3.390   5.735  19.674  0.00  0.00    +0.000 A 
ATOM      6  C   UNL     1       2.462   6.778  19.724  0.00  0.00    +0.000 A 
ATOM      7  C   UNL     1       2.393   7.688  18.678  0.00  0.00    +0.000 A 
ATOM      8  C   UNL     1       3.245   7.542  17.584  0.00  0.00    +0.000 A 
ATOM      9  C   UNL     1       4.169   6.510  17.507  0.00  0.00    +0.000 A 
ATOM     10  N   UNL     1       4.929   6.446  16.405  0.00  0.00    +0.000 NA
ENDROOT
BRANCH   3  11
ATOM     11  N   UNL     1       5.333   3.537  19.454  0.00  0.00    +0.000 N 
ATOM     12  H   UNL     1       5.533   4.000  20.343  0.00  0.00    +0.000 HD
BRANCH  11  13
ATOM     13  C   UNL     1       4.182   2.630  19.566  0.00  0.00    +0.000 C 
BRANCH  13  14
ATOM     14  C   UNL     1       3.805   1.965  18.236  0.00  0.00    +0.000 C 
BRANCH  14  15
ATOM     15  O   UNL     1       4.031   0.550  18.352  0.00  0.00    +0.000 OA
ATOM     16  H   UNL     1       4.173   0.197  17.456  0.00  0.00    +0.000 HD
ENDBRANCH  14  15
BRANCH  14  17
ATOM     17  C   UNL     1       2.358   2.243  17.819  0.00  0.00    +0.000 C 
BRANCH  17  18
ATOM     18  O   UNL     1       1.440   1.581  18.691  0.00  0.00    +0.000 OA
ATOM     19  H   UNL     1       1.473   2.027  19.555  0.00  0.00    +0.000 HD
ENDBRANCH  17  18
ENDBRANCH  14  17
ENDBRANCH  13  14
ENDBRANCH  11  13
ENDBRANCH   3  11
BRANCH   1  20
ATOM     20  C   UNL     1       6.632   5.369  15.032  0.00  0.00    +0.000 C 
BRANCH  20  21
ATOM     21  C   UNL     1       6.543   3.982  14.401  0.00  0.00    +0.000 C 
BRANCH  21  23
ATOM     22  C   UNL     1       5.794   3.250  12.118  0.00  0.00    +0.000 C 
ATOM     23  C   UNL     1       5.374   3.904  13.423  0.00  0.00    +0.000 C 
ENDBRANCH  21  23
ENDBRANCH  20  21
ENDBRANCH   1  20
TORSDOF 9
ENDMDL
MODEL 4
REMARK VINA RESULT:      -6.7      3.739      6.256
REMARK  Name = 
REMARK  10 active torsions:
REMARK  status: ('A' for Active; 'I' for Inactive)
REMARK    1  A    between atoms: C_1  and  C_2
REMARK    2  A    between atoms: C_2  and  C_3
REMARK    3  A    between atoms: C_3  and  C_4
REMARK    4  A    between atoms: C_4  and  C_5
REMARK    5  A    between atoms: C_7  and  N_8
REMARK    6  A    between atoms: N_8  and  C_9
REMARK    7  A    between atoms: C_9  and  C_10
REMARK    8  A    between atoms: C_10  and  O_11
REMARK    9  A    between atoms: C_10  and  C_12
REMARK   10  A    between atoms: C_12  and  O_13
REMARK                            x       y       z     vdW  Elec       q    Type
REMARK                         _______ _______ _______ _____ _____    ______ ____
ROOT
ATOM      1  C   UNL     1       2.920   6.682  18.316  0.00  0.00    +0.000 A 
ATOM      2  C   UNL     1       3.825   5.895  17.622  0.00  0.00    +0.000 A 
ATOM      3  C   UNL     1       4.131   4.611  18.081  0.00  0.00    +0.000 A 
ATOM      4  C   UNL     1       3.474   4.149  19.257  0.00  0.00    +0.000 A 
ATOM      5  C   UNL     1       3.668   2.863  19.821  0.00  0.00    +0.000 A 
ATOM      6  C   UNL     1       3.011   2.481  20.994  0.00  0.00    +0.000 A 
ATOM      7  C   UNL     1       2.157   3.374  21.625  0.00  0.00    +0.000 A 
ATOM      8  C   UNL     1       1.957   4.640  21.074  0.00  0.00    +0.000 A 
ATOM      9  C   UNL     1       2.591   5.040  19.906  0.00  0.00    +0.000 A 
ATOM     10  N   UNL     1       2.318   6.268  19.448  0.00  0.00    +0.000 NA
ENDROOT
BRANCH   3  11
ATOM     11  N   UNL     1       4.961   3.733  17.326  0.00  0.00    +0.000 N 
ATOM     12  H   UNL     1       4.377   3.330  16.590  0.00  0.00    +0.000 HD
BRANCH  11  13
ATOM     13  C   UNL     1       6.198   4.306  16.776  0.00  0.00    +0.000 C 
BRANCH  13  14
ATOM     14  C   UNL     1       7.179   4.776  17.858  0.00  0.00    +0.000 C 
BRANCH  14  15
ATOM     15  O   UNL     1       8.387   4.005  17.747  0.00  0.00    +0.000 OA
ATOM     16  H   UNL     1       8.670   4.029  16.815  0.00  0.00    +0.000 HD
ENDBRANCH  14  15
BRANCH  14  17
ATOM     17  C   UNL     1       7.490   6.273  17.771  0.00  0.00    +0.000 C 
BRANCH  17  18
ATOM     18  O   UNL     1       7.567   6.700  16.410  0.00  0.00    +0.000 OA
ATOM     19  H   UNL     1       7.758   5.918  15.862  0.00  0.00    +0.000 HD
ENDBRANCH  17  18
ENDBRANCH  14  17
ENDBRANCH  13  14
ENDBRANCH  11  13
ENDBRANCH   3  11
BRANCH   1  20
ATOM     20  C   UNL     1       2.550   8.042  17.790  0.00  0.00    +0.000 C 
BRANCH  20  21
ATOM     21  C   UNL     1       1.682   8.814  18.780  0.00  0.00    +0.000 C 
BRANCH  21  23
ATOM     22  C   UNL     1       0.622  11.085  18.945  0.00  0.00    +0.000 C 
ATOM     23  C   UNL     1       0.846   9.869  18.062  0.00  0.00    +0.000 C 
ENDBRANCH  21  23
ENDBRANCH  20  21
ENDBRANCH   1  20
TORSDOF 9
ENDMDL
MODEL 5
REMARK VINA RESULT:      -6.7      4.693      6.447
REMARK  Name = 
REMARK  10 active torsions:
REMARK  status: ('A' for Active; 'I' for Inactive)
REMARK    1  A    between atoms: C_1  and  C_2
REMARK    2  A    between atoms: C_2  and  C_3
REMARK    3  A    between atoms: C_3  and  C_4
REMARK    4  A    between atoms: C_4  and  C_5
REMARK    5  A    between atoms: C_7  and  N_8
REMARK    6  A    between atoms: N_8  and  C_9
REMARK    7  A    between atoms: C_9  and  C_10
REMARK    8  A    between atoms: C_10  and  O_11
REMARK    9  A    between atoms: C_10  and  C_12
REMARK   10  A    between atoms: C_12  and  O_13
REMARK                            x       y       z     vdW  Elec       q    Type
REMARK                         _______ _______ _______ _____ _____    ______ ____
ROOT
ATOM      1  C   UNL     1       3.733   6.139  17.607  0.00  0.00    +0.000 A 
ATOM      2  C   UNL     1       3.274   6.886  18.680  0.00  0.00    +0.000 A 
ATOM      3  C   UNL     1       2.399   6.314  19.607  0.00  0.00    +0.000 A 
ATOM      4  C   UNL     1       2.020   4.955  19.416  0.00  0.00    +0.000 A 
ATOM      5  C   UNL     1       1.161   4.240  20.288  0.00  0.00    +0.000 A 
ATOM      6  C   UNL     1       0.808   2.914  20.028  0.00  0.00    +0.000 A 
ATOM      7  C   UNL     1       1.299   2.281  18.895  0.00  0.00    +0.000 A 
ATOM      8  C   UNL     1       2.148   2.975  18.034  0.00  0.00    +0.000 A 
ATOM      9  C   UNL     1       2.521   4.291  18.275  0.00  0.00    +0.000 A 
ATOM     10  N   UNL     1       3.356   4.863  17.398  0.00  0.00    +0.000 NA
ENDROOT
BRANCH   3  11
ATOM     11  N   UNL     1       2.006   7.014  20.785  0.00  0.00    +0.000 N 
ATOM     12  H   UNL     1       2.819   7.035  21.404  0.00  0.00    +0.000 HD
BRANCH  11  13
ATOM     13  C   UNL     1       1.439   8.357  20.595  0.00  0.00    +0.000 C 
BRANCH  13  14
ATOM     14  C   UNL     1       1.023   9.029  21.910  0.00  0.00    +0.000 C 
BRANCH  14  15
ATOM     15  O   UNL     1       1.301  10.436  21.813  0.00  0.00    +0.000 OA
ATOM     16  H   UNL     1       1.517  10.759  22.706  0.00  0.00    +0.000 HD
ENDBRANCH  14  15
BRANCH  14  17
ATOM     17  C   UNL     1      -0.451   8.796  22.257  0.00  0.00    +0.000 C 
BRANCH  17  18
ATOM     18  O   UNL     1      -0.835   9.572  23.394  0.00  0.00    +0.000 OA
ATOM     19  H   UNL     1      -0.827   8.987  24.172  0.00  0.00    +0.000 HD
ENDBRANCH  17  18
ENDBRANCH  14  17
ENDBRANCH  13  14
ENDBRANCH  11  13
ENDBRANCH   3  11
BRANCH   1  20
ATOM     20  C   UNL     1       4.719   6.739  16.642  0.00  0.00    +0.000 C 
BRANCH  20  21
ATOM     21  C   UNL     1       6.040   5.975  16.636  0.00  0.00    +0.000 C 
BRANCH  21  23
ATOM     22  C   UNL     1       7.662   7.638  17.591  0.00  0.00    +0.000 C 
ATOM     23  C   UNL     1       6.892   6.354  17.844  0.00  0.00    +0.000 C 
ENDBRANCH  21  23
ENDBRANCH  20  21
ENDBRANCH   1  20
TORSDOF 9
ENDMDL
MODEL 6
REMARK VINA RESULT:      -6.7      3.838      6.258
REMARK  Name = 
REMARK  10 active torsions:
REMARK  status: ('A' for Active; 'I' for Inactive)
REMARK    1  A    between atoms: C_1  and  C_2
REMARK    2  A    between atoms: C_2  and  C_3
REMARK    3  A    between atoms: C_3  and  C_4
REMARK    4  A    between atoms: C_4  and  C_5
REMARK    5  A    between atoms: C_7  and  N_8
REMARK    6  A    between atoms: N_8  and  C_9
REMARK    7  A    between atoms: C_9  and  C_10
REMARK    8  A    between atoms: C_10  and  O_11
REMARK    9  A    between atoms: C_10  and  C_12
REMARK   10  A    between atoms: C_12  and  O_13
REMARK                            x       y       z     vdW  Elec       q    Type
REMARK                         _______ _______ _______ _____ _____    ______ ____
ROOT
ATOM      1  C   UNL     1       2.637   7.207  18.576  0.00  0.00    +0.000 A 
ATOM      2  C   UNL     1       3.586   6.646  17.736  0.00  0.00    +0.000 A 
ATOM      3  C   UNL     1       4.034   5.341  17.959  0.00  0.00    +0.000 A 
ATOM      4  C   UNL     1       3.475   4.622  19.053  0.00  0.00    +0.000 A 
ATOM      5  C   UNL     1       3.817   3.286  19.382  0.00  0.00    +0.000 A 
ATOM      6  C   UNL     1       3.249   2.646  20.487  0.00  0.00    +0.000 A 
ATOM      7  C   UNL     1       2.338   3.326  21.283  0.00  0.00    +0.000 A 
ATOM      8  C   UNL     1       1.993   4.639  20.963  0.00  0.00    +0.000 A 
ATOM      9  C   UNL     1       2.536   5.294  19.867  0.00  0.00    +0.000 A 
ATOM     10  N   UNL     1       2.125   6.547  19.633  0.00  0.00    +0.000 NA
ENDROOT
BRANCH   3  11
ATOM     11  N   UNL     1       4.915   4.694  17.044  0.00  0.00    +0.000 N 
ATOM     12  H   UNL     1       4.472   4.738  16.124  0.00  0.00    +0.000 HD
BRANCH  11  13
ATOM     13  C   UNL     1       6.299   5.188  17.001  0.00  0.00    +0.000 C 
BRANCH  13  14
ATOM     14  C   UNL     1       7.140   4.734  18.201  0.00  0.00    +0.000 C 
BRANCH  14  15
ATOM     15  O   UNL     1       8.299   4.039  17.710  0.00  0.00    +0.000 OA
ATOM     16  H   UNL     1       8.162   3.087  17.864  0.00  0.00    +0.000 HD
ENDBRANCH  14  15
BRANCH  14  17
ATOM     17  C   UNL     1       7.557   5.896  19.109  0.00  0.00    +0.000 C 
BRANCH  17  18
ATOM     18  O   UNL     1       8.007   5.416  20.377  0.00  0.00    +0.000 OA
ATOM     19  H   UNL     1       8.452   4.562  20.233  0.00  0.00    +0.000 HD
ENDBRANCH  17  18
ENDBRANCH  14  17
ENDBRANCH  13  14
ENDBRANCH  11  13
ENDBRANCH   3  11
BRANCH   1  20
ATOM     20  C   UNL     1       2.115   8.590  18.301  0.00  0.00    +0.000 C 
BRANCH  20  21
ATOM     21  C   UNL     1       1.278   9.119  19.462  0.00  0.00    +0.000 C 
BRANCH  21  23
ATOM     22  C   UNL     1      -0.577  10.273  18.223  0.00  0.00    +0.000 C 
ATOM     23  C   UNL     1       0.643  10.460  19.108  0.00  0.00    +0.000 C 
ENDBRANCH  21  23
ENDBRANCH  20  21
ENDBRANCH   1  20
TORSDOF 9
ENDMDL
MODEL 7
REMARK VINA RESULT:      -6.7      2.628      5.058
REMARK  Name = 
REMARK  10 active torsions:
REMARK  status: ('A' for Active; 'I' for Inactive)
REMARK    1  A    between atoms: C_1  and  C_2
REMARK    2  A    between atoms: C_2  and  C_3
REMARK    3  A    between atoms: C_3  and  C_4
REMARK    4  A    between atoms: C_4  and  C_5
REMARK    5  A    between atoms: C_7  and  N_8
REMARK    6  A    between atoms: N_8  and  C_9
REMARK    7  A    between atoms: C_9  and  C_10
REMARK    8  A    between atoms: C_10  and  O_11
REMARK    9  A    between atoms: C_10  and  C_12
REMARK   10  A    between atoms: C_12  and  O_13
REMARK                            x       y       z     vdW  Elec       q    Type
REMARK                         _______ _______ _______ _____ _____    ______ ____
ROOT
ATOM      1  C   UNL     1       5.683   5.276  16.637  0.00  0.00    +0.000 A 
ATOM      2  C   UNL     1       5.627   4.366  17.680  0.00  0.00    +0.000 A 
ATOM      3  C   UNL     1       4.736   4.568  18.738  0.00  0.00    +0.000 A 
ATOM      4  C   UNL     1       3.894   5.715  18.690  0.00  0.00    +0.000 A 
ATOM      5  C   UNL     1       2.929   6.033  19.678  0.00  0.00    +0.000 A 
ATOM      6  C   UNL     1       2.152   7.191  19.584  0.00  0.00    +0.000 A 
ATOM      7  C   UNL     1       2.327   8.052  18.510  0.00  0.00    +0.000 A 
ATOM      8  C   UNL     1       3.272   7.744  17.531  0.00  0.00    +0.000 A 
ATOM      9  C   UNL     1       4.050   6.597  17.597  0.00  0.00    +0.000 A 
ATOM     10  N   UNL     1       4.915   6.382  16.597  0.00  0.00    +0.000 NA
ENDROOT
BRANCH   3  11
ATOM     11  N   UNL     1       4.567   3.591  19.761  0.00  0.00    +0.000 N 
ATOM     12  H   UNL     1       4.131   4.065  20.555  0.00  0.00    +0.000 HD
BRANCH  11  13
ATOM     13  C   UNL     1       3.835   2.371  19.394  0.00  0.00    +0.000 C 
BRANCH  13  14
ATOM     14  C   UNL     1       2.312   2.535  19.465  0.00  0.00    +0.000 C 
BRANCH  14  15
ATOM     15  O   UNL     1       1.702   1.495  18.683  0.00  0.00    +0.000 OA
ATOM     16  H   UNL     1       0.881   1.853  18.300  0.00  0.00    +0.000 HD
ENDBRANCH  14  15
BRANCH  14  17
ATOM     17  C   UNL     1       1.776   2.509  20.901  0.00  0.00    +0.000 C 
BRANCH  17  18
ATOM     18  O   UNL     1       2.846   2.568  21.845  0.00  0.00    +0.000 OA
ATOM     19  H   UNL     1       2.563   2.094  22.647  0.00  0.00    +0.000 HD
ENDBRANCH  17  18
ENDBRANCH  14  17
ENDBRANCH  13  14
ENDBRANCH  11  13
ENDBRANCH   3  11
BRANCH   1  20
ATOM     20  C   UNL     1       6.602   5.027  15.472  0.00  0.00    +0.000 C 
BRANCH  20  21
ATOM     21  C   UNL     1       6.212   3.769  14.703  0.00  0.00    +0.000 C 
BRANCH  21  23
ATOM     22  C   UNL     1       5.817   3.242  12.279  0.00  0.00    +0.000 C 
ATOM     23  C   UNL     1       5.416   4.122  13.450  0.00  0.00    +0.000 C 
ENDBRANCH  21  23
ENDBRANCH  20  21
ENDBRANCH   1  20
TORSDOF 9
ENDMDL
MODEL 8
REMARK VINA RESULT:      -6.6      3.863      6.426
REMARK  Name = 
REMARK  10 active torsions:
REMARK  status: ('A' for Active; 'I' for Inactive)
REMARK    1  A    between atoms: C_1  and  C_2
REMARK    2  A    between atoms: C_2  and  C_3
REMARK    3  A    between atoms: C_3  and  C_4
REMARK    4  A    between atoms: C_4  and  C_5
REMARK    5  A    between atoms: C_7  and  N_8
REMARK    6  A    between atoms: N_8  and  C_9
REMARK    7  A    between atoms: C_9  and  C_10
REMARK    8  A    between atoms: C_10  and  O_11
REMARK    9  A    between atoms: C_10  and  C_12
REMARK   10  A    between atoms: C_12  and  O_13
REMARK                            x       y       z     vdW  Elec       q    Type
REMARK                         _______ _______ _______ _____ _____    ______ ____
ROOT
ATOM      1  C   UNL     1       3.075   6.737  18.421  0.00  0.00    +0.000 A 
ATOM      2  C   UNL     1       4.120   6.046  17.827  0.00  0.00    +0.000 A 
ATOM      3  C   UNL     1       4.465   4.772  18.283  0.00  0.00    +0.000 A 
ATOM      4  C   UNL     1       3.704   4.217  19.351  0.00  0.00    +0.000 A 
ATOM      5  C   UNL     1       3.926   2.928  19.897  0.00  0.00    +0.000 A 
ATOM      6  C   UNL     1       3.158   2.454  20.964  0.00  0.00    +0.000 A 
ATOM      7  C   UNL     1       2.163   3.255  21.506  0.00  0.00    +0.000 A 
ATOM      8  C   UNL     1       1.936   4.523  20.971  0.00  0.00    +0.000 A 
ATOM      9  C   UNL     1       2.679   5.014  19.907  0.00  0.00    +0.000 A 
ATOM     10  N   UNL     1       2.370   6.236  19.453  0.00  0.00    +0.000 NA
ENDROOT
BRANCH   3  11
ATOM     11  N   UNL     1       5.451   3.988  17.616  0.00  0.00    +0.000 N 
ATOM     12  H   UNL     1       5.279   3.013  17.873  0.00  0.00    +0.000 HD
BRANCH  11  13
ATOM     13  C   UNL     1       5.548   4.152  16.159  0.00  0.00    +0.000 C 
BRANCH  13  14
ATOM     14  C   UNL     1       6.828   4.871  15.715  0.00  0.00    +0.000 C 
BRANCH  14  15
ATOM     15  O   UNL     1       7.921   4.398  16.521  0.00  0.00    +0.000 OA
ATOM     16  H   UNL     1       8.748   4.592  16.045  0.00  0.00    +0.000 HD
ENDBRANCH  14  15
BRANCH  14  17
ATOM     17  C   UNL     1       7.137   4.675  14.228  0.00  0.00    +0.000 C 
BRANCH  17  18
ATOM     18  O   UNL     1       8.048   5.671  13.760  0.00  0.00    +0.000 OA
ATOM     19  H   UNL     1       8.586   5.276  13.052  0.00  0.00    +0.000 HD
ENDBRANCH  17  18
ENDBRANCH  14  17
ENDBRANCH  13  14
ENDBRANCH  11  13
ENDBRANCH   3  11
BRANCH   1  20
ATOM     20  C   UNL     1       2.669   8.085  17.891  0.00  0.00    +0.000 C 
BRANCH  20  21
ATOM     21  C   UNL     1       1.713   8.801  18.842  0.00  0.00    +0.000 C 
BRANCH  21  23
ATOM     22  C   UNL     1      -0.324  10.141  18.243  0.00  0.00    +0.000 C 
ATOM     23  C   UNL     1       1.194  10.093  18.219  0.00  0.00    +0.000 C 
ENDBRANCH  21  23
ENDBRANCH  20  21
ENDBRANCH   1  20
TORSDOF 9
ENDMDL
MODEL 9
REMARK VINA RESULT:      -6.6      3.674      6.185
REMARK  Name = 
REMARK  10 active torsions:
REMARK  status: ('A' for Active; 'I' for Inactive)
REMARK    1  A    between atoms: C_1  and  C_2
REMARK    2  A    between atoms: C_2  and  C_3
REMARK    3  A    between atoms: C_3  and  C_4
REMARK    4  A    between atoms: C_4  and  C_5
REMARK    5  A    between atoms: C_7  and  N_8
REMARK    6  A    between atoms: N_8  and  C_9
REMARK    7  A    between atoms: C_9  and  C_10
REMARK    8  A    between atoms: C_10  and  O_11
REMARK    9  A    between atoms: C_10  and  C_12
REMARK   10  A    between atoms: C_12  and  O_13
REMARK                            x       y       z     vdW  Elec       q    Type
REMARK                         _______ _______ _______ _____ _____    ______ ____
ROOT
ATOM      1  C   UNL     1       3.227   6.614  18.371  0.00  0.00    +0.000 A 
ATOM      2  C   UNL     1       4.427   5.933  18.238  0.00  0.00    +0.000 A 
ATOM      3  C   UNL     1       4.607   4.701  18.872  0.00  0.00    +0.000 A 
ATOM      4  C   UNL     1       3.523   4.177  19.631  0.00  0.00    +0.000 A 
ATOM      5  C   UNL     1       3.555   2.931  20.305  0.00  0.00    +0.000 A 
ATOM      6  C   UNL     1       2.464   2.486  21.056  0.00  0.00    +0.000 A 
ATOM      7  C   UNL     1       1.327   3.277  21.151  0.00  0.00    +0.000 A 
ATOM      8  C   UNL     1       1.285   4.502  20.487  0.00  0.00    +0.000 A 
ATOM      9  C   UNL     1       2.353   4.962  19.728  0.00  0.00    +0.000 A 
ATOM     10  N   UNL     1       2.207   6.143  19.114  0.00  0.00    +0.000 NA
ENDROOT
BRANCH   3  11
ATOM     11  N   UNL     1       5.780   3.921  18.655  0.00  0.00    +0.000 N 
ATOM     12  H   UNL     1       5.486   3.068  18.174  0.00  0.00    +0.000 HD
BRANCH  11  13
ATOM     13  C   UNL     1       6.889   4.580  17.951  0.00  0.00    +0.000 C 
BRANCH  13  14
ATOM     14  C   UNL     1       6.992   4.177  16.475  0.00  0.00    +0.000 C 
BRANCH  14  15
ATOM     15  O   UNL     1       5.880   3.325  16.155  0.00  0.00    +0.000 OA
ATOM     16  H   UNL     1       6.234   2.515  15.744  0.00  0.00    +0.000 HD
ENDBRANCH  14  15
BRANCH  14  17
ATOM     17  C   UNL     1       7.032   5.382  15.529  0.00  0.00    +0.000 C 
BRANCH  17  18
ATOM     18  O   UNL     1       7.509   6.546  16.206  0.00  0.00    +0.000 OA
ATOM     19  H   UNL     1       6.863   6.775  16.898  0.00  0.00    +0.000 HD
ENDBRANCH  17  18
ENDBRANCH  14  17
ENDBRANCH  13  14
ENDBRANCH  11  13
ENDBRANCH   3  11
BRANCH   1  20
ATOM     20  C   UNL     1       3.015   7.913  17.643  0.00  0.00    +0.000 C 
BRANCH  20  21
ATOM     21  C   UNL     1       1.716   8.591  18.065  0.00  0.00    +0.000 C 
BRANCH  21  23
ATOM     22  C   UNL     1       0.712  10.786  18.761  0.00  0.00    +0.000 C 
ATOM     23  C   UNL     1       1.860  10.110  18.032  0.00  0.00    +0.000 C 
ENDBRANCH  21  23
ENDBRANCH  20  21
ENDBRANCH   1  20
TORSDOF 9
ENDMDL
