MODEL 1
REMARK VINA RESULT:      -8.1      0.000      0.000
REMARK  Name = 
REMARK  14 active torsions:
REMARK  status: ('A' for Active; 'I' for Inactive)
REMARK    1  A    between atoms: C_1  and  O_2
REMARK    2  A    between atoms: O_2  and  C_3
REMARK    3  A    between atoms: C_8  and  C_9
REMARK    4  A    between atoms: C_9  and  O_11
REMARK    5  A    between atoms: O_11  and  C_12
REMARK    6  A    between atoms: C_12  and  C_13
REMARK    7  A    between atoms: C_12  and  C_18
REMARK    8  A    between atoms: C_13  and  C_14
REMARK    9  A    between atoms: C_15  and  C_16
REMARK   10  A    between atoms: C_15  and  C_17
REMARK   11  A    between atoms: C_23  and  O_24
REMARK   12  A    between atoms: O_24  and  C_25
REMARK   13  A    between atoms: C_28  and  O_29
REMARK   14  A    between atoms: O_29  and  C_30
REMARK                            x       y       z     vdW  Elec       q    Type
REMARK                         _______ _______ _______ _____ _____    ______ ____
ROOT
ATOM      1  C   UNL     1       2.386   6.607  19.497  0.00  0.00    +0.000 C 
ENDROOT
BRANCH   1   2
ATOM      2  C   UNL     1       1.939   8.013  19.938  0.00  0.00    +0.000 C 
ATOM      3  C   UNL     1       1.518   8.057  21.211  0.00  0.00    +0.000 C 
ATOM      4  C   UNL     1       0.225   8.706  21.371  0.00  0.00    +0.000 C 
ATOM      5  O   UNL     1      -0.791   8.084  21.613  0.00  0.00    +0.000 OA
ATOM      6  C   UNL     1       0.269  10.117  21.050  0.00  0.00    +0.000 A 
ATOM      7  C   UNL     1      -0.262  11.073  21.923  0.00  0.00    +0.000 A 
ATOM      8  C   UNL     1      -0.183  12.399  21.536  0.00  0.00    +0.000 A 
ATOM      9  C   UNL     1       0.430  12.731  20.329  0.00  0.00    +0.000 A 
ATOM     10  C   UNL     1       0.977  11.763  19.447  0.00  0.00    +0.000 A 
ATOM     11  C   UNL     1       0.906  10.408  19.815  0.00  0.00    +0.000 A 
ATOM     12  C   UNL     1       1.422   9.164  19.069  0.00  0.00    +0.000 C 
ATOM     13  O   UNL     1       1.414   9.121  17.842  0.00  0.00    +0.000 OA
BRANCH   7  14
ATOM     14  O   UNL     1      -0.879  10.880  23.125  0.00  0.00    +0.000 OA
ATOM     15  C   UNL     1      -2.068  11.620  23.386  0.00  0.00    +0.000 C 
ENDBRANCH   7  14
BRANCH  10  16
ATOM     16  O   UNL     1       1.536  12.421  18.398  0.00  0.00    +0.000 OA
ATOM     17  C   UNL     1       1.866  13.791  18.425  0.00  0.00    +0.000 C 
ENDBRANCH  10  16
ENDBRANCH   1   2
BRANCH   1  18
ATOM     18  O   UNL     1       3.515   6.576  18.503  0.00  0.00    +0.000 OA
BRANCH  18  19
ATOM     19  C   UNL     1       4.572   5.724  18.606  0.00  0.00    +0.000 C 
ATOM     20  O   UNL     1       5.013   5.349  19.682  0.00  0.00    +0.000 OA
BRANCH  19  26
ATOM     21  C   UNL     1       6.017   5.994  16.424  0.00  0.00    +0.000 A 
ATOM     22  C   UNL     1       6.448   5.445  15.186  0.00  0.00    +0.000 A 
ATOM     23  C   UNL     1       6.196   4.116  14.860  0.00  0.00    +0.000 A 
ATOM     24  C   UNL     1       5.436   3.354  15.733  0.00  0.00    +0.000 A 
ATOM     25  C   UNL     1       4.914   3.924  16.909  0.00  0.00    +0.000 A 
ATOM     26  C   UNL     1       5.197   5.256  17.297  0.00  0.00    +0.000 A 
BRANCH  21  28
ATOM     27  C   UNL     1       7.595   7.190  17.598  0.00  0.00    +0.000 C 
ATOM     28  O   UNL     1       6.435   7.256  16.756  0.00  0.00    +0.000 OA
ENDBRANCH  21  28
ENDBRANCH  19  26
ENDBRANCH  18  19
ENDBRANCH   1  18
BRANCH   1  29
ATOM     29  C   UNL     1       1.398   5.429  19.281  0.00  0.00    +0.000 C 
BRANCH  29  30
ATOM     30  C   UNL     1       1.322   4.431  20.424  0.00  0.00    +0.000 C 
ATOM     31  C   UNL     1       1.851   3.196  20.574  0.00  0.00    +0.000 C 
ATOM     32  C   UNL     1       2.645   2.437  19.548  0.00  0.00    +0.000 C 
ATOM     33  C   UNL     1       1.715   2.464  21.892  0.00  0.00    +0.000 C 
ENDBRANCH  29  30
ENDBRANCH   1  29
TORSDOF 9
ENDMDL
MODEL 2
REMARK VINA RESULT:      -8.1      1.023      1.682
REMARK  Name = 
REMARK  14 active torsions:
REMARK  status: ('A' for Active; 'I' for Inactive)
REMARK    1  A    between atoms: C_1  and  O_2
REMARK    2  A    between atoms: O_2  and  C_3
REMARK    3  A    between atoms: C_8  and  C_9
REMARK    4  A    between atoms: C_9  and  O_11
REMARK    5  A    between atoms: O_11  and  C_12
REMARK    6  A    between atoms: C_12  and  C_13
REMARK    7  A    between atoms: C_12  and  C_18
REMARK    8  A    between atoms: C_13  and  C_14
REMARK    9  A    between atoms: C_15  and  C_16
REMARK   10  A    between atoms: C_15  and  C_17
REMARK   11  A    between atoms: C_23  and  O_24
REMARK   12  A    between atoms: O_24  and  C_25
REMARK   13  A    between atoms: C_28  and  O_29
REMARK   14  A    between atoms: O_29  and  C_30
REMARK                            x       y       z     vdW  Elec       q    Type
REMARK                         _______ _______ _______ _____ _____    ______ ____
ROOT
ATOM      1  C   UNL     1       2.154   6.518  19.507  0.00  0.00    +0.000 C 
ENDROOT
BRANCH   1   2
ATOM      2  C   UNL     1       1.866   7.979  19.898  0.00  0.00    +0.000 C 
ATOM      3  C   UNL     1       1.498   8.119  21.180  0.00  0.00    +0.000 C 
ATOM      4  C   UNL     1       0.282   8.901  21.353  0.00  0.00    +0.000 C 
ATOM      5  O   UNL     1      -0.781   8.396  21.655  0.00  0.00    +0.000 OA
ATOM      6  C   UNL     1       0.455  10.286  20.966  0.00  0.00    +0.000 A 
ATOM      7  C   UNL     1       0.054  11.326  21.812  0.00  0.00    +0.000 A 
ATOM      8  C   UNL     1       0.251  12.620  21.362  0.00  0.00    +0.000 A 
ATOM      9  C   UNL     1       0.850  12.838  20.123  0.00  0.00    +0.000 A 
ATOM     10  C   UNL     1       1.264  11.783  19.269  0.00  0.00    +0.000 A 
ATOM     11  C   UNL     1       1.073  10.458  19.700  0.00  0.00    +0.000 A 
ATOM     12  C   UNL     1       1.434   9.139  18.994  0.00  0.00    +0.000 C 
ATOM     13  O   UNL     1       1.377   9.045  17.772  0.00  0.00    +0.000 OA
BRANCH   7  14
ATOM     14  O   UNL     1      -0.535  11.247  23.040  0.00  0.00    +0.000 OA
ATOM     15  C   UNL     1      -1.901  11.637  23.147  0.00  0.00    +0.000 C 
ENDBRANCH   7  14
BRANCH  10  16
ATOM     16  O   UNL     1       1.848  12.337  18.173  0.00  0.00    +0.000 OA
ATOM     17  C   UNL     1       2.348  13.653  18.140  0.00  0.00    +0.000 C 
ENDBRANCH  10  16
ENDBRANCH   1   2
BRANCH   1  18
ATOM     18  O   UNL     1       2.610   6.312  18.089  0.00  0.00    +0.000 OA
BRANCH  18  19
ATOM     19  C   UNL     1       3.464   5.318  17.720  0.00  0.00    +0.000 C 
ATOM     20  O   UNL     1       3.077   4.254  17.261  0.00  0.00    +0.000 OA
BRANCH  19  26
ATOM     21  C   UNL     1       5.865   6.087  16.967  0.00  0.00    +0.000 A 
ATOM     22  C   UNL     1       7.247   6.201  17.274  0.00  0.00    +0.000 A 
ATOM     23  C   UNL     1       7.722   5.965  18.561  0.00  0.00    +0.000 A 
ATOM     24  C   UNL     1       6.827   5.530  19.526  0.00  0.00    +0.000 A 
ATOM     25  C   UNL     1       5.476   5.311  19.200  0.00  0.00    +0.000 A 
ATOM     26  C   UNL     1       4.951   5.593  17.915  0.00  0.00    +0.000 A 
BRANCH  21  28
ATOM     27  C   UNL     1       5.589   5.422  14.781  0.00  0.00    +0.000 C 
ATOM     28  O   UNL     1       5.439   6.489  15.727  0.00  0.00    +0.000 OA
ENDBRANCH  21  28
ENDBRANCH  19  26
ENDBRANCH  18  19
ENDBRANCH   1  18
BRANCH   1  29
ATOM     29  C   UNL     1       1.313   5.318  20.019  0.00  0.00    +0.000 C 
BRANCH  29  30
ATOM     30  C   UNL     1       2.090   4.266  20.792  0.00  0.00    +0.000 C 
ATOM     31  C   UNL     1       2.253   2.940  20.587  0.00  0.00    +0.000 C 
ATOM     32  C   UNL     1       1.610   2.121  19.503  0.00  0.00    +0.000 C 
ATOM     33  C   UNL     1       3.200   2.144  21.460  0.00  0.00    +0.000 C 
ENDBRANCH  29  30
ENDBRANCH   1  29
TORSDOF 9
ENDMDL
MODEL 3
REMARK VINA RESULT:      -7.9      0.938      1.148
REMARK  Name = 
REMARK  14 active torsions:
REMARK  status: ('A' for Active; 'I' for Inactive)
REMARK    1  A    between atoms: C_1  and  O_2
REMARK    2  A    between atoms: O_2  and  C_3
REMARK    3  A    between atoms: C_8  and  C_9
REMARK    4  A    between atoms: C_9  and  O_11
REMARK    5  A    between atoms: O_11  and  C_12
REMARK    6  A    between atoms: C_12  and  C_13
REMARK    7  A    between atoms: C_12  and  C_18
REMARK    8  A    between atoms: C_13  and  C_14
REMARK    9  A    between atoms: C_15  and  C_16
REMARK   10  A    between atoms: C_15  and  C_17
REMARK   11  A    between atoms: C_23  and  O_24
REMARK   12  A    between atoms: O_24  and  C_25
REMARK   13  A    between atoms: C_28  and  O_29
REMARK   14  A    between atoms: O_29  and  C_30
REMARK                            x       y       z     vdW  Elec       q    Type
REMARK                         _______ _______ _______ _____ _____    ______ ____
ROOT
ATOM      1  C   UNL     1       2.624   6.331  19.131  0.00  0.00    +0.000 C 
ENDROOT
BRANCH   1   2
ATOM      2  C   UNL     1       2.170   7.719  19.620  0.00  0.00    +0.000 C 
ATOM      3  C   UNL     1       1.714   7.711  20.881  0.00  0.00    +0.000 C 
ATOM      4  C   UNL     1       0.418   8.358  21.033  0.00  0.00    +0.000 C 
ATOM      5  O   UNL     1      -0.606   7.731  21.219  0.00  0.00    +0.000 OA
ATOM      6  C   UNL     1       0.476   9.781  20.774  0.00  0.00    +0.000 A 
ATOM      7  C   UNL     1      -0.075  10.702  21.672  0.00  0.00    +0.000 A 
ATOM      8  C   UNL     1       0.020  12.043  21.344  0.00  0.00    +0.000 A 
ATOM      9  C   UNL     1       0.668  12.423  20.170  0.00  0.00    +0.000 A 
ATOM     10  C   UNL     1       1.235  11.491  19.264  0.00  0.00    +0.000 A 
ATOM     11  C   UNL     1       1.150  10.122  19.570  0.00  0.00    +0.000 A 
ATOM     12  C   UNL     1       1.682   8.909  18.786  0.00  0.00    +0.000 C 
ATOM     13  O   UNL     1       1.708   8.918  17.559  0.00  0.00    +0.000 OA
BRANCH   7  14
ATOM     14  O   UNL     1      -0.727  10.460  22.847  0.00  0.00    +0.000 OA
ATOM     15  C   UNL     1      -1.727  11.389  23.253  0.00  0.00    +0.000 C 
ENDBRANCH   7  14
BRANCH  10  16
ATOM     16  O   UNL     1       1.827  12.191  18.260  0.00  0.00    +0.000 OA
ATOM     17  C   UNL     1       2.219  13.539  18.378  0.00  0.00    +0.000 C 
ENDBRANCH  10  16
ENDBRANCH   1   2
BRANCH   1  18
ATOM     18  O   UNL     1       4.084   6.029  19.325  0.00  0.00    +0.000 OA
BRANCH  18  19
ATOM     19  C   UNL     1       4.649   4.840  18.979  0.00  0.00    +0.000 C 
ATOM     20  O   UNL     1       4.536   3.833  19.661  0.00  0.00    +0.000 OA
BRANCH  19  26
ATOM     21  C   UNL     1       6.568   5.610  17.351  0.00  0.00    +0.000 A 
ATOM     22  C   UNL     1       7.153   5.543  16.058  0.00  0.00    +0.000 A 
ATOM     23  C   UNL     1       6.736   4.597  15.126  0.00  0.00    +0.000 A 
ATOM     24  C   UNL     1       5.672   3.771  15.453  0.00  0.00    +0.000 A 
ATOM     25  C   UNL     1       5.018   3.907  16.691  0.00  0.00    +0.000 A 
ATOM     26  C   UNL     1       5.452   4.821  17.682  0.00  0.00    +0.000 A 
BRANCH  21  28
ATOM     27  C   UNL     1       7.670   7.611  17.630  0.00  0.00    +0.000 C 
ATOM     28  O   UNL     1       7.131   6.450  18.277  0.00  0.00    +0.000 OA
ENDBRANCH  21  28
ENDBRANCH  19  26
ENDBRANCH  18  19
ENDBRANCH   1  18
BRANCH   1  29
ATOM     29  C   UNL     1       2.063   5.654  17.851  0.00  0.00    +0.000 C 
BRANCH  29  30
ATOM     30  C   UNL     1       1.606   4.217  18.027  0.00  0.00    +0.000 C 
ATOM     31  C   UNL     1       1.143   3.549  19.107  0.00  0.00    +0.000 C 
ATOM     32  C   UNL     1       1.019   4.090  20.503  0.00  0.00    +0.000 C 
ATOM     33  C   UNL     1       0.633   2.130  18.964  0.00  0.00    +0.000 C 
ENDBRANCH  29  30
ENDBRANCH   1  29
TORSDOF 9
ENDMDL
MODEL 4
REMARK VINA RESULT:      -7.8      1.089      1.765
REMARK  Name = 
REMARK  14 active torsions:
REMARK  status: ('A' for Active; 'I' for Inactive)
REMARK    1  A    between atoms: C_1  and  O_2
REMARK    2  A    between atoms: O_2  and  C_3
REMARK    3  A    between atoms: C_8  and  C_9
REMARK    4  A    between atoms: C_9  and  O_11
REMARK    5  A    between atoms: O_11  and  C_12
REMARK    6  A    between atoms: C_12  and  C_13
REMARK    7  A    between atoms: C_12  and  C_18
REMARK    8  A    between atoms: C_13  and  C_14
REMARK    9  A    between atoms: C_15  and  C_16
REMARK   10  A    between atoms: C_15  and  C_17
REMARK   11  A    between atoms: C_23  and  O_24
REMARK   12  A    between atoms: O_24  and  C_25
REMARK   13  A    between atoms: C_28  and  O_29
REMARK   14  A    between atoms: O_29  and  C_30
REMARK                            x       y       z     vdW  Elec       q    Type
REMARK                         _______ _______ _______ _____ _____    ______ ____
ROOT
ATOM      1  C   UNL     1       2.323   6.948  19.853  0.00  0.00    +0.000 C 
ENDROOT
BRANCH   1   2
ATOM      2  C   UNL     1       1.764   8.342  20.191  0.00  0.00    +0.000 C 
ATOM      3  C   UNL     1       1.395   8.465  21.474  0.00  0.00    +0.000 C 
ATOM      4  C   UNL     1       0.054   9.005  21.643  0.00  0.00    +0.000 C 
ATOM      5  O   UNL     1      -0.887   8.319  21.991  0.00  0.00    +0.000 OA
ATOM      6  C   UNL     1      -0.051  10.379  21.197  0.00  0.00    +0.000 A 
ATOM      7  C   UNL     1      -0.632  11.360  22.008  0.00  0.00    +0.000 A 
ATOM      8  C   UNL     1      -0.697  12.646  21.502  0.00  0.00    +0.000 A 
ATOM      9  C   UNL     1      -0.170  12.919  20.241  0.00  0.00    +0.000 A 
ATOM     10  C   UNL     1       0.428  11.927  19.421  0.00  0.00    +0.000 A 
ATOM     11  C   UNL     1       0.503  10.611  19.910  0.00  0.00    +0.000 A 
ATOM     12  C   UNL     1       1.102   9.356  19.251  0.00  0.00    +0.000 C 
ATOM     13  O   UNL     1       1.045   9.198  18.035  0.00  0.00    +0.000 OA
BRANCH   7  14
ATOM     14  O   UNL     1      -1.176  11.223  23.253  0.00  0.00    +0.000 OA
ATOM     15  C   UNL     1      -2.429  11.854  23.502  0.00  0.00    +0.000 C 
ENDBRANCH   7  14
BRANCH  10  16
ATOM     16  O   UNL     1       0.876  12.533  18.290  0.00  0.00    +0.000 OA
ATOM     17  C   UNL     1       2.178  13.056  18.153  0.00  0.00    +0.000 C 
ENDBRANCH  10  16
ENDBRANCH   1   2
BRANCH   1  18
ATOM     18  O   UNL     1       2.602   6.705  18.395  0.00  0.00    +0.000 OA
BRANCH  18  19
ATOM     19  C   UNL     1       3.698   7.198  17.756  0.00  0.00    +0.000 C 
ATOM     20  O   UNL     1       3.900   8.395  17.622  0.00  0.00    +0.000 OA
BRANCH  19  26
ATOM     21  C   UNL     1       5.347   5.152  17.902  0.00  0.00    +0.000 A 
ATOM     22  C   UNL     1       6.308   4.329  17.257  0.00  0.00    +0.000 A 
ATOM     23  C   UNL     1       6.516   4.404  15.883  0.00  0.00    +0.000 A 
ATOM     24  C   UNL     1       5.825   5.364  15.161  0.00  0.00    +0.000 A 
ATOM     25  C   UNL     1       4.953   6.255  15.813  0.00  0.00    +0.000 A 
ATOM     26  C   UNL     1       4.678   6.170  17.200  0.00  0.00    +0.000 A 
BRANCH  21  28
ATOM     27  C   UNL     1       4.793   3.528  19.436  0.00  0.00    +0.000 C 
ATOM     28  O   UNL     1       5.074   4.919  19.225  0.00  0.00    +0.000 OA
ENDBRANCH  21  28
ENDBRANCH  19  26
ENDBRANCH  18  19
ENDBRANCH   1  18
BRANCH   1  29
ATOM     29  C   UNL     1       1.868   5.650  20.574  0.00  0.00    +0.000 C 
BRANCH  29  30
ATOM     30  C   UNL     1       1.429   4.521  19.658  0.00  0.00    +0.000 C 
ATOM     31  C   UNL     1       1.206   3.209  19.894  0.00  0.00    +0.000 C 
ATOM     32  C   UNL     1       1.412   2.492  21.198  0.00  0.00    +0.000 C 
ATOM     33  C   UNL     1       0.646   2.322  18.802  0.00  0.00    +0.000 C 
ENDBRANCH  29  30
ENDBRANCH   1  29
TORSDOF 9
ENDMDL
MODEL 5
REMARK VINA RESULT:      -7.6      1.415      2.161
REMARK  Name = 
REMARK  14 active torsions:
REMARK  status: ('A' for Active; 'I' for Inactive)
REMARK    1  A    between atoms: C_1  and  O_2
REMARK    2  A    between atoms: O_2  and  C_3
REMARK    3  A    between atoms: C_8  and  C_9
REMARK    4  A    between atoms: C_9  and  O_11
REMARK    5  A    between atoms: O_11  and  C_12
REMARK    6  A    between atoms: C_12  and  C_13
REMARK    7  A    between atoms: C_12  and  C_18
REMARK    8  A    between atoms: C_13  and  C_14
REMARK    9  A    between atoms: C_15  and  C_16
REMARK   10  A    between atoms: C_15  and  C_17
REMARK   11  A    between atoms: C_23  and  O_24
REMARK   12  A    between atoms: O_24  and  C_25
REMARK   13  A    between atoms: C_28  and  O_29
REMARK   14  A    between atoms: O_29  and  C_30
REMARK                            x       y       z     vdW  Elec       q    Type
REMARK                         _______ _______ _______ _____ _____    ______ ____
ROOT
ATOM      1  C   UNL     1       2.484   6.848  19.728  0.00  0.00    +0.000 C 
ENDROOT
BRANCH   1   2
ATOM      2  C   UNL     1       1.890   8.227  20.069  0.00  0.00    +0.000 C 
ATOM      3  C   UNL     1       1.417   8.302  21.321  0.00  0.00    +0.000 C 
ATOM      4  C   UNL     1       0.063   8.832  21.398  0.00  0.00    +0.000 C 
ATOM      5  O   UNL     1      -0.899   8.131  21.641  0.00  0.00    +0.000 OA
ATOM      6  C   UNL     1      -0.012  10.221  20.995  0.00  0.00    +0.000 A 
ATOM      7  C   UNL     1      -0.664  11.170  21.790  0.00  0.00    +0.000 A 
ATOM      8  C   UNL     1      -0.694  12.473  21.327  0.00  0.00    +0.000 A 
ATOM      9  C   UNL     1      -0.066  12.794  20.125  0.00  0.00    +0.000 A 
ATOM     10  C   UNL     1       0.603  11.835  19.322  0.00  0.00    +0.000 A 
ATOM     11  C   UNL     1       0.645  10.501  19.767  0.00  0.00    +0.000 A 
ATOM     12  C   UNL     1       1.303   9.273  19.115  0.00  0.00    +0.000 C 
ATOM     13  O   UNL     1       1.348   9.160  17.894  0.00  0.00    +0.000 OA
BRANCH   7  14
ATOM     14  O   UNL     1      -1.308  10.986  22.979  0.00  0.00    +0.000 OA
ATOM     15  C   UNL     1      -2.323  11.920  23.335  0.00  0.00    +0.000 C 
ENDBRANCH   7  14
BRANCH  10  16
ATOM     16  O   UNL     1       1.140  12.483  18.255  0.00  0.00    +0.000 OA
ATOM     17  C   UNL     1       2.284  13.301  18.338  0.00  0.00    +0.000 C 
ENDBRANCH  10  16
ENDBRANCH   1   2
BRANCH   1  18
ATOM     18  O   UNL     1       2.652   6.567  18.260  0.00  0.00    +0.000 OA
BRANCH  18  19
ATOM     19  C   UNL     1       3.516   5.633  17.777  0.00  0.00    +0.000 C 
ATOM     20  O   UNL     1       3.146   4.663  17.134  0.00  0.00    +0.000 OA
BRANCH  19  26
ATOM     21  C   UNL     1       5.747   5.283  19.128  0.00  0.00    +0.000 A 
ATOM     22  C   UNL     1       7.100   5.660  19.343  0.00  0.00    +0.000 A 
ATOM     23  C   UNL     1       7.767   6.491  18.448  0.00  0.00    +0.000 A 
ATOM     24  C   UNL     1       7.058   7.018  17.379  0.00  0.00    +0.000 A 
ATOM     25  C   UNL     1       5.689   6.735  17.223  0.00  0.00    +0.000 A 
ATOM     26  C   UNL     1       4.994   5.851  18.085  0.00  0.00    +0.000 A 
BRANCH  21  28
ATOM     27  C   UNL     1       5.032   3.099  19.249  0.00  0.00    +0.000 C 
ATOM     28  O   UNL     1       5.197   4.337  19.954  0.00  0.00    +0.000 OA
ENDBRANCH  21  28
ENDBRANCH  19  26
ENDBRANCH  18  19
ENDBRANCH   1  18
BRANCH   1  29
ATOM     29  C   UNL     1       2.150   5.557  20.524  0.00  0.00    +0.000 C 
BRANCH  29  30
ATOM     30  C   UNL     1       1.554   4.426  19.703  0.00  0.00    +0.000 C 
ATOM     31  C   UNL     1       1.284   3.138  20.012  0.00  0.00    +0.000 C 
ATOM     32  C   UNL     1       1.587   2.453  21.315  0.00  0.00    +0.000 C 
ATOM     33  C   UNL     1       0.563   2.251  19.020  0.00  0.00    +0.000 C 
ENDBRANCH  29  30
ENDBRANCH   1  29
TORSDOF 9
ENDMDL
MODEL 6
REMARK VINA RESULT:      -7.6      1.107      1.458
REMARK  Name = 
REMARK  14 active torsions:
REMARK  status: ('A' for Active; 'I' for Inactive)
REMARK    1  A    between atoms: C_1  and  O_2
REMARK    2  A    between atoms: O_2  and  C_3
REMARK    3  A    between atoms: C_8  and  C_9
REMARK    4  A    between atoms: C_9  and  O_11
REMARK    5  A    between atoms: O_11  and  C_12
REMARK    6  A    between atoms: C_12  and  C_13
REMARK    7  A    between atoms: C_12  and  C_18
REMARK    8  A    between atoms: C_13  and  C_14
REMARK    9  A    between atoms: C_15  and  C_16
REMARK   10  A    between atoms: C_15  and  C_17
REMARK   11  A    between atoms: C_23  and  O_24
REMARK   12  A    between atoms: O_24  and  C_25
REMARK   13  A    between atoms: C_28  and  O_29
REMARK   14  A    between atoms: O_29  and  C_30
REMARK                            x       y       z     vdW  Elec       q    Type
REMARK                         _______ _______ _______ _____ _____    ______ ____
ROOT
ATOM      1  C   UNL     1       2.449   6.729  19.638  0.00  0.00    +0.000 C 
ENDROOT
BRANCH   1   2
ATOM      2  C   UNL     1       1.923   8.119  20.039  0.00  0.00    +0.000 C 
ATOM      3  C   UNL     1       1.530   8.185  21.320  0.00  0.00    +0.000 C 
ATOM      4  C   UNL     1       0.201   8.756  21.490  0.00  0.00    +0.000 C 
ATOM      5  O   UNL     1      -0.766   8.080  21.780  0.00  0.00    +0.000 OA
ATOM      6  C   UNL     1       0.147  10.153  21.116  0.00  0.00    +0.000 A 
ATOM      7  C   UNL     1      -0.423  11.107  21.967  0.00  0.00    +0.000 A 
ATOM      8  C   UNL     1      -0.438  12.419  21.530  0.00  0.00    +0.000 A 
ATOM      9  C   UNL     1       0.124  12.743  20.297  0.00  0.00    +0.000 A 
ATOM     10  C   UNL     1       0.710  11.779  19.437  0.00  0.00    +0.000 A 
ATOM     11  C   UNL     1       0.736  10.437  19.855  0.00  0.00    +0.000 A 
ATOM     12  C   UNL     1       1.313   9.201  19.142  0.00  0.00    +0.000 C 
ATOM     13  O   UNL     1       1.278   9.111  17.919  0.00  0.00    +0.000 OA
BRANCH   7  14
ATOM     14  O   UNL     1      -0.999  10.920  23.191  0.00  0.00    +0.000 OA
ATOM     15  C   UNL     1      -2.210  11.618  23.467  0.00  0.00    +0.000 C 
ENDBRANCH   7  14
BRANCH  10  16
ATOM     16  O   UNL     1       1.202  12.431  18.351  0.00  0.00    +0.000 OA
ATOM     17  C   UNL     1       1.759  13.724  18.406  0.00  0.00    +0.000 C 
ENDBRANCH  10  16
ENDBRANCH   1   2
BRANCH   1  18
ATOM     18  O   UNL     1       2.795   6.570  18.183  0.00  0.00    +0.000 OA
BRANCH  18  19
ATOM     19  C   UNL     1       3.964   7.015  17.645  0.00  0.00    +0.000 C 
ATOM     20  O   UNL     1       4.234   8.202  17.547  0.00  0.00    +0.000 OA
BRANCH  19  26
ATOM     21  C   UNL     1       5.948   5.303  17.889  0.00  0.00    +0.000 A 
ATOM     22  C   UNL     1       6.840   4.392  17.262  0.00  0.00    +0.000 A 
ATOM     23  C   UNL     1       6.656   3.997  15.941  0.00  0.00    +0.000 A 
ATOM     24  C   UNL     1       5.629   4.579  15.213  0.00  0.00    +0.000 A 
ATOM     25  C   UNL     1       4.810   5.563  15.797  0.00  0.00    +0.000 A 
ATOM     26  C   UNL     1       4.936   5.947  17.154  0.00  0.00    +0.000 A 
BRANCH  21  28
ATOM     27  C   UNL     1       7.472   5.670  19.574  0.00  0.00    +0.000 C 
ATOM     28  O   UNL     1       6.086   5.527  19.235  0.00  0.00    +0.000 OA
ENDBRANCH  21  28
ENDBRANCH  19  26
ENDBRANCH  18  19
ENDBRANCH   1  18
BRANCH   1  29
ATOM     29  C   UNL     1       1.909   5.406  20.247  0.00  0.00    +0.000 C 
BRANCH  29  30
ATOM     30  C   UNL     1       2.751   4.173  19.965  0.00  0.00    +0.000 C 
ATOM     31  C   UNL     1       2.517   3.083  19.202  0.00  0.00    +0.000 C 
ATOM     32  C   UNL     1       1.255   2.779  18.445  0.00  0.00    +0.000 C 
ATOM     33  C   UNL     1       3.603   2.047  19.000  0.00  0.00    +0.000 C 
ENDBRANCH  29  30
ENDBRANCH   1  29
TORSDOF 9
ENDMDL
MODEL 7
REMARK VINA RESULT:      -7.6      0.763      1.159
REMARK  Name = 
REMARK  14 active torsions:
REMARK  status: ('A' for Active; 'I' for Inactive)
REMARK    1  A    between atoms: C_1  and  O_2
REMARK    2  A    between atoms: O_2  and  C_3
REMARK    3  A    between atoms: C_8  and  C_9
REMARK    4  A    between atoms: C_9  and  O_11
REMARK    5  A    between atoms: O_11  and  C_12
REMARK    6  A    between atoms: C_12  and  C_13
REMARK    7  A    between atoms: C_12  and  C_18
REMARK    8  A    between atoms: C_13  and  C_14
REMARK    9  A    between atoms: C_15  and  C_16
REMARK   10  A    between atoms: C_15  and  C_17
REMARK   11  A    between atoms: C_23  and  O_24
REMARK   12  A    between atoms: O_24  and  C_25
REMARK   13  A    between atoms: C_28  and  O_29
REMARK   14  A    between atoms: O_29  and  C_30
REMARK                            x       y       z     vdW  Elec       q    Type
REMARK                         _______ _______ _______ _____ _____    ______ ____
ROOT
ATOM      1  C   UNL     1       2.355   6.703  19.168  0.00  0.00    +0.000 C 
ENDROOT
BRANCH   1   2
ATOM      2  C   UNL     1       1.928   8.078  19.713  0.00  0.00    +0.000 C 
ATOM      3  C   UNL     1       1.549   8.041  20.998  0.00  0.00    +0.000 C 
ATOM      4  C   UNL     1       0.264   8.681  21.242  0.00  0.00    +0.000 C 
ATOM      5  O   UNL     1      -0.746   8.047  21.476  0.00  0.00    +0.000 OA
ATOM      6  C   UNL     1       0.304  10.110  21.011  0.00  0.00    +0.000 A 
ATOM      7  C   UNL     1      -0.194  11.009  21.961  0.00  0.00    +0.000 A 
ATOM      8  C   UNL     1      -0.122  12.357  21.658  0.00  0.00    +0.000 A 
ATOM      9  C   UNL     1       0.454  12.765  20.455  0.00  0.00    +0.000 A 
ATOM     10  C   UNL     1       0.967  11.854  19.496  0.00  0.00    +0.000 A 
ATOM     11  C   UNL     1       0.903  10.478  19.778  0.00  0.00    +0.000 A 
ATOM     12  C   UNL     1       1.388   9.284  18.936  0.00  0.00    +0.000 C 
ATOM     13  O   UNL     1       1.340   9.320  17.711  0.00  0.00    +0.000 OA
BRANCH   7  14
ATOM     14  O   UNL     1      -0.773  10.740  23.167  0.00  0.00    +0.000 OA
ATOM     15  C   UNL     1      -2.016  11.370  23.461  0.00  0.00    +0.000 C 
ENDBRANCH   7  14
BRANCH  10  16
ATOM     16  O   UNL     1       1.495  12.577  18.474  0.00  0.00    +0.000 OA
ATOM     17  C   UNL     1       1.513  13.986  18.445  0.00  0.00    +0.000 C 
ENDBRANCH  10  16
ENDBRANCH   1   2
BRANCH   1  18
ATOM     18  O   UNL     1       3.787   6.606  18.720  0.00  0.00    +0.000 OA
BRANCH  18  19
ATOM     19  C   UNL     1       4.192   6.903  17.455  0.00  0.00    +0.000 C 
ATOM     20  O   UNL     1       3.820   7.904  16.861  0.00  0.00    +0.000 OA
BRANCH  19  26
ATOM     21  C   UNL     1       6.497   6.097  16.475  0.00  0.00    +0.000 A 
ATOM     22  C   UNL     1       7.228   5.103  15.771  0.00  0.00    +0.000 A 
ATOM     23  C   UNL     1       6.673   3.856  15.501  0.00  0.00    +0.000 A 
ATOM     24  C   UNL     1       5.353   3.628  15.859  0.00  0.00    +0.000 A 
ATOM     25  C   UNL     1       4.591   4.647  16.458  0.00  0.00    +0.000 A 
ATOM     26  C   UNL     1       5.141   5.908  16.795  0.00  0.00    +0.000 A 
BRANCH  21  28
ATOM     27  C   UNL     1       7.800   7.049  18.116  0.00  0.00    +0.000 C 
ATOM     28  O   UNL     1       7.152   7.241  16.851  0.00  0.00    +0.000 OA
ENDBRANCH  21  28
ENDBRANCH  19  26
ENDBRANCH  18  19
ENDBRANCH   1  18
BRANCH   1  29
ATOM     29  C   UNL     1       1.424   5.801  18.311  0.00  0.00    +0.000 C 
BRANCH  29  30
ATOM     30  C   UNL     1       1.732   4.315  18.369  0.00  0.00    +0.000 C 
ATOM     31  C   UNL     1       1.629   3.416  19.374  0.00  0.00    +0.000 C 
ATOM     32  C   UNL     1       1.215   3.705  20.789  0.00  0.00    +0.000 C 
ATOM     33  C   UNL     1       1.892   1.948  19.113  0.00  0.00    +0.000 C 
ENDBRANCH  29  30
ENDBRANCH   1  29
TORSDOF 9
ENDMDL
MODEL 8
REMARK VINA RESULT:      -7.5      1.443      3.534
REMARK  Name = 
REMARK  14 active torsions:
REMARK  status: ('A' for Active; 'I' for Inactive)
REMARK    1  A    between atoms: C_1  and  O_2
REMARK    2  A    between atoms: O_2  and  C_3
REMARK    3  A    between atoms: C_8  and  C_9
REMARK    4  A    between atoms: C_9  and  O_11
REMARK    5  A    between atoms: O_11  and  C_12
REMARK    6  A    between atoms: C_12  and  C_13
REMARK    7  A    between atoms: C_12  and  C_18
REMARK    8  A    between atoms: C_13  and  C_14
REMARK    9  A    between atoms: C_15  and  C_16
REMARK   10  A    between atoms: C_15  and  C_17
REMARK   11  A    between atoms: C_23  and  O_24
REMARK   12  A    between atoms: O_24  and  C_25
REMARK   13  A    between atoms: C_28  and  O_29
REMARK   14  A    between atoms: O_29  and  C_30
REMARK                            x       y       z     vdW  Elec       q    Type
REMARK                         _______ _______ _______ _____ _____    ______ ____
ROOT
ATOM      1  C   UNL     1       2.303   7.150  19.072  0.00  0.00    +0.000 C 
ENDROOT
BRANCH   1   2
ATOM      2  C   UNL     1       1.848   8.514  19.623  0.00  0.00    +0.000 C 
ATOM      3  C   UNL     1       1.519   8.475  20.922  0.00  0.00    +0.000 C 
ATOM      4  C   UNL     1       0.222   9.071  21.210  0.00  0.00    +0.000 C 
ATOM      5  O   UNL     1      -0.754   8.404  21.487  0.00  0.00    +0.000 OA
ATOM      6  C   UNL     1       0.202  10.498  20.966  0.00  0.00    +0.000 A 
ATOM      7  C   UNL     1      -0.292  11.388  21.927  0.00  0.00    +0.000 A 
ATOM      8  C   UNL     1      -0.280  12.735  21.611  0.00  0.00    +0.000 A 
ATOM      9  C   UNL     1       0.235  13.152  20.384  0.00  0.00    +0.000 A 
ATOM     10  C   UNL     1       0.744  12.252  19.413  0.00  0.00    +0.000 A 
ATOM     11  C   UNL     1       0.740  10.876  19.708  0.00  0.00    +0.000 A 
ATOM     12  C   UNL     1       1.236   9.693  18.858  0.00  0.00    +0.000 C 
ATOM     13  O   UNL     1       1.140   9.716  17.635  0.00  0.00    +0.000 OA
BRANCH   7  14
ATOM     14  O   UNL     1      -0.815  11.109  23.157  0.00  0.00    +0.000 OA
ATOM     15  C   UNL     1      -2.131  11.577  23.439  0.00  0.00    +0.000 C 
ENDBRANCH   7  14
BRANCH  10  16
ATOM     16  O   UNL     1       1.207  12.983  18.366  0.00  0.00    +0.000 OA
ATOM     17  C   UNL     1       2.047  14.104  18.512  0.00  0.00    +0.000 C 
ENDBRANCH  10  16
ENDBRANCH   1   2
BRANCH   1  18
ATOM     18  O   UNL     1       2.423   6.054  20.095  0.00  0.00    +0.000 OA
BRANCH  18  19
ATOM     19  C   UNL     1       1.687   4.910  20.047  0.00  0.00    +0.000 C 
ATOM     20  O   UNL     1       0.558   4.833  20.507  0.00  0.00    +0.000 OA
BRANCH  19  26
ATOM     21  C   UNL     1       3.139   2.716  20.003  0.00  0.00    +0.000 A 
ATOM     22  C   UNL     1       3.768   1.700  19.234  0.00  0.00    +0.000 A 
ATOM     23  C   UNL     1       3.509   1.562  17.874  0.00  0.00    +0.000 A 
ATOM     24  C   UNL     1       2.687   2.493  17.258  0.00  0.00    +0.000 A 
ATOM     25  C   UNL     1       2.149   3.565  17.993  0.00  0.00    +0.000 A 
ATOM     26  C   UNL     1       2.348   3.704  19.389  0.00  0.00    +0.000 A 
BRANCH  21  28
ATOM     27  C   UNL     1       2.104   2.256  22.007  0.00  0.00    +0.000 C 
ATOM     28  O   UNL     1       3.307   2.699  21.363  0.00  0.00    +0.000 OA
ENDBRANCH  21  28
ENDBRANCH  19  26
ENDBRANCH  18  19
ENDBRANCH   1  18
BRANCH   1  29
ATOM     29  C   UNL     1       3.355   6.996  17.940  0.00  0.00    +0.000 C 
BRANCH  29  30
ATOM     30  C   UNL     1       4.574   6.165  18.299  0.00  0.00    +0.000 C 
ATOM     31  C   UNL     1       5.353   5.347  17.556  0.00  0.00    +0.000 C 
ATOM     32  C   UNL     1       5.148   4.994  16.110  0.00  0.00    +0.000 C 
ATOM     33  C   UNL     1       6.600   4.731  18.155  0.00  0.00    +0.000 C 
ENDBRANCH  29  30
ENDBRANCH   1  29
TORSDOF 9
ENDMDL
MODEL 9
REMARK VINA RESULT:      -7.5      1.753      3.420
REMARK  Name = 
REMARK  14 active torsions:
REMARK  status: ('A' for Active; 'I' for Inactive)
REMARK    1  A    between atoms: C_1  and  O_2
REMARK    2  A    between atoms: O_2  and  C_3
REMARK    3  A    between atoms: C_8  and  C_9
REMARK    4  A    between atoms: C_9  and  O_11
REMARK    5  A    between atoms: O_11  and  C_12
REMARK    6  A    between atoms: C_12  and  C_13
REMARK    7  A    between atoms: C_12  and  C_18
REMARK    8  A    between atoms: C_13  and  C_14
REMARK    9  A    between atoms: C_15  and  C_16
REMARK   10  A    between atoms: C_15  and  C_17
REMARK   11  A    between atoms: C_23  and  O_24
REMARK   12  A    between atoms: O_24  and  C_25
REMARK   13  A    between atoms: C_28  and  O_29
REMARK   14  A    between atoms: O_29  and  C_30
REMARK                            x       y       z     vdW  Elec       q    Type
REMARK                         _______ _______ _______ _____ _____    ______ ____
ROOT
ATOM      1  C   UNL     1       2.883   6.903  18.017  0.00  0.00    +0.000 C 
ENDROOT
BRANCH   1   2
ATOM      2  C   UNL     1       1.906   7.975  18.534  0.00  0.00    +0.000 C 
ATOM      3  C   UNL     1       1.633   8.922  17.624  0.00  0.00    +0.000 C 
ATOM      4  C   UNL     1       1.791  10.277  18.133  0.00  0.00    +0.000 C 
ATOM      5  O   UNL     1       2.724  10.987  17.815  0.00  0.00    +0.000 OA
ATOM      6  C   UNL     1       0.824  10.600  19.160  0.00  0.00    +0.000 A 
ATOM      7  C   UNL     1       0.072  11.778  19.100  0.00  0.00    +0.000 A 
ATOM      8  C   UNL     1      -0.827  12.011  20.126  0.00  0.00    +0.000 A 
ATOM      9  C   UNL     1      -0.966  11.074  21.148  0.00  0.00    +0.000 A 
ATOM     10  C   UNL     1      -0.211   9.875  21.206  0.00  0.00    +0.000 A 
ATOM     11  C   UNL     1       0.713   9.615  20.178  0.00  0.00    +0.000 A 
ATOM     12  C   UNL     1       1.642   8.404  19.981  0.00  0.00    +0.000 C 
ATOM     13  O   UNL     1       2.131   7.826  20.947  0.00  0.00    +0.000 OA
BRANCH   7  14
ATOM     14  O   UNL     1       0.111  12.766  18.158  0.00  0.00    +0.000 OA
ATOM     15  C   UNL     1       0.427  14.085  18.594  0.00  0.00    +0.000 C 
ENDBRANCH   7  14
BRANCH  10  16
ATOM     16  O   UNL     1      -0.624   9.172  22.293  0.00  0.00    +0.000 OA
ATOM     17  C   UNL     1      -0.253   9.492  23.614  0.00  0.00    +0.000 C 
ENDBRANCH  10  16
ENDBRANCH   1   2
BRANCH   1  18
ATOM     18  O   UNL     1       3.893   7.386  17.014  0.00  0.00    +0.000 OA
BRANCH  18  19
ATOM     19  C   UNL     1       4.944   6.629  16.594  0.00  0.00    +0.000 C 
ATOM     20  O   UNL     1       4.993   6.132  15.479  0.00  0.00    +0.000 OA
BRANCH  19  26
ATOM     21  C   UNL     1       7.194   7.240  17.813  0.00  0.00    +0.000 A 
ATOM     22  C   UNL     1       8.215   6.858  18.724  0.00  0.00    +0.000 A 
ATOM     23  C   UNL     1       8.075   5.736  19.535  0.00  0.00    +0.000 A 
ATOM     24  C   UNL     1       6.950   4.942  19.377  0.00  0.00    +0.000 A 
ATOM     25  C   UNL     1       5.988   5.255  18.400  0.00  0.00    +0.000 A 
ATOM     26  C   UNL     1       6.073   6.419  17.596  0.00  0.00    +0.000 A 
BRANCH  21  28
ATOM     27  C   UNL     1       8.226   9.296  17.870  0.00  0.00    +0.000 C 
ATOM     28  O   UNL     1       7.318   8.440  17.163  0.00  0.00    +0.000 OA
ENDBRANCH  21  28
ENDBRANCH  19  26
ENDBRANCH  18  19
ENDBRANCH   1  18
BRANCH   1  29
ATOM     29  C   UNL     1       2.467   5.430  17.749  0.00  0.00    +0.000 C 
BRANCH  29  30
ATOM     30  C   UNL     1       2.903   4.432  18.807  0.00  0.00    +0.000 C 
ATOM     31  C   UNL     1       2.274   3.955  19.904  0.00  0.00    +0.000 C 
ATOM     32  C   UNL     1       0.921   4.372  20.406  0.00  0.00    +0.000 C 
ATOM     33  C   UNL     1       2.908   2.854  20.728  0.00  0.00    +0.000 C 
ENDBRANCH  29  30
ENDBRANCH   1  29
TORSDOF 9
ENDMDL
