MODEL 1
REMARK VINA RESULT:      -7.4      0.000      0.000
REMARK  Name = 
REMARK  6 active torsions:
REMARK  status: ('A' for Active; 'I' for Inactive)
REMARK    1  A    between atoms: C_1  and  C_2
REMARK    2  A    between atoms: N_5  and  C_6
REMARK    3  A    between atoms: C_6  and  C_7
REMARK    4  A    between atoms: C_7  and  O_8
REMARK    5  A    between atoms: O_8  and  C_9
REMARK    6  A    between atoms: N_12  and  C_13
REMARK                            x       y       z     vdW  Elec       q    Type
REMARK                         _______ _______ _______ _____ _____    ______ ____
ROOT
ATOM      1  C   UNL     1       7.287   7.425  17.864  0.00  0.00    +0.000 A 
ATOM      2  C   UNL     1       8.072   6.531  18.595  0.00  0.00    +0.000 A 
ATOM      3  C   UNL     1       7.200   5.518  18.924  0.00  0.00    +0.000 A 
ATOM      4  N   UNL     1       5.981   5.828  18.352  0.00  0.00    +0.000 N 
ATOM      5  N   UNL     1       6.049   6.988  17.667  0.00  0.00    +0.000 NA
ENDROOT
BRANCH   4   6
ATOM      6  C   UNL     1       4.755   5.117  18.409  0.00  0.00    +0.000 A 
ATOM      7  C   UNL     1       3.544   5.829  18.488  0.00  0.00    +0.000 A 
ATOM      8  C   UNL     1       2.326   5.147  18.511  0.00  0.00    +0.000 A 
ATOM      9  C   UNL     1       2.309   3.747  18.468  0.00  0.00    +0.000 A 
ATOM     10 CL   UNL     1       0.768   2.966  18.473  0.00  0.00    +0.000 Cl
ATOM     11  C   UNL     1       3.513   3.039  18.417  0.00  0.00    +0.000 A 
ATOM     12 CL   UNL     1       3.567   1.310  18.393  0.00  0.00    +0.000 Cl
ATOM     13  C   UNL     1       4.734   3.720  18.382  0.00  0.00    +0.000 A 
ENDBRANCH   4   6
BRANCH   1  14
ATOM     14  O   UNL     1       7.662   8.622  17.367  0.00  0.00    +0.000 OA
BRANCH  14  15
ATOM     15  C   UNL     1       8.585   9.290  18.239  0.00  0.00    +0.000 C 
BRANCH  15  16
ATOM     16  C   UNL     1       8.597  10.789  17.944  0.00  0.00    +0.000 C 
BRANCH  16  21
ATOM     17  C   UNL     1      12.333  13.342  16.637  0.00  0.00    +0.000 C 
ATOM     18  C   UNL     1      11.474  13.047  17.864  0.00  0.00    +0.000 C 
ATOM     19  C   UNL     1      11.550  11.560  18.240  0.00  0.00    +0.000 C 
ATOM     20  C   UNL     1      10.547  11.193  19.339  0.00  0.00    +0.000 C 
ATOM     21  N   UNL     1       9.168  11.606  19.037  0.00  0.00    +0.000 NA
ATOM     22  C   UNL     1       9.132  13.057  18.790  0.00  0.00    +0.000 C 
ATOM     23  C   UNL     1      10.025  13.488  17.627  0.00  0.00    +0.000 C 
ENDBRANCH  16  21
ENDBRANCH  15  16
ENDBRANCH  14  15
ENDBRANCH   1  14
TORSDOF 5
ENDMDL
MODEL 2
REMARK VINA RESULT:      -7.4      5.388      7.849
REMARK  Name = 
REMARK  6 active torsions:
REMARK  status: ('A' for Active; 'I' for Inactive)
REMARK    1  A    between atoms: C_1  and  C_2
REMARK    2  A    between atoms: N_5  and  C_6
REMARK    3  A    between atoms: C_6  and  C_7
REMARK    4  A    between atoms: C_7  and  O_8
REMARK    5  A    between atoms: O_8  and  C_9
REMARK    6  A    between atoms: N_12  and  C_13
REMARK                            x       y       z     vdW  Elec       q    Type
REMARK                         _______ _______ _______ _____ _____    ______ ____
ROOT
ATOM      1  C   UNL     1       2.310   7.189  19.703  0.00  0.00    +0.000 A 
ATOM      2  C   UNL     1       2.325   7.905  18.505  0.00  0.00    +0.000 A 
ATOM      3  C   UNL     1       1.524   8.995  18.762  0.00  0.00    +0.000 A 
ATOM      4  N   UNL     1       1.116   8.899  20.078  0.00  0.00    +0.000 N 
ATOM      5  N   UNL     1       1.634   7.802  20.667  0.00  0.00    +0.000 NA
ENDROOT
BRANCH   4   6
ATOM      6  C   UNL     1       0.267   9.760  20.821  0.00  0.00    +0.000 A 
ATOM      7  C   UNL     1       0.040   9.501  22.185  0.00  0.00    +0.000 A 
ATOM      8  C   UNL     1      -0.765  10.357  22.940  0.00  0.00    +0.000 A 
ATOM      9  C   UNL     1      -1.360  11.472  22.334  0.00  0.00    +0.000 A 
ATOM     10 CL   UNL     1      -2.323  12.504  23.329  0.00  0.00    +0.000 Cl
ATOM     11  C   UNL     1      -1.156  11.713  20.972  0.00  0.00    +0.000 A 
ATOM     12 CL   UNL     1      -1.884  13.050  20.153  0.00  0.00    +0.000 Cl
ATOM     13  C   UNL     1      -0.341  10.864  20.217  0.00  0.00    +0.000 A 
ENDBRANCH   4   6
BRANCH   1  14
ATOM     14  O   UNL     1       2.896   5.998  19.949  0.00  0.00    +0.000 OA
BRANCH  14  15
ATOM     15  C   UNL     1       3.484   5.444  18.764  0.00  0.00    +0.000 C 
BRANCH  15  16
ATOM     16  C   UNL     1       4.929   5.029  19.039  0.00  0.00    +0.000 C 
BRANCH  16  21
ATOM     17  C   UNL     1       7.887   8.486  17.820  0.00  0.00    +0.000 C 
ATOM     18  C   UNL     1       7.427   7.107  17.356  0.00  0.00    +0.000 C 
ATOM     19  C   UNL     1       5.928   7.113  17.023  0.00  0.00    +0.000 C 
ATOM     20  C   UNL     1       5.394   5.703  16.749  0.00  0.00    +0.000 C 
ATOM     21  N   UNL     1       5.708   4.739  17.815  0.00  0.00    +0.000 NA
ATOM     22  C   UNL     1       7.164   4.691  18.022  0.00  0.00    +0.000 C 
ATOM     23  C   UNL     1       7.758   6.044  18.412  0.00  0.00    +0.000 C 
ENDBRANCH  16  21
ENDBRANCH  15  16
ENDBRANCH  14  15
ENDBRANCH   1  14
TORSDOF 5
ENDMDL
MODEL 3
REMARK VINA RESULT:      -7.4      6.688      9.458
REMARK  Name = 
REMARK  6 active torsions:
REMARK  status: ('A' for Active; 'I' for Inactive)
REMARK    1  A    between atoms: C_1  and  C_2
REMARK    2  A    between atoms: N_5  and  C_6
REMARK    3  A    between atoms: C_6  and  C_7
REMARK    4  A    between atoms: C_7  and  O_8
REMARK    5  A    between atoms: O_8  and  C_9
REMARK    6  A    between atoms: N_12  and  C_13
REMARK                            x       y       z     vdW  Elec       q    Type
REMARK                         _______ _______ _______ _____ _____    ______ ____
ROOT
ATOM      1  C   UNL     1       3.142   7.215  18.537  0.00  0.00    +0.000 A 
ATOM      2  C   UNL     1       2.813   7.983  17.419  0.00  0.00    +0.000 A 
ATOM      3  C   UNL     1       1.874   8.871  17.894  0.00  0.00    +0.000 A 
ATOM      4  N   UNL     1       1.726   8.625  19.245  0.00  0.00    +0.000 N 
ATOM      5  N   UNL     1       2.539   7.625  19.646  0.00  0.00    +0.000 NA
ENDROOT
BRANCH   4   6
ATOM      6  C   UNL     1       0.870   9.254  20.185  0.00  0.00    +0.000 A 
ATOM      7  C   UNL     1       0.760   8.725  21.484  0.00  0.00    +0.000 A 
ATOM      8  C   UNL     1      -0.051   9.352  22.433  0.00  0.00    +0.000 A 
ATOM      9  C   UNL     1      -0.768  10.504  22.087  0.00  0.00    +0.000 A 
ATOM     10 CL   UNL     1      -1.732  11.244  23.314  0.00  0.00    +0.000 Cl
ATOM     11  C   UNL     1      -0.680  11.013  20.788  0.00  0.00    +0.000 A 
ATOM     12 CL   UNL     1      -1.561  12.413  20.283  0.00  0.00    +0.000 Cl
ATOM     13  C   UNL     1       0.141  10.395  19.839  0.00  0.00    +0.000 A 
ENDBRANCH   4   6
BRANCH   1  14
ATOM     14  O   UNL     1       3.978   6.156  18.582  0.00  0.00    +0.000 OA
BRANCH  14  15
ATOM     15  C   UNL     1       3.967   5.422  17.350  0.00  0.00    +0.000 C 
BRANCH  15  16
ATOM     16  C   UNL     1       3.874   3.924  17.632  0.00  0.00    +0.000 C 
BRANCH  16  21
ATOM     17  C   UNL     1       1.402   2.732  21.460  0.00  0.00    +0.000 C 
ATOM     18  C   UNL     1       1.303   2.713  19.937  0.00  0.00    +0.000 C 
ATOM     19  C   UNL     1       2.405   1.834  19.328  0.00  0.00    +0.000 C 
ATOM     20  C   UNL     1       2.459   1.953  17.801  0.00  0.00    +0.000 C 
ATOM     21  N   UNL     1       2.548   3.342  17.324  0.00  0.00    +0.000 NA
ATOM     22  C   UNL     1       1.411   4.116  17.848  0.00  0.00    +0.000 C 
ATOM     23  C   UNL     1       1.355   4.139  19.375  0.00  0.00    +0.000 C 
ENDBRANCH  16  21
ENDBRANCH  15  16
ENDBRANCH  14  15
ENDBRANCH   1  14
TORSDOF 5
ENDMDL
MODEL 4
REMARK VINA RESULT:      -7.4      4.335      8.827
REMARK  Name = 
REMARK  6 active torsions:
REMARK  status: ('A' for Active; 'I' for Inactive)
REMARK    1  A    between atoms: C_1  and  C_2
REMARK    2  A    between atoms: N_5  and  C_6
REMARK    3  A    between atoms: C_6  and  C_7
REMARK    4  A    between atoms: C_7  and  O_8
REMARK    5  A    between atoms: O_8  and  C_9
REMARK    6  A    between atoms: N_12  and  C_13
REMARK                            x       y       z     vdW  Elec       q    Type
REMARK                         _______ _______ _______ _____ _____    ______ ____
ROOT
ATOM      1  C   UNL     1       7.302   6.872  17.176  0.00  0.00    +0.000 A 
ATOM      2  C   UNL     1       7.783   6.353  18.379  0.00  0.00    +0.000 A 
ATOM      3  C   UNL     1       8.368   7.437  18.995  0.00  0.00    +0.000 A 
ATOM      4  N   UNL     1       8.174   8.528  18.171  0.00  0.00    +0.000 N 
ATOM      5  N   UNL     1       7.483   8.183  17.065  0.00  0.00    +0.000 NA
ENDROOT
BRANCH   4   6
ATOM      6  C   UNL     1       8.599   9.871  18.343  0.00  0.00    +0.000 A 
ATOM      7  C   UNL     1       8.079  10.875  17.505  0.00  0.00    +0.000 A 
ATOM      8  C   UNL     1       8.459  12.207  17.682  0.00  0.00    +0.000 A 
ATOM      9  C   UNL     1       9.373  12.544  18.689  0.00  0.00    +0.000 A 
ATOM     10 CL   UNL     1       9.782  14.212  18.872  0.00  0.00    +0.000 Cl
ATOM     11  C   UNL     1       9.910  11.543  19.503  0.00  0.00    +0.000 A 
ATOM     12 CL   UNL     1      11.066  11.883  20.744  0.00  0.00    +0.000 Cl
ATOM     13  C   UNL     1       9.522  10.210  19.336  0.00  0.00    +0.000 A 
ENDBRANCH   4   6
BRANCH   1  14
ATOM     14  O   UNL     1       6.700   6.193  16.177  0.00  0.00    +0.000 OA
BRANCH  14  15
ATOM     15  C   UNL     1       6.347   4.863  16.581  0.00  0.00    +0.000 C 
BRANCH  15  16
ATOM     16  C   UNL     1       4.837   4.661  16.465  0.00  0.00    +0.000 C 
BRANCH  16  21
ATOM     17  C   UNL     1       2.281   6.780  19.807  0.00  0.00    +0.000 C 
ATOM     18  C   UNL     1       2.765   5.393  19.390  0.00  0.00    +0.000 C 
ATOM     19  C   UNL     1       4.298   5.319  19.411  0.00  0.00    +0.000 C 
ATOM     20  C   UNL     1       4.820   4.010  18.808  0.00  0.00    +0.000 C 
ATOM     21  N   UNL     1       4.282   3.726  17.469  0.00  0.00    +0.000 NA
ATOM     22  C   UNL     1       2.811   3.701  17.524  0.00  0.00    +0.000 C 
ATOM     23  C   UNL     1       2.209   5.019  18.011  0.00  0.00    +0.000 C 
ENDBRANCH  16  21
ENDBRANCH  15  16
ENDBRANCH  14  15
ENDBRANCH   1  14
TORSDOF 5
ENDMDL
MODEL 5
REMARK VINA RESULT:      -7.4      4.551      9.406
REMARK  Name = 
REMARK  6 active torsions:
REMARK  status: ('A' for Active; 'I' for Inactive)
REMARK    1  A    between atoms: C_1  and  C_2
REMARK    2  A    between atoms: N_5  and  C_6
REMARK    3  A    between atoms: C_6  and  C_7
REMARK    4  A    between atoms: C_7  and  O_8
REMARK    5  A    between atoms: O_8  and  C_9
REMARK    6  A    between atoms: N_12  and  C_13
REMARK                            x       y       z     vdW  Elec       q    Type
REMARK                         _______ _______ _______ _____ _____    ______ ____
ROOT
ATOM      1  C   UNL     1       7.904   6.907  18.493  0.00  0.00    +0.000 A 
ATOM      2  C   UNL     1       7.243   7.416  17.374  0.00  0.00    +0.000 A 
ATOM      3  C   UNL     1       7.616   8.741  17.344  0.00  0.00    +0.000 A 
ATOM      4  N   UNL     1       8.492   8.941  18.393  0.00  0.00    +0.000 N 
ATOM      5  N   UNL     1       8.696   7.797  19.078  0.00  0.00    +0.000 NA
ENDROOT
BRANCH   4   6
ATOM      6  C   UNL     1       9.144  10.132  18.805  0.00  0.00    +0.000 A 
ATOM      7  C   UNL     1       9.272  10.414  20.177  0.00  0.00    +0.000 A 
ATOM      8  C   UNL     1       9.941  11.563  20.601  0.00  0.00    +0.000 A 
ATOM      9  C   UNL     1      10.477  12.448  19.656  0.00  0.00    +0.000 A 
ATOM     10 CL   UNL     1      11.315  13.838  20.247  0.00  0.00    +0.000 Cl
ATOM     11  C   UNL     1      10.325  12.182  18.292  0.00  0.00    +0.000 A 
ATOM     12 CL   UNL     1      10.933  13.245  17.071  0.00  0.00    +0.000 Cl
ATOM     13  C   UNL     1       9.666  11.025  17.865  0.00  0.00    +0.000 A 
ENDBRANCH   4   6
BRANCH   1  14
ATOM     14  O   UNL     1       7.815   5.658  18.995  0.00  0.00    +0.000 OA
BRANCH  14  15
ATOM     15  C   UNL     1       6.940   4.835  18.210  0.00  0.00    +0.000 C 
BRANCH  15  16
ATOM     16  C   UNL     1       5.653   4.550  18.982  0.00  0.00    +0.000 C 
BRANCH  16  21
ATOM     17  C   UNL     1       1.462   2.430  18.624  0.00  0.00    +0.000 C 
ATOM     18  C   UNL     1       2.102   3.810  18.503  0.00  0.00    +0.000 C 
ATOM     19  C   UNL     1       3.142   3.834  17.374  0.00  0.00    +0.000 C 
ATOM     20  C   UNL     1       3.943   5.141  17.357  0.00  0.00    +0.000 C 
ATOM     21  N   UNL     1       4.546   5.476  18.656  0.00  0.00    +0.000 NA
ATOM     22  C   UNL     1       3.494   5.547  19.683  0.00  0.00    +0.000 C 
ATOM     23  C   UNL     1       2.721   4.237  19.839  0.00  0.00    +0.000 C 
ENDBRANCH  16  21
ENDBRANCH  15  16
ENDBRANCH  14  15
ENDBRANCH   1  14
TORSDOF 5
ENDMDL
MODEL 6
REMARK VINA RESULT:      -7.4      5.289      7.702
REMARK  Name = 
REMARK  6 active torsions:
REMARK  status: ('A' for Active; 'I' for Inactive)
REMARK    1  A    between atoms: C_1  and  C_2
REMARK    2  A    between atoms: N_5  and  C_6
REMARK    3  A    between atoms: C_6  and  C_7
REMARK    4  A    between atoms: C_7  and  O_8
REMARK    5  A    between atoms: O_8  and  C_9
REMARK    6  A    between atoms: N_12  and  C_13
REMARK                            x       y       z     vdW  Elec       q    Type
REMARK                         _______ _______ _______ _____ _____    ______ ____
ROOT
ATOM      1  C   UNL     1       2.355   7.375  19.317  0.00  0.00    +0.000 A 
ATOM      2  C   UNL     1       2.513   7.829  18.006  0.00  0.00    +0.000 A 
ATOM      3  C   UNL     1       1.764   8.983  17.964  0.00  0.00    +0.000 A 
ATOM      4  N   UNL     1       1.245   9.179  19.229  0.00  0.00    +0.000 N 
ATOM      5  N   UNL     1       1.643   8.203  20.072  0.00  0.00    +0.000 NA
ENDROOT
BRANCH   4   6
ATOM      6  C   UNL     1       0.395  10.211  19.702  0.00  0.00    +0.000 A 
ATOM      7  C   UNL     1      -0.033  11.217  18.816  0.00  0.00    +0.000 A 
ATOM      8  C   UNL     1      -0.898  12.221  19.256  0.00  0.00    +0.000 A 
ATOM      9  C   UNL     1      -1.330  12.237  20.588  0.00  0.00    +0.000 A 
ATOM     10 CL   UNL     1      -2.419  13.492  21.061  0.00  0.00    +0.000 Cl
ATOM     11  C   UNL     1      -0.882  11.254  21.475  0.00  0.00    +0.000 A 
ATOM     12 CL   UNL     1      -1.351  11.229  23.140  0.00  0.00    +0.000 Cl
ATOM     13  C   UNL     1      -0.026  10.239  21.035  0.00  0.00    +0.000 A 
ENDBRANCH   4   6
BRANCH   1  14
ATOM     14  O   UNL     1       2.842   6.235  19.850  0.00  0.00    +0.000 OA
BRANCH  14  15
ATOM     15  C   UNL     1       3.462   5.409  18.854  0.00  0.00    +0.000 C 
BRANCH  15  16
ATOM     16  C   UNL     1       4.940   5.205  19.186  0.00  0.00    +0.000 C 
BRANCH  16  21
ATOM     17  C   UNL     1       7.981   8.539  17.837  0.00  0.00    +0.000 C 
ATOM     18  C   UNL     1       7.525   7.132  17.458  0.00  0.00    +0.000 C 
ATOM     19  C   UNL     1       6.041   7.125  17.064  0.00  0.00    +0.000 C 
ATOM     20  C   UNL     1       5.503   5.702  16.873  0.00  0.00    +0.000 C 
ATOM     21  N   UNL     1       5.764   4.818  18.020  0.00  0.00    +0.000 NA
ATOM     22  C   UNL     1       7.211   4.775  18.289  0.00  0.00    +0.000 C 
ATOM     23  C   UNL     1       7.802   6.149  18.602  0.00  0.00    +0.000 C 
ENDBRANCH  16  21
ENDBRANCH  15  16
ENDBRANCH  14  15
ENDBRANCH   1  14
TORSDOF 5
ENDMDL
MODEL 7
REMARK VINA RESULT:      -7.4      4.555      9.304
REMARK  Name = 
REMARK  6 active torsions:
REMARK  status: ('A' for Active; 'I' for Inactive)
REMARK    1  A    between atoms: C_1  and  C_2
REMARK    2  A    between atoms: N_5  and  C_6
REMARK    3  A    between atoms: C_6  and  C_7
REMARK    4  A    between atoms: C_7  and  O_8
REMARK    5  A    between atoms: O_8  and  C_9
REMARK    6  A    between atoms: N_12  and  C_13
REMARK                            x       y       z     vdW  Elec       q    Type
REMARK                         _______ _______ _______ _____ _____    ______ ____
ROOT
ATOM      1  C   UNL     1       7.909   6.993  18.437  0.00  0.00    +0.000 A 
ATOM      2  C   UNL     1       7.189   7.535  17.371  0.00  0.00    +0.000 A 
ATOM      3  C   UNL     1       7.562   8.860  17.360  0.00  0.00    +0.000 A 
ATOM      4  N   UNL     1       8.493   9.029  18.366  0.00  0.00    +0.000 N 
ATOM      5  N   UNL     1       8.732   7.865  19.005  0.00  0.00    +0.000 NA
ENDROOT
BRANCH   4   6
ATOM      6  C   UNL     1       9.169  10.207  18.777  0.00  0.00    +0.000 A 
ATOM      7  C   UNL     1       9.289  10.494  20.149  0.00  0.00    +0.000 A 
ATOM      8  C   UNL     1       9.980  11.631  20.573  0.00  0.00    +0.000 A 
ATOM      9  C   UNL     1      10.546  12.497  19.628  0.00  0.00    +0.000 A 
ATOM     10 CL   UNL     1      11.409  13.871  20.219  0.00  0.00    +0.000 Cl
ATOM     11  C   UNL     1      10.403  12.226  18.264  0.00  0.00    +0.000 A 
ATOM     12 CL   UNL     1      11.048  13.267  17.043  0.00  0.00    +0.000 Cl
ATOM     13  C   UNL     1       9.721  11.082  17.837  0.00  0.00    +0.000 A 
ENDBRANCH   4   6
BRANCH   1  14
ATOM     14  O   UNL     1       7.844   5.729  18.907  0.00  0.00    +0.000 OA
BRANCH  14  15
ATOM     15  C   UNL     1       7.613   4.785  17.851  0.00  0.00    +0.000 C 
BRANCH  15  16
ATOM     16  C   UNL     1       6.137   4.391  17.814  0.00  0.00    +0.000 C 
BRANCH  16  21
ATOM     17  C   UNL     1       1.435   4.189  17.627  0.00  0.00    +0.000 C 
ATOM     18  C   UNL     1       2.575   4.258  18.639  0.00  0.00    +0.000 C 
ATOM     19  C   UNL     1       3.378   5.556  18.472  0.00  0.00    +0.000 C 
ATOM     20  C   UNL     1       4.645   5.564  19.334  0.00  0.00    +0.000 C 
ATOM     21  N   UNL     1       5.491   4.376  19.145  0.00  0.00    +0.000 NA
ATOM     22  C   UNL     1       4.704   3.163  19.422  0.00  0.00    +0.000 C 
ATOM     23  C   UNL     1       3.479   3.025  18.518  0.00  0.00    +0.000 C 
ENDBRANCH  16  21
ENDBRANCH  15  16
ENDBRANCH  14  15
ENDBRANCH   1  14
TORSDOF 5
ENDMDL
MODEL 8
REMARK VINA RESULT:      -7.3      0.920      1.532
REMARK  Name = 
REMARK  6 active torsions:
REMARK  status: ('A' for Active; 'I' for Inactive)
REMARK    1  A    between atoms: C_1  and  C_2
REMARK    2  A    between atoms: N_5  and  C_6
REMARK    3  A    between atoms: C_6  and  C_7
REMARK    4  A    between atoms: C_7  and  O_8
REMARK    5  A    between atoms: O_8  and  C_9
REMARK    6  A    between atoms: N_12  and  C_13
REMARK                            x       y       z     vdW  Elec       q    Type
REMARK                         _______ _______ _______ _____ _____    ______ ____
ROOT
ATOM      1  C   UNL     1       7.382   6.992  17.801  0.00  0.00    +0.000 A 
ATOM      2  C   UNL     1       8.116   6.217  18.701  0.00  0.00    +0.000 A 
ATOM      3  C   UNL     1       7.202   5.299  19.168  0.00  0.00    +0.000 A 
ATOM      4  N   UNL     1       6.012   5.538  18.509  0.00  0.00    +0.000 N 
ATOM      5  N   UNL     1       6.138   6.560  17.638  0.00  0.00    +0.000 NA
ENDROOT
BRANCH   4   6
ATOM      6  C   UNL     1       4.762   4.880  18.644  0.00  0.00    +0.000 A 
ATOM      7  C   UNL     1       4.527   3.686  17.937  0.00  0.00    +0.000 A 
ATOM      8  C   UNL     1       3.316   3.007  18.085  0.00  0.00    +0.000 A 
ATOM      9  C   UNL     1       2.325   3.522  18.931  0.00  0.00    +0.000 A 
ATOM     10 CL   UNL     1       0.861   2.620  19.088  0.00  0.00    +0.000 Cl
ATOM     11  C   UNL     1       2.549   4.722  19.612  0.00  0.00    +0.000 A 
ATOM     12 CL   UNL     1       1.359   5.431  20.647  0.00  0.00    +0.000 Cl
ATOM     13  C   UNL     1       3.765   5.398  19.475  0.00  0.00    +0.000 A 
ENDBRANCH   4   6
BRANCH   1  14
ATOM     14  O   UNL     1       7.810   8.075  17.119  0.00  0.00    +0.000 OA
BRANCH  14  15
ATOM     15  C   UNL     1       7.720   9.267  17.913  0.00  0.00    +0.000 C 
BRANCH  15  16
ATOM     16  C   UNL     1       9.035  10.042  17.847  0.00  0.00    +0.000 C 
BRANCH  16  21
ATOM     17  C   UNL     1      12.323  13.242  16.778  0.00  0.00    +0.000 C 
ATOM     18  C   UNL     1      11.273  12.937  17.843  0.00  0.00    +0.000 C 
ATOM     19  C   UNL     1      11.577  11.607  18.548  0.00  0.00    +0.000 C 
ATOM     20  C   UNL     1      10.439  11.174  19.478  0.00  0.00    +0.000 C 
ATOM     21  N   UNL     1       9.122  11.151  18.822  0.00  0.00    +0.000 NA
ATOM     22  C   UNL     1       8.831  12.479  18.257  0.00  0.00    +0.000 C 
ATOM     23  C   UNL     1       9.867  12.932  17.230  0.00  0.00    +0.000 C 
ENDBRANCH  16  21
ENDBRANCH  15  16
ENDBRANCH  14  15
ENDBRANCH   1  14
TORSDOF 5
ENDMDL
MODEL 9
REMARK VINA RESULT:      -7.3      4.707      7.024
REMARK  Name = 
REMARK  6 active torsions:
REMARK  status: ('A' for Active; 'I' for Inactive)
REMARK    1  A    between atoms: C_1  and  C_2
REMARK    2  A    between atoms: N_5  and  C_6
REMARK    3  A    between atoms: C_6  and  C_7
REMARK    4  A    between atoms: C_7  and  O_8
REMARK    5  A    between atoms: O_8  and  C_9
REMARK    6  A    between atoms: N_12  and  C_13
REMARK                            x       y       z     vdW  Elec       q    Type
REMARK                         _______ _______ _______ _____ _____    ______ ____
ROOT
ATOM      1  C   UNL     1       2.565   4.905  19.248  0.00  0.00    +0.000 A 
ATOM      2  C   UNL     1       2.083   4.843  20.557  0.00  0.00    +0.000 A 
ATOM      3  C   UNL     1       1.689   6.134  20.826  0.00  0.00    +0.000 A 
ATOM      4  N   UNL     1       1.910   6.874  19.681  0.00  0.00    +0.000 N 
ATOM      5  N   UNL     1       2.417   6.103  18.696  0.00  0.00    +0.000 NA
ENDROOT
BRANCH   4   6
ATOM      6  C   UNL     1       1.688   8.256  19.446  0.00  0.00    +0.000 A 
ATOM      7  C   UNL     1       2.096   8.827  18.227  0.00  0.00    +0.000 A 
ATOM      8  C   UNL     1       1.854  10.177  17.965  0.00  0.00    +0.000 A 
ATOM      9  C   UNL     1       1.214  10.970  18.926  0.00  0.00    +0.000 A 
ATOM     10 CL   UNL     1       0.922  12.626  18.530  0.00  0.00    +0.000 Cl
ATOM     11  C   UNL     1       0.834  10.410  20.149  0.00  0.00    +0.000 A 
ATOM     12 CL   UNL     1       0.068  11.337  21.391  0.00  0.00    +0.000 Cl
ATOM     13  C   UNL     1       1.063   9.055  20.409  0.00  0.00    +0.000 A 
ENDBRANCH   4   6
BRANCH   1  14
ATOM     14  O   UNL     1       3.131   3.907  18.538  0.00  0.00    +0.000 OA
BRANCH  14  15
ATOM     15  C   UNL     1       4.367   3.477  19.126  0.00  0.00    +0.000 C 
BRANCH  15  16
ATOM     16  C   UNL     1       5.426   4.569  18.980  0.00  0.00    +0.000 C 
BRANCH  16  21
ATOM     17  C   UNL     1       7.647   8.556  17.815  0.00  0.00    +0.000 C 
ATOM     18  C   UNL     1       7.451   7.125  17.321  0.00  0.00    +0.000 C 
ATOM     19  C   UNL     1       5.973   6.852  17.007  0.00  0.00    +0.000 C 
ATOM     20  C   UNL     1       5.714   5.372  16.703  0.00  0.00    +0.000 C 
ATOM     21  N   UNL     1       6.225   4.462  17.739  0.00  0.00    +0.000 NA
ATOM     22  C   UNL     1       7.667   4.689  17.926  0.00  0.00    +0.000 C 
ATOM     23  C   UNL     1       7.997   6.122  18.344  0.00  0.00    +0.000 C 
ENDBRANCH  16  21
ENDBRANCH  15  16
ENDBRANCH  14  15
ENDBRANCH   1  14
TORSDOF 5
ENDMDL
