MODEL 1
REMARK VINA RESULT:      -7.7      0.000      0.000
REMARK  Name = 
REMARK  3 active torsions:
REMARK  status: ('A' for Active; 'I' for Inactive)
REMARK    1  A    between atoms: C_7  and  C_8
REMARK    2  A    between atoms: N_14  and  C_15
REMARK    3  A    between atoms: C_15  and  C_16
REMARK                            x       y       z     vdW  Elec       q    Type
REMARK                         _______ _______ _______ _____ _____    ______ ____
ROOT
ATOM      1  C   UNL     1       4.759   4.635  19.255  0.00  0.00    +0.000 A 
ATOM      2  N   UNL     1       5.693   4.229  20.143  0.00  0.00    +0.000 NA
ATOM      3  O   UNL     1       6.860   4.915  19.842  0.00  0.00    +0.000 OA
ATOM      4  C   UNL     1       6.625   5.697  18.777  0.00  0.00    +0.000 A 
ATOM      5  C   UNL     1       5.345   5.531  18.317  0.00  0.00    +0.000 A 
ATOM      6  C   UNL     1       4.832   6.272  17.131  0.00  0.00    +0.000 C 
ATOM      7  N   UNL     1       5.941   6.876  16.339  0.00  0.00    +0.000 NA
ATOM      8  C   UNL     1       6.925   7.549  17.237  0.00  0.00    +0.000 C 
ATOM      9  C   UNL     1       7.654   6.596  18.224  0.00  0.00    +0.000 C 
ENDROOT
BRANCH   1  16
ATOM     10  F   UNL     1       3.538   2.787  17.418  0.00  0.00    +0.000 F 
ATOM     11  C   UNL     1       2.826   3.252  18.453  0.00  0.00    +0.000 A 
ATOM     12  C   UNL     1       1.504   2.825  18.554  0.00  0.00    +0.000 A 
ATOM     13  C   UNL     1       0.691   3.315  19.573  0.00  0.00    +0.000 A 
ATOM     14  C   UNL     1       1.209   4.228  20.485  0.00  0.00    +0.000 A 
ATOM     15  C   UNL     1       2.543   4.646  20.386  0.00  0.00    +0.000 A 
ATOM     16  C   UNL     1       3.379   4.157  19.367  0.00  0.00    +0.000 A 
ENDBRANCH   1  16
BRANCH   7  17
ATOM     17  C   UNL     1       6.615   5.926  15.445  0.00  0.00    +0.000 C 
BRANCH  17  18
ATOM     18  C   UNL     1       5.667   4.911  14.879  0.00  0.00    +0.000 C 
ATOM     19  C   UNL     1       6.157   3.969  13.806  0.00  0.00    +0.000 C 
ATOM     20  C   UNL     1       5.847   3.441  15.176  0.00  0.00    +0.000 C 
ENDBRANCH  17  18
ENDBRANCH   7  17
TORSDOF 3
ENDMDL
MODEL 2
REMARK VINA RESULT:      -7.6      1.293      1.710
REMARK  Name = 
REMARK  3 active torsions:
REMARK  status: ('A' for Active; 'I' for Inactive)
REMARK    1  A    between atoms: C_7  and  C_8
REMARK    2  A    between atoms: N_14  and  C_15
REMARK    3  A    between atoms: C_15  and  C_16
REMARK                            x       y       z     vdW  Elec       q    Type
REMARK                         _______ _______ _______ _____ _____    ______ ____
ROOT
ATOM      1  C   UNL     1       4.587   3.942  18.601  0.00  0.00    +0.000 A 
ATOM      2  N   UNL     1       5.619   3.820  19.465  0.00  0.00    +0.000 NA
ATOM      3  O   UNL     1       6.748   4.295  18.816  0.00  0.00    +0.000 OA
ATOM      4  C   UNL     1       6.392   4.673  17.578  0.00  0.00    +0.000 A 
ATOM      5  C   UNL     1       5.064   4.427  17.350  0.00  0.00    +0.000 A 
ATOM      6  C   UNL     1       4.418   4.738  16.044  0.00  0.00    +0.000 C 
ATOM      7  N   UNL     1       5.428   4.971  14.973  0.00  0.00    +0.000 NA
ATOM      8  C   UNL     1       6.523   5.858  15.464  0.00  0.00    +0.000 C 
ATOM      9  C   UNL     1       7.356   5.268  16.635  0.00  0.00    +0.000 C 
ENDROOT
BRANCH   1  16
ATOM     10  F   UNL     1       3.069   1.735  17.554  0.00  0.00    +0.000 F 
ATOM     11  C   UNL     1       2.526   2.519  18.493  0.00  0.00    +0.000 A 
ATOM     12  C   UNL     1       1.221   2.226  18.885  0.00  0.00    +0.000 A 
ATOM     13  C   UNL     1       0.575   3.037  19.815  0.00  0.00    +0.000 A 
ATOM     14  C   UNL     1       1.242   4.135  20.348  0.00  0.00    +0.000 A 
ATOM     15  C   UNL     1       2.557   4.419  19.959  0.00  0.00    +0.000 A 
ATOM     16  C   UNL     1       3.226   3.608  19.026  0.00  0.00    +0.000 A 
ENDBRANCH   1  16
BRANCH   7  17
ATOM     17  C   UNL     1       5.977   3.735  14.400  0.00  0.00    +0.000 C 
BRANCH  17  18
ATOM     18  C   UNL     1       6.135   3.824  12.911  0.00  0.00    +0.000 C 
ATOM     19  C   UNL     1       6.286   2.551  12.113  0.00  0.00    +0.000 C 
ATOM     20  C   UNL     1       5.030   3.362  11.991  0.00  0.00    +0.000 C 
ENDBRANCH  17  18
ENDBRANCH   7  17
TORSDOF 3
ENDMDL
MODEL 3
REMARK VINA RESULT:      -7.5      3.126      5.591
REMARK  Name = 
REMARK  3 active torsions:
REMARK  status: ('A' for Active; 'I' for Inactive)
REMARK    1  A    between atoms: C_7  and  C_8
REMARK    2  A    between atoms: N_14  and  C_15
REMARK    3  A    between atoms: C_15  and  C_16
REMARK                            x       y       z     vdW  Elec       q    Type
REMARK                         _______ _______ _______ _____ _____    ______ ____
ROOT
ATOM      1  C   UNL     1       3.277   6.241  18.409  0.00  0.00    +0.000 A 
ATOM      2  N   UNL     1       4.627   6.266  18.344  0.00  0.00    +0.000 NA
ATOM      3  O   UNL     1       5.039   4.991  17.990  0.00  0.00    +0.000 OA
ATOM      4  C   UNL     1       3.948   4.216  17.870  0.00  0.00    +0.000 A 
ATOM      5  C   UNL     1       2.811   4.916  18.175  0.00  0.00    +0.000 A 
ATOM      6  C   UNL     1       1.463   4.283  18.137  0.00  0.00    +0.000 C 
ATOM      7  N   UNL     1       1.555   2.796  18.106  0.00  0.00    +0.000 NA
ATOM      8  C   UNL     1       2.587   2.351  17.123  0.00  0.00    +0.000 C 
ATOM      9  C   UNL     1       4.035   2.804  17.459  0.00  0.00    +0.000 C 
ENDROOT
BRANCH   1  16
ATOM     10  F   UNL     1       1.812   6.748  20.832  0.00  0.00    +0.000 F 
ATOM     11  C   UNL     1       1.834   7.679  19.870  0.00  0.00    +0.000 A 
ATOM     12  C   UNL     1       1.102   8.842  20.100  0.00  0.00    +0.000 A 
ATOM     13  C   UNL     1       1.033   9.826  19.116  0.00  0.00    +0.000 A 
ATOM     14  C   UNL     1       1.701   9.638  17.910  0.00  0.00    +0.000 A 
ATOM     15  C   UNL     1       2.444   8.472  17.689  0.00  0.00    +0.000 A 
ATOM     16  C   UNL     1       2.528   7.471  18.672  0.00  0.00    +0.000 A 
ENDBRANCH   1  16
BRANCH   7  17
ATOM     17  C   UNL     1       1.795   2.191  19.423  0.00  0.00    +0.000 C 
BRANCH  17  18
ATOM     18  C   UNL     1       1.296   3.055  20.542  0.00  0.00    +0.000 C 
ATOM     19  C   UNL     1       1.302   2.508  21.949  0.00  0.00    +0.000 C 
ATOM     20  C   UNL     1       2.253   3.606  21.574  0.00  0.00    +0.000 C 
ENDBRANCH  17  18
ENDBRANCH   7  17
TORSDOF 3
ENDMDL
MODEL 4
REMARK VINA RESULT:      -7.5      1.045      1.492
REMARK  Name = 
REMARK  3 active torsions:
REMARK  status: ('A' for Active; 'I' for Inactive)
REMARK    1  A    between atoms: C_7  and  C_8
REMARK    2  A    between atoms: N_14  and  C_15
REMARK    3  A    between atoms: C_15  and  C_16
REMARK                            x       y       z     vdW  Elec       q    Type
REMARK                         _______ _______ _______ _____ _____    ______ ____
ROOT
ATOM      1  C   UNL     1       4.639   4.490  19.145  0.00  0.00    +0.000 A 
ATOM      2  N   UNL     1       5.557   4.101  20.057  0.00  0.00    +0.000 NA
ATOM      3  O   UNL     1       6.708   4.833  19.809  0.00  0.00    +0.000 OA
ATOM      4  C   UNL     1       6.480   5.628  18.751  0.00  0.00    +0.000 A 
ATOM      5  C   UNL     1       5.223   5.425  18.245  0.00  0.00    +0.000 A 
ATOM      6  C   UNL     1       4.723   6.171  17.056  0.00  0.00    +0.000 C 
ATOM      7  N   UNL     1       5.835   6.830  16.314  0.00  0.00    +0.000 NA
ATOM      8  C   UNL     1       6.764   7.519  17.257  0.00  0.00    +0.000 C 
ATOM      9  C   UNL     1       7.493   6.573  18.251  0.00  0.00    +0.000 C 
ENDROOT
BRANCH   1  16
ATOM     10  F   UNL     1       2.604   5.469  20.928  0.00  0.00    +0.000 F 
ATOM     11  C   UNL     1       2.312   4.473  20.081  0.00  0.00    +0.000 A 
ATOM     12  C   UNL     1       1.024   3.945  20.146  0.00  0.00    +0.000 A 
ATOM     13  C   UNL     1       0.673   2.869  19.335  0.00  0.00    +0.000 A 
ATOM     14  C   UNL     1       1.614   2.330  18.463  0.00  0.00    +0.000 A 
ATOM     15  C   UNL     1       2.904   2.872  18.394  0.00  0.00    +0.000 A 
ATOM     16  C   UNL     1       3.274   3.961  19.202  0.00  0.00    +0.000 A 
ENDBRANCH   1  16
BRANCH   7  17
ATOM     17  C   UNL     1       6.573   5.922  15.426  0.00  0.00    +0.000 C 
BRANCH  17  18
ATOM     18  C   UNL     1       5.686   4.871  14.827  0.00  0.00    +0.000 C 
ATOM     19  C   UNL     1       6.255   3.939  13.785  0.00  0.00    +0.000 C 
ATOM     20  C   UNL     1       5.903   3.410  15.144  0.00  0.00    +0.000 C 
ENDBRANCH  17  18
ENDBRANCH   7  17
TORSDOF 3
ENDMDL
MODEL 5
REMARK VINA RESULT:      -7.3      1.563      2.172
REMARK  Name = 
REMARK  3 active torsions:
REMARK  status: ('A' for Active; 'I' for Inactive)
REMARK    1  A    between atoms: C_7  and  C_8
REMARK    2  A    between atoms: N_14  and  C_15
REMARK    3  A    between atoms: C_15  and  C_16
REMARK                            x       y       z     vdW  Elec       q    Type
REMARK                         _______ _______ _______ _____ _____    ______ ____
ROOT
ATOM      1  C   UNL     1       4.613   3.974  18.590  0.00  0.00    +0.000 A 
ATOM      2  N   UNL     1       5.642   3.839  19.456  0.00  0.00    +0.000 NA
ATOM      3  O   UNL     1       6.777   4.302  18.809  0.00  0.00    +0.000 OA
ATOM      4  C   UNL     1       6.428   4.685  17.571  0.00  0.00    +0.000 A 
ATOM      5  C   UNL     1       5.097   4.455  17.341  0.00  0.00    +0.000 A 
ATOM      6  C   UNL     1       4.457   4.775  16.034  0.00  0.00    +0.000 C 
ATOM      7  N   UNL     1       5.471   4.998  14.965  0.00  0.00    +0.000 NA
ATOM      8  C   UNL     1       6.576   5.872  15.459  0.00  0.00    +0.000 C 
ATOM      9  C   UNL     1       7.400   5.270  16.630  0.00  0.00    +0.000 C 
ENDROOT
BRANCH   1  16
ATOM     10  F   UNL     1       2.966   5.722  20.174  0.00  0.00    +0.000 F 
ATOM     11  C   UNL     1       2.478   4.539  19.778  0.00  0.00    +0.000 A 
ATOM     12  C   UNL     1       1.189   4.214  20.197  0.00  0.00    +0.000 A 
ATOM     13  C   UNL     1       0.644   2.975  19.870  0.00  0.00    +0.000 A 
ATOM     14  C   UNL     1       1.392   2.071  19.123  0.00  0.00    +0.000 A 
ATOM     15  C   UNL     1       2.683   2.407  18.696  0.00  0.00    +0.000 A 
ATOM     16  C   UNL     1       3.247   3.655  19.012  0.00  0.00    +0.000 A 
ENDBRANCH   1  16
BRANCH   7  17
ATOM     17  C   UNL     1       6.007   3.757  14.391  0.00  0.00    +0.000 C 
BRANCH  17  18
ATOM     18  C   UNL     1       6.147   3.837  12.900  0.00  0.00    +0.000 C 
ATOM     19  C   UNL     1       6.275   2.560  12.106  0.00  0.00    +0.000 C 
ATOM     20  C   UNL     1       5.026   3.383  11.996  0.00  0.00    +0.000 C 
ENDBRANCH  17  18
ENDBRANCH   7  17
TORSDOF 3
ENDMDL
MODEL 6
REMARK VINA RESULT:      -7.2      2.186      3.446
REMARK  Name = 
REMARK  3 active torsions:
REMARK  status: ('A' for Active; 'I' for Inactive)
REMARK    1  A    between atoms: C_7  and  C_8
REMARK    2  A    between atoms: N_14  and  C_15
REMARK    3  A    between atoms: C_15  and  C_16
REMARK                            x       y       z     vdW  Elec       q    Type
REMARK                         _______ _______ _______ _____ _____    ______ ____
ROOT
ATOM      1  C   UNL     1       3.763   3.756  18.140  0.00  0.00    +0.000 A 
ATOM      2  N   UNL     1       3.330   3.393  16.912  0.00  0.00    +0.000 NA
ATOM      3  O   UNL     1       4.362   3.660  16.026  0.00  0.00    +0.000 OA
ATOM      4  C   UNL     1       5.382   4.194  16.716  0.00  0.00    +0.000 A 
ATOM      5  C   UNL     1       5.058   4.339  18.040  0.00  0.00    +0.000 A 
ATOM      6  C   UNL     1       6.010   4.926  19.023  0.00  0.00    +0.000 C 
ATOM      7  N   UNL     1       7.130   5.639  18.346  0.00  0.00    +0.000 NA
ATOM      8  C   UNL     1       7.671   4.823  17.220  0.00  0.00    +0.000 C 
ATOM      9  C   UNL     1       6.658   4.554  16.073  0.00  0.00    +0.000 C 
ENDROOT
BRANCH   1  16
ATOM     10  F   UNL     1       4.593   2.188  20.405  0.00  0.00    +0.000 F 
ATOM     11  C   UNL     1       3.376   2.746  20.402  0.00  0.00    +0.000 A 
ATOM     12  C   UNL     1       2.564   2.496  21.507  0.00  0.00    +0.000 A 
ATOM     13  C   UNL     1       1.265   2.998  21.542  0.00  0.00    +0.000 A 
ATOM     14  C   UNL     1       0.789   3.748  20.471  0.00  0.00    +0.000 A 
ATOM     15  C   UNL     1       1.614   4.005  19.368  0.00  0.00    +0.000 A 
ATOM     16  C   UNL     1       2.929   3.511  19.318  0.00  0.00    +0.000 A 
ENDBRANCH   1  16
BRANCH   7  17
ATOM     17  C   UNL     1       6.780   6.990  17.890  0.00  0.00    +0.000 C 
BRANCH  17  18
ATOM     18  C   UNL     1       7.994   7.824  17.605  0.00  0.00    +0.000 C 
ATOM     19  C   UNL     1       7.871   9.328  17.628  0.00  0.00    +0.000 C 
ATOM     20  C   UNL     1       8.650   8.628  18.702  0.00  0.00    +0.000 C 
ENDBRANCH  17  18
ENDBRANCH   7  17
TORSDOF 3
ENDMDL
MODEL 7
REMARK VINA RESULT:      -7.1      3.166      5.534
REMARK  Name = 
REMARK  3 active torsions:
REMARK  status: ('A' for Active; 'I' for Inactive)
REMARK    1  A    between atoms: C_7  and  C_8
REMARK    2  A    between atoms: N_14  and  C_15
REMARK    3  A    between atoms: C_15  and  C_16
REMARK                            x       y       z     vdW  Elec       q    Type
REMARK                         _______ _______ _______ _____ _____    ______ ____
ROOT
ATOM      1  C   UNL     1       3.137   6.245  18.787  0.00  0.00    +0.000 A 
ATOM      2  N   UNL     1       4.487   6.299  18.812  0.00  0.00    +0.000 NA
ATOM      3  O   UNL     1       4.949   5.057  18.405  0.00  0.00    +0.000 OA
ATOM      4  C   UNL     1       3.886   4.272  18.165  0.00  0.00    +0.000 A 
ATOM      5  C   UNL     1       2.716   4.930  18.439  0.00  0.00    +0.000 A 
ATOM      6  C   UNL     1       1.388   4.276  18.273  0.00  0.00    +0.000 C 
ATOM      7  N   UNL     1       1.515   2.796  18.153  0.00  0.00    +0.000 NA
ATOM      8  C   UNL     1       2.617   2.435  17.214  0.00  0.00    +0.000 C 
ATOM      9  C   UNL     1       4.030   2.891  17.671  0.00  0.00    +0.000 C 
ENDROOT
BRANCH   1  16
ATOM     10  F   UNL     1       2.708   8.388  16.916  0.00  0.00    +0.000 F 
ATOM     11  C   UNL     1       2.157   8.459  18.135  0.00  0.00    +0.000 A 
ATOM     12  C   UNL     1       1.424   9.606  18.432  0.00  0.00    +0.000 A 
ATOM     13  C   UNL     1       0.873   9.770  19.700  0.00  0.00    +0.000 A 
ATOM     14  C   UNL     1       1.058   8.783  20.662  0.00  0.00    +0.000 A 
ATOM     15  C   UNL     1       1.787   7.626  20.355  0.00  0.00    +0.000 A 
ATOM     16  C   UNL     1       2.345   7.442  19.078  0.00  0.00    +0.000 A 
ENDBRANCH   1  16
BRANCH   7  17
ATOM     17  C   UNL     1       1.683   2.111  19.441  0.00  0.00    +0.000 C 
BRANCH  17  18
ATOM     18  C   UNL     1       1.225   2.954  20.595  0.00  0.00    +0.000 C 
ATOM     19  C   UNL     1       1.309   2.391  21.993  0.00  0.00    +0.000 C 
ATOM     20  C   UNL     1       2.221   3.510  21.585  0.00  0.00    +0.000 C 
ENDBRANCH  17  18
ENDBRANCH   7  17
TORSDOF 3
ENDMDL
MODEL 8
REMARK VINA RESULT:      -7.0      2.166      3.435
REMARK  Name = 
REMARK  3 active torsions:
REMARK  status: ('A' for Active; 'I' for Inactive)
REMARK    1  A    between atoms: C_7  and  C_8
REMARK    2  A    between atoms: N_14  and  C_15
REMARK    3  A    between atoms: C_15  and  C_16
REMARK                            x       y       z     vdW  Elec       q    Type
REMARK                         _______ _______ _______ _____ _____    ______ ____
ROOT
ATOM      1  C   UNL     1       3.810   3.704  18.059  0.00  0.00    +0.000 A 
ATOM      2  N   UNL     1       3.450   3.318  16.816  0.00  0.00    +0.000 NA
ATOM      3  O   UNL     1       4.518   3.602  15.979  0.00  0.00    +0.000 OA
ATOM      4  C   UNL     1       5.488   4.170  16.714  0.00  0.00    +0.000 A 
ATOM      5  C   UNL     1       5.093   4.320  18.018  0.00  0.00    +0.000 A 
ATOM      6  C   UNL     1       5.979   4.941  19.042  0.00  0.00    +0.000 C 
ATOM      7  N   UNL     1       7.113   5.676  18.414  0.00  0.00    +0.000 NA
ATOM      8  C   UNL     1       7.731   4.864  17.326  0.00  0.00    +0.000 C 
ATOM      9  C   UNL     1       6.785   4.557  16.132  0.00  0.00    +0.000 C 
ENDROOT
BRANCH   1  16
ATOM     10  F   UNL     1       1.052   4.513  18.165  0.00  0.00    +0.000 F 
ATOM     11  C   UNL     1       1.584   3.856  19.203  0.00  0.00    +0.000 A 
ATOM     12  C   UNL     1       0.756   3.632  20.301  0.00  0.00    +0.000 A 
ATOM     13  C   UNL     1       1.262   3.005  21.437  0.00  0.00    +0.000 A 
ATOM     14  C   UNL     1       2.594   2.606  21.464  0.00  0.00    +0.000 A 
ATOM     15  C   UNL     1       3.419   2.823  20.353  0.00  0.00    +0.000 A 
ATOM     16  C   UNL     1       2.923   3.449  19.197  0.00  0.00    +0.000 A 
ENDBRANCH   1  16
BRANCH   7  17
ATOM     17  C   UNL     1       6.752   7.013  17.925  0.00  0.00    +0.000 C 
BRANCH  17  18
ATOM     18  C   UNL     1       7.959   7.848  17.616  0.00  0.00    +0.000 C 
ATOM     19  C   UNL     1       7.833   9.352  17.628  0.00  0.00    +0.000 C 
ATOM     20  C   UNL     1       8.629   8.663  18.697  0.00  0.00    +0.000 C 
ENDBRANCH  17  18
ENDBRANCH   7  17
TORSDOF 3
ENDMDL
MODEL 9
REMARK VINA RESULT:      -7.0      2.016      3.022
REMARK  Name = 
REMARK  3 active torsions:
REMARK  status: ('A' for Active; 'I' for Inactive)
REMARK    1  A    between atoms: C_7  and  C_8
REMARK    2  A    between atoms: N_14  and  C_15
REMARK    3  A    between atoms: C_15  and  C_16
REMARK                            x       y       z     vdW  Elec       q    Type
REMARK                         _______ _______ _______ _____ _____    ______ ____
ROOT
ATOM      1  C   UNL     1       3.248   5.495  18.339  0.00  0.00    +0.000 A 
ATOM      2  N   UNL     1       2.992   6.822  18.341  0.00  0.00    +0.000 NA
ATOM      3  O   UNL     1       3.725   7.376  17.303  0.00  0.00    +0.000 OA
ATOM      4  C   UNL     1       4.422   6.393  16.710  0.00  0.00    +0.000 A 
ATOM      5  C   UNL     1       4.219   5.195  17.343  0.00  0.00    +0.000 A 
ATOM      6  C   UNL     1       4.892   3.944  16.894  0.00  0.00    +0.000 C 
ATOM      7  N   UNL     1       6.032   4.232  15.978  0.00  0.00    +0.000 NA
ATOM      8  C   UNL     1       5.644   5.247  14.955  0.00  0.00    +0.000 C 
ATOM      9  C   UNL     1       5.277   6.640  15.536  0.00  0.00    +0.000 C 
ENDROOT
BRANCH   1  16
ATOM     10  F   UNL     1       1.023   3.827  17.602  0.00  0.00    +0.000 F 
ATOM     11  C   UNL     1       1.470   3.807  18.865  0.00  0.00    +0.000 A 
ATOM     12  C   UNL     1       0.791   2.986  19.763  0.00  0.00    +0.000 A 
ATOM     13  C   UNL     1       1.167   2.962  21.104  0.00  0.00    +0.000 A 
ATOM     14  C   UNL     1       2.222   3.759  21.535  0.00  0.00    +0.000 A 
ATOM     15  C   UNL     1       2.908   4.575  20.626  0.00  0.00    +0.000 A 
ATOM     16  C   UNL     1       2.545   4.607  19.268  0.00  0.00    +0.000 A 
ENDBRANCH   1  16
BRANCH   7  17
ATOM     17  C   UNL     1       7.261   4.635  16.672  0.00  0.00    +0.000 C 
BRANCH  17  18
ATOM     18  C   UNL     1       7.036   4.861  18.138  0.00  0.00    +0.000 C 
ATOM     19  C   UNL     1       8.230   5.023  19.046  0.00  0.00    +0.000 C 
ATOM     20  C   UNL     1       7.344   6.200  18.766  0.00  0.00    +0.000 C 
ENDBRANCH  17  18
ENDBRANCH   7  17
TORSDOF 3
ENDMDL
