MODEL 1
REMARK VINA RESULT:      -8.1      0.000      0.000
REMARK  Name = 
REMARK  6 active torsions:
REMARK  status: ('A' for Active; 'I' for Inactive)
REMARK    1  A    between atoms: C_1  and  C_2
REMARK    2  A    between atoms: C_2  and  C_3
REMARK    3  A    between atoms: C_3  and  C_4
REMARK    4  A    between atoms: C_4  and  C_5
REMARK    5  A    between atoms: C_5  and  C_6
REMARK    6  A    between atoms: C_13  and  C_14
REMARK                            x       y       z     vdW  Elec       q    Type
REMARK                         _______ _______ _______ _____ _____    ______ ____
ROOT
ATOM      1  C   UNL     1       5.907   5.515  18.156  0.00  0.00    +0.000 A 
ATOM      2  C   UNL     1       6.656   6.567  18.530  0.00  0.00    +0.000 A 
ATOM      3  C   UNL     1       7.610   7.223  17.628  0.00  0.00    +0.000 A 
ATOM      4  O   UNL     1       8.268   8.181  18.018  0.00  0.00    +0.000 OA
ATOM      5  O   UNL     1       7.711   6.719  16.374  0.00  0.00    +0.000 OA
ATOM      6  C   UNL     1       6.943   5.606  15.955  0.00  0.00    +0.000 A 
ATOM      7  N   UNL     1       7.188   5.228  14.656  0.00  0.00    +0.000 NA
ATOM      8  C   UNL     1       6.498   4.250  14.171  0.00  0.00    +0.000 A 
ATOM      9  N   UNL     1       5.557   3.584  14.901  0.00  0.00    +0.000 N 
ATOM     10  C   UNL     1       5.346   3.829  16.227  0.00  0.00    +0.000 A 
ATOM     11  O   UNL     1       4.621   3.085  16.876  0.00  0.00    +0.000 OA
ATOM     12  C   UNL     1       6.073   5.007  16.793  0.00  0.00    +0.000 A 
ATOM     13  H   UNL     1       5.071   2.786  14.510  0.00  0.00    +0.000 HD
ENDROOT
BRANCH   8  14
ATOM     14  C   UNL     1       6.692   3.762  12.746  0.00  0.00    +0.000 C 
ATOM     15  F   UNL     1       5.494   3.653  12.105  0.00  0.00    +0.000 F 
ATOM     16  F   UNL     1       7.415   4.658  12.019  0.00  0.00    +0.000 F 
ENDBRANCH   8  14
BRANCH   1  17
ATOM     17  C   UNL     1       4.934   4.852  19.115  0.00  0.00    +0.000 C 
BRANCH  17  18
ATOM     18  C   UNL     1       3.644   5.631  19.423  0.00  0.00    +0.000 C 
BRANCH  18  19
ATOM     19  C   UNL     1       2.566   4.768  20.089  0.00  0.00    +0.000 C 
BRANCH  19  21
ATOM     20  C   UNL     1       1.590   4.434  17.738  0.00  0.00    +0.000 C 
ATOM     21  C   UNL     1       1.798   3.879  19.127  0.00  0.00    +0.000 C 
ATOM     22  C   UNL     1       0.762   2.922  19.684  0.00  0.00    +0.000 C 
ATOM     23  C   UNL     1       2.082   2.393  19.212  0.00  0.00    +0.000 C 
ENDBRANCH  19  21
ENDBRANCH  18  19
ENDBRANCH  17  18
ENDBRANCH   1  17
TORSDOF 5
ENDMDL
MODEL 2
REMARK VINA RESULT:      -7.9      3.075      4.263
REMARK  Name = 
REMARK  6 active torsions:
REMARK  status: ('A' for Active; 'I' for Inactive)
REMARK    1  A    between atoms: C_1  and  C_2
REMARK    2  A    between atoms: C_2  and  C_3
REMARK    3  A    between atoms: C_3  and  C_4
REMARK    4  A    between atoms: C_4  and  C_5
REMARK    5  A    between atoms: C_5  and  C_6
REMARK    6  A    between atoms: C_13  and  C_14
REMARK                            x       y       z     vdW  Elec       q    Type
REMARK                         _______ _______ _______ _____ _____    ______ ____
ROOT
ATOM      1  C   UNL     1       5.187   3.916  16.416  0.00  0.00    +0.000 A 
ATOM      2  C   UNL     1       5.363   3.483  15.155  0.00  0.00    +0.000 A 
ATOM      3  C   UNL     1       6.292   4.124  14.217  0.00  0.00    +0.000 A 
ATOM      4  O   UNL     1       6.416   3.689  13.078  0.00  0.00    +0.000 OA
ATOM      5  O   UNL     1       6.984   5.195  14.678  0.00  0.00    +0.000 OA
ATOM      6  C   UNL     1       6.814   5.679  15.998  0.00  0.00    +0.000 A 
ATOM      7  N   UNL     1       7.590   6.777  16.284  0.00  0.00    +0.000 NA
ATOM      8  C   UNL     1       7.536   7.260  17.480  0.00  0.00    +0.000 A 
ATOM      9  N   UNL     1       6.736   6.729  18.450  0.00  0.00    +0.000 N 
ATOM     10  C   UNL     1       5.856   5.715  18.203  0.00  0.00    +0.000 A 
ATOM     11  O   UNL     1       5.038   5.398  19.057  0.00  0.00    +0.000 OA
ATOM     12  C   UNL     1       5.954   5.086  16.850  0.00  0.00    +0.000 A 
ATOM     13  H   UNL     1       6.675   7.164  19.363  0.00  0.00    +0.000 HD
ENDROOT
BRANCH   8  14
ATOM     14  C   UNL     1       8.358   8.468  17.894  0.00  0.00    +0.000 C 
ATOM     15  F   UNL     1       7.579   9.585  17.955  0.00  0.00    +0.000 F 
ATOM     16  F   UNL     1       8.865   8.307  19.146  0.00  0.00    +0.000 F 
ENDBRANCH   8  14
BRANCH   1  17
ATOM     17  C   UNL     1       4.213   3.235  17.361  0.00  0.00    +0.000 C 
BRANCH  17  18
ATOM     18  C   UNL     1       2.718   3.436  17.057  0.00  0.00    +0.000 C 
BRANCH  18  19
ATOM     19  C   UNL     1       2.009   4.316  18.093  0.00  0.00    +0.000 C 
BRANCH  19  21
ATOM     20  C   UNL     1       0.717   2.257  18.921  0.00  0.00    +0.000 C 
ATOM     21  C   UNL     1       1.422   3.548  19.264  0.00  0.00    +0.000 C 
ATOM     22  C   UNL     1       0.961   4.318  20.487  0.00  0.00    +0.000 C 
ATOM     23  C   UNL     1       2.240   3.538  20.540  0.00  0.00    +0.000 C 
ENDBRANCH  19  21
ENDBRANCH  18  19
ENDBRANCH  17  18
ENDBRANCH   1  17
TORSDOF 5
ENDMDL
MODEL 3
REMARK VINA RESULT:      -7.7      0.737      1.139
REMARK  Name = 
REMARK  6 active torsions:
REMARK  status: ('A' for Active; 'I' for Inactive)
REMARK    1  A    between atoms: C_1  and  C_2
REMARK    2  A    between atoms: C_2  and  C_3
REMARK    3  A    between atoms: C_3  and  C_4
REMARK    4  A    between atoms: C_4  and  C_5
REMARK    5  A    between atoms: C_5  and  C_6
REMARK    6  A    between atoms: C_13  and  C_14
REMARK                            x       y       z     vdW  Elec       q    Type
REMARK                         _______ _______ _______ _____ _____    ______ ____
ROOT
ATOM      1  C   UNL     1       6.035   5.186  18.278  0.00  0.00    +0.000 A 
ATOM      2  C   UNL     1       6.808   6.156  18.797  0.00  0.00    +0.000 A 
ATOM      3  C   UNL     1       7.750   6.939  17.989  0.00  0.00    +0.000 A 
ATOM      4  O   UNL     1       8.431   7.814  18.512  0.00  0.00    +0.000 OA
ATOM      5  O   UNL     1       7.815   6.644  16.668  0.00  0.00    +0.000 OA
ATOM      6  C   UNL     1       7.021   5.621  16.094  0.00  0.00    +0.000 A 
ATOM      7  N   UNL     1       7.229   5.457  14.745  0.00  0.00    +0.000 NA
ATOM      8  C   UNL     1       6.514   4.578  14.126  0.00  0.00    +0.000 A 
ATOM      9  N   UNL     1       5.581   3.812  14.762  0.00  0.00    +0.000 N 
ATOM     10  C   UNL     1       5.405   3.841  16.116  0.00  0.00    +0.000 A 
ATOM     11  O   UNL     1       4.685   3.009  16.654  0.00  0.00    +0.000 OA
ATOM     12  C   UNL     1       6.162   4.904  16.846  0.00  0.00    +0.000 A 
ATOM     13  H   UNL     1       5.074   3.093  14.260  0.00  0.00    +0.000 HD
ENDROOT
BRANCH   8  14
ATOM     14  C   UNL     1       6.668   4.326  12.636  0.00  0.00    +0.000 C 
ATOM     15  F   UNL     1       7.823   4.879  12.170  0.00  0.00    +0.000 F 
ATOM     16  F   UNL     1       6.768   2.994  12.376  0.00  0.00    +0.000 F 
ENDBRANCH   8  14
BRANCH   1  17
ATOM     17  C   UNL     1       5.075   4.387  19.141  0.00  0.00    +0.000 C 
BRANCH  17  18
ATOM     18  C   UNL     1       3.814   5.125  19.621  0.00  0.00    +0.000 C 
BRANCH  18  19
ATOM     19  C   UNL     1       2.520   4.535  19.051  0.00  0.00    +0.000 C 
BRANCH  19  21
ATOM     20  C   UNL     1       2.294   1.979  18.959  0.00  0.00    +0.000 C 
ATOM     21  C   UNL     1       2.067   3.255  19.733  0.00  0.00    +0.000 C 
ATOM     22  C   UNL     1       0.899   3.315  20.699  0.00  0.00    +0.000 C 
ATOM     23  C   UNL     1       2.294   3.174  21.229  0.00  0.00    +0.000 C 
ENDBRANCH  19  21
ENDBRANCH  18  19
ENDBRANCH  17  18
ENDBRANCH   1  17
TORSDOF 5
ENDMDL
MODEL 4
REMARK VINA RESULT:      -7.7      3.075      4.282
REMARK  Name = 
REMARK  6 active torsions:
REMARK  status: ('A' for Active; 'I' for Inactive)
REMARK    1  A    between atoms: C_1  and  C_2
REMARK    2  A    between atoms: C_2  and  C_3
REMARK    3  A    between atoms: C_3  and  C_4
REMARK    4  A    between atoms: C_4  and  C_5
REMARK    5  A    between atoms: C_5  and  C_6
REMARK    6  A    between atoms: C_13  and  C_14
REMARK                            x       y       z     vdW  Elec       q    Type
REMARK                         _______ _______ _______ _____ _____    ______ ____
ROOT
ATOM      1  C   UNL     1       5.056   3.903  16.615  0.00  0.00    +0.000 A 
ATOM      2  C   UNL     1       5.137   3.483  15.340  0.00  0.00    +0.000 A 
ATOM      3  C   UNL     1       6.001   4.129  14.345  0.00  0.00    +0.000 A 
ATOM      4  O   UNL     1       6.040   3.706  13.195  0.00  0.00    +0.000 OA
ATOM      5  O   UNL     1       6.733   5.189  14.767  0.00  0.00    +0.000 OA
ATOM      6  C   UNL     1       6.661   5.659  16.101  0.00  0.00    +0.000 A 
ATOM      7  N   UNL     1       7.464   6.748  16.343  0.00  0.00    +0.000 NA
ATOM      8  C   UNL     1       7.500   7.218  17.545  0.00  0.00    +0.000 A 
ATOM      9  N   UNL     1       6.768   6.681  18.563  0.00  0.00    +0.000 N 
ATOM     10  C   UNL     1       5.864   5.677  18.369  0.00  0.00    +0.000 A 
ATOM     11  O   UNL     1       5.107   5.355  19.277  0.00  0.00    +0.000 OA
ATOM     12  C   UNL     1       5.861   5.062  17.006  0.00  0.00    +0.000 A 
ATOM     13  H   UNL     1       6.775   7.106  19.483  0.00  0.00    +0.000 HD
ENDROOT
BRANCH   8  14
ATOM     14  C   UNL     1       8.359   8.416  17.911  0.00  0.00    +0.000 C 
ATOM     15  F   UNL     1       7.608   9.552  17.958  0.00  0.00    +0.000 F 
ATOM     16  F   UNL     1       8.886   8.274  19.158  0.00  0.00    +0.000 F 
ENDBRANCH   8  14
BRANCH   1  17
ATOM     17  C   UNL     1       4.146   3.218  17.620  0.00  0.00    +0.000 C 
BRANCH  17  18
ATOM     18  C   UNL     1       2.667   3.643  17.599  0.00  0.00    +0.000 C 
BRANCH  18  19
ATOM     19  C   UNL     1       1.826   2.939  18.669  0.00  0.00    +0.000 C 
BRANCH  19  21
ATOM     20  C   UNL     1       1.803   5.080  20.086  0.00  0.00    +0.000 C 
ATOM     21  C   UNL     1       1.911   3.574  20.046  0.00  0.00    +0.000 C 
ATOM     22  C   UNL     1       2.724   2.881  21.123  0.00  0.00    +0.000 C 
ATOM     23  C   UNL     1       1.227   2.830  21.174  0.00  0.00    +0.000 C 
ENDBRANCH  19  21
ENDBRANCH  18  19
ENDBRANCH  17  18
ENDBRANCH   1  17
TORSDOF 5
ENDMDL
MODEL 5
REMARK VINA RESULT:      -7.6      4.249      6.169
REMARK  Name = 
REMARK  6 active torsions:
REMARK  status: ('A' for Active; 'I' for Inactive)
REMARK    1  A    between atoms: C_1  and  C_2
REMARK    2  A    between atoms: C_2  and  C_3
REMARK    3  A    between atoms: C_3  and  C_4
REMARK    4  A    between atoms: C_4  and  C_5
REMARK    5  A    between atoms: C_5  and  C_6
REMARK    6  A    between atoms: C_13  and  C_14
REMARK                            x       y       z     vdW  Elec       q    Type
REMARK                         _______ _______ _______ _____ _____    ______ ____
ROOT
ATOM      1  C   UNL     1       4.325   5.550  16.849  0.00  0.00    +0.000 A 
ATOM      2  C   UNL     1       4.051   6.867  16.878  0.00  0.00    +0.000 A 
ATOM      3  C   UNL     1       3.185   7.476  17.893  0.00  0.00    +0.000 A 
ATOM      4  O   UNL     1       2.969   8.683  17.876  0.00  0.00    +0.000 OA
ATOM      5  O   UNL     1       2.656   6.645  18.824  0.00  0.00    +0.000 OA
ATOM      6  C   UNL     1       2.917   5.253  18.814  0.00  0.00    +0.000 A 
ATOM      7  N   UNL     1       2.287   4.569  19.826  0.00  0.00    +0.000 NA
ATOM      8  C   UNL     1       2.505   3.300  19.925  0.00  0.00    +0.000 A 
ATOM      9  N   UNL     1       3.320   2.627  19.061  0.00  0.00    +0.000 N 
ATOM     10  C   UNL     1       3.882   3.220  17.967  0.00  0.00    +0.000 A 
ATOM     11  O   UNL     1       4.455   2.534  17.130  0.00  0.00    +0.000 OA
ATOM     12  C   UNL     1       3.711   4.703  17.874  0.00  0.00    +0.000 A 
ATOM     13  H   UNL     1       3.428   1.622  19.131  0.00  0.00    +0.000 HD
ENDROOT
BRANCH   8  14
ATOM     14  C   UNL     1       1.859   2.459  21.011  0.00  0.00    +0.000 C 
ATOM     15  F   UNL     1       2.725   2.256  22.045  0.00  0.00    +0.000 F 
ATOM     16  F   UNL     1       0.788   3.101  21.552  0.00  0.00    +0.000 F 
ENDBRANCH   8  14
BRANCH   1  17
ATOM     17  C   UNL     1       5.220   4.948  15.781  0.00  0.00    +0.000 C 
BRANCH  17  18
ATOM     18  C   UNL     1       6.710   5.321  15.852  0.00  0.00    +0.000 C 
BRANCH  18  19
ATOM     19  C   UNL     1       7.396   4.811  17.124  0.00  0.00    +0.000 C 
BRANCH  19  21
ATOM     20  C   UNL     1       7.632   7.291  17.743  0.00  0.00    +0.000 C 
ATOM     21  C   UNL     1       7.546   5.859  18.213  0.00  0.00    +0.000 C 
ATOM     22  C   UNL     1       8.248   5.479  19.503  0.00  0.00    +0.000 C 
ATOM     23  C   UNL     1       6.757   5.624  19.485  0.00  0.00    +0.000 C 
ENDBRANCH  19  21
ENDBRANCH  18  19
ENDBRANCH  17  18
ENDBRANCH   1  17
TORSDOF 5
ENDMDL
MODEL 6
REMARK VINA RESULT:      -7.5      0.939      1.368
REMARK  Name = 
REMARK  6 active torsions:
REMARK  status: ('A' for Active; 'I' for Inactive)
REMARK    1  A    between atoms: C_1  and  C_2
REMARK    2  A    between atoms: C_2  and  C_3
REMARK    3  A    between atoms: C_3  and  C_4
REMARK    4  A    between atoms: C_4  and  C_5
REMARK    5  A    between atoms: C_5  and  C_6
REMARK    6  A    between atoms: C_13  and  C_14
REMARK                            x       y       z     vdW  Elec       q    Type
REMARK                         _______ _______ _______ _____ _____    ______ ____
ROOT
ATOM      1  C   UNL     1       5.422   5.927  17.719  0.00  0.00    +0.000 A 
ATOM      2  C   UNL     1       6.283   6.822  18.237  0.00  0.00    +0.000 A 
ATOM      3  C   UNL     1       7.516   7.225  17.553  0.00  0.00    +0.000 A 
ATOM      4  O   UNL     1       8.267   8.047  18.068  0.00  0.00    +0.000 OA
ATOM      5  O   UNL     1       7.765   6.651  16.351  0.00  0.00    +0.000 OA
ATOM      6  C   UNL     1       6.883   5.698  15.784  0.00  0.00    +0.000 A 
ATOM      7  N   UNL     1       7.303   5.217  14.567  0.00  0.00    +0.000 NA
ATOM      8  C   UNL     1       6.538   4.378  13.952  0.00  0.00    +0.000 A 
ATOM      9  N   UNL     1       5.349   3.954  14.471  0.00  0.00    +0.000 N 
ATOM     10  C   UNL     1       4.928   4.300  15.722  0.00  0.00    +0.000 A 
ATOM     11  O   UNL     1       3.946   3.752  16.208  0.00  0.00    +0.000 OA
ATOM     12  C   UNL     1       5.754   5.331  16.423  0.00  0.00    +0.000 A 
ATOM     13  H   UNL     1       4.798   3.253  13.990  0.00  0.00    +0.000 HD
ENDROOT
BRANCH   8  14
ATOM     14  C   UNL     1       6.914   3.793  12.602  0.00  0.00    +0.000 C 
ATOM     15  F   UNL     1       5.799   3.425  11.908  0.00  0.00    +0.000 F 
ATOM     16  F   UNL     1       7.539   4.720  11.826  0.00  0.00    +0.000 F 
ENDBRANCH   8  14
BRANCH   1  17
ATOM     17  C   UNL     1       4.157   5.524  18.455  0.00  0.00    +0.000 C 
BRANCH  17  18
ATOM     18  C   UNL     1       4.325   4.497  19.587  0.00  0.00    +0.000 C 
BRANCH  18  19
ATOM     19  C   UNL     1       3.327   3.337  19.498  0.00  0.00    +0.000 C 
BRANCH  19  21
ATOM     20  C   UNL     1       2.366   2.660  21.780  0.00  0.00    +0.000 C 
ATOM     21  C   UNL     1       2.182   3.425  20.492  0.00  0.00    +0.000 C 
ATOM     22  C   UNL     1       0.772   3.626  19.968  0.00  0.00    +0.000 C 
ATOM     23  C   UNL     1       1.496   4.770  20.611  0.00  0.00    +0.000 C 
ENDBRANCH  19  21
ENDBRANCH  18  19
ENDBRANCH  17  18
ENDBRANCH   1  17
TORSDOF 5
ENDMDL
MODEL 7
REMARK VINA RESULT:      -7.5      2.275      2.995
REMARK  Name = 
REMARK  6 active torsions:
REMARK  status: ('A' for Active; 'I' for Inactive)
REMARK    1  A    between atoms: C_1  and  C_2
REMARK    2  A    between atoms: C_2  and  C_3
REMARK    3  A    between atoms: C_3  and  C_4
REMARK    4  A    between atoms: C_4  and  C_5
REMARK    5  A    between atoms: C_5  and  C_6
REMARK    6  A    between atoms: C_13  and  C_14
REMARK                            x       y       z     vdW  Elec       q    Type
REMARK                         _______ _______ _______ _____ _____    ______ ____
ROOT
ATOM      1  C   UNL     1       3.344   6.062  19.189  0.00  0.00    +0.000 A 
ATOM      2  C   UNL     1       2.679   7.198  18.915  0.00  0.00    +0.000 A 
ATOM      3  C   UNL     1       2.861   7.943  17.664  0.00  0.00    +0.000 A 
ATOM      4  O   UNL     1       2.228   8.973  17.462  0.00  0.00    +0.000 OA
ATOM      5  O   UNL     1       3.746   7.433  16.772  0.00  0.00    +0.000 OA
ATOM      6  C   UNL     1       4.468   6.244  17.037  0.00  0.00    +0.000 A 
ATOM      7  N   UNL     1       5.326   5.886  16.024  0.00  0.00    +0.000 NA
ATOM      8  C   UNL     1       5.992   4.788  16.157  0.00  0.00    +0.000 A 
ATOM      9  N   UNL     1       5.882   3.992  17.259  0.00  0.00    +0.000 N 
ATOM     10  C   UNL     1       5.140   4.345  18.350  0.00  0.00    +0.000 A 
ATOM     11  O   UNL     1       5.217   3.685  19.379  0.00  0.00    +0.000 OA
ATOM     12  C   UNL     1       4.296   5.570  18.191  0.00  0.00    +0.000 A 
ATOM     13  H   UNL     1       6.459   3.165  17.359  0.00  0.00    +0.000 HD
ENDROOT
BRANCH   8  14
ATOM     14  C   UNL     1       6.961   4.306  15.091  0.00  0.00    +0.000 C 
ATOM     15  F   UNL     1       6.327   3.506  14.188  0.00  0.00    +0.000 F 
ATOM     16  F   UNL     1       7.453   5.352  14.371  0.00  0.00    +0.000 F 
ENDBRANCH   8  14
BRANCH   1  17
ATOM     17  C   UNL     1       3.139   5.318  20.497  0.00  0.00    +0.000 C 
BRANCH  17  18
ATOM     18  C   UNL     1       1.686   5.179  20.982  0.00  0.00    +0.000 C 
BRANCH  18  19
ATOM     19  C   UNL     1       0.817   4.339  20.040  0.00  0.00    +0.000 C 
BRANCH  19  21
ATOM     20  C   UNL     1       1.816   2.204  21.056  0.00  0.00    +0.000 C 
ATOM     21  C   UNL     1       1.322   2.923  19.824  0.00  0.00    +0.000 C 
ATOM     22  C   UNL     1       1.932   2.560  18.483  0.00  0.00    +0.000 C 
ATOM     23  C   UNL     1       0.554   2.080  18.826  0.00  0.00    +0.000 C 
ENDBRANCH  19  21
ENDBRANCH  18  19
ENDBRANCH  17  18
ENDBRANCH   1  17
TORSDOF 5
ENDMDL
MODEL 8
REMARK VINA RESULT:      -7.4      3.837      6.239
REMARK  Name = 
REMARK  6 active torsions:
REMARK  status: ('A' for Active; 'I' for Inactive)
REMARK    1  A    between atoms: C_1  and  C_2
REMARK    2  A    between atoms: C_2  and  C_3
REMARK    3  A    between atoms: C_3  and  C_4
REMARK    4  A    between atoms: C_4  and  C_5
REMARK    5  A    between atoms: C_5  and  C_6
REMARK    6  A    between atoms: C_13  and  C_14
REMARK                            x       y       z     vdW  Elec       q    Type
REMARK                         _______ _______ _______ _____ _____    ______ ____
ROOT
ATOM      1  C   UNL     1       5.708   5.126  16.986  0.00  0.00    +0.000 A 
ATOM      2  C   UNL     1       6.816   5.672  17.519  0.00  0.00    +0.000 A 
ATOM      3  C   UNL     1       7.116   5.618  18.954  0.00  0.00    +0.000 A 
ATOM      4  O   UNL     1       8.141   6.130  19.389  0.00  0.00    +0.000 OA
ATOM      5  O   UNL     1       6.214   4.985  19.744  0.00  0.00    +0.000 OA
ATOM      6  C   UNL     1       5.034   4.410  19.213  0.00  0.00    +0.000 A 
ATOM      7  N   UNL     1       4.235   3.821  20.164  0.00  0.00    +0.000 NA
ATOM      8  C   UNL     1       3.159   3.228  19.767  0.00  0.00    +0.000 A 
ATOM      9  N   UNL     1       2.791   3.180  18.453  0.00  0.00    +0.000 N 
ATOM     10  C   UNL     1       3.475   3.842  17.474  0.00  0.00    +0.000 A 
ATOM     11  O   UNL     1       3.003   3.914  16.345  0.00  0.00    +0.000 OA
ATOM     12  C   UNL     1       4.766   4.468  17.894  0.00  0.00    +0.000 A 
ATOM     13  H   UNL     1       1.913   2.755  18.179  0.00  0.00    +0.000 HD
ENDROOT
BRANCH   8  14
ATOM     14  C   UNL     1       2.214   2.546  20.741  0.00  0.00    +0.000 C 
ATOM     15  F   UNL     1       2.711   2.593  22.009  0.00  0.00    +0.000 F 
ATOM     16  F   UNL     1       1.018   3.192  20.792  0.00  0.00    +0.000 F 
ENDBRANCH   8  14
BRANCH   1  17
ATOM     17  C   UNL     1       5.422   5.204  15.497  0.00  0.00    +0.000 C 
BRANCH  17  18
ATOM     18  C   UNL     1       6.457   4.546  14.569  0.00  0.00    +0.000 C 
BRANCH  18  19
ATOM     19  C   UNL     1       5.915   3.308  13.847  0.00  0.00    +0.000 C 
BRANCH  19  21
ATOM     20  C   UNL     1       7.076   4.244  11.758  0.00  0.00    +0.000 C 
ATOM     21  C   UNL     1       5.964   3.400  12.332  0.00  0.00    +0.000 C 
ATOM     22  C   UNL     1       4.669   3.283  11.549  0.00  0.00    +0.000 C 
ATOM     23  C   UNL     1       5.630   2.133  11.570  0.00  0.00    +0.000 C 
ENDBRANCH  19  21
ENDBRANCH  18  19
ENDBRANCH  17  18
ENDBRANCH   1  17
TORSDOF 5
ENDMDL
MODEL 9
REMARK VINA RESULT:      -7.3      3.761      6.204
REMARK  Name = 
REMARK  6 active torsions:
REMARK  status: ('A' for Active; 'I' for Inactive)
REMARK    1  A    between atoms: C_1  and  C_2
REMARK    2  A    between atoms: C_2  and  C_3
REMARK    3  A    between atoms: C_3  and  C_4
REMARK    4  A    between atoms: C_4  and  C_5
REMARK    5  A    between atoms: C_5  and  C_6
REMARK    6  A    between atoms: C_13  and  C_14
REMARK                            x       y       z     vdW  Elec       q    Type
REMARK                         _______ _______ _______ _____ _____    ______ ____
ROOT
ATOM      1  C   UNL     1       6.093   4.282  17.152  0.00  0.00    +0.000 A 
ATOM      2  C   UNL     1       7.199   4.920  17.576  0.00  0.00    +0.000 A 
ATOM      3  C   UNL     1       7.249   5.669  18.837  0.00  0.00    +0.000 A 
ATOM      4  O   UNL     1       8.284   6.232  19.178  0.00  0.00    +0.000 OA
ATOM      5  O   UNL     1       6.115   5.695  19.578  0.00  0.00    +0.000 OA
ATOM      6  C   UNL     1       4.933   5.042  19.154  0.00  0.00    +0.000 A 
ATOM      7  N   UNL     1       3.882   5.187  20.028  0.00  0.00    +0.000 NA
ATOM      8  C   UNL     1       2.775   4.584  19.747  0.00  0.00    +0.000 A 
ATOM      9  N   UNL     1       2.616   3.830  18.621  0.00  0.00    +0.000 N 
ATOM     10  C   UNL     1       3.577   3.740  17.655  0.00  0.00    +0.000 A 
ATOM     11  O   UNL     1       3.318   3.199  16.587  0.00  0.00    +0.000 OA
ATOM     12  C   UNL     1       4.895   4.360  17.992  0.00  0.00    +0.000 A 
ATOM     13  H   UNL     1       1.719   3.415  18.400  0.00  0.00    +0.000 HD
ENDROOT
BRANCH   8  14
ATOM     14  C   UNL     1       1.558   4.681  20.652  0.00  0.00    +0.000 C 
ATOM     15  F   UNL     1       1.176   5.979  20.809  0.00  0.00    +0.000 F 
ATOM     16  F   UNL     1       0.488   4.049  20.097  0.00  0.00    +0.000 F 
ENDBRANCH   8  14
BRANCH   1  17
ATOM     17  C   UNL     1       6.069   3.522  15.838  0.00  0.00    +0.000 C 
BRANCH  17  18
ATOM     18  C   UNL     1       6.058   4.375  14.558  0.00  0.00    +0.000 C 
BRANCH  18  19
ATOM     19  C   UNL     1       5.050   3.878  13.516  0.00  0.00    +0.000 C 
BRANCH  19  21
ATOM     20  C   UNL     1       7.041   4.089  11.909  0.00  0.00    +0.000 C 
ATOM     21  C   UNL     1       5.667   3.522  12.174  0.00  0.00    +0.000 C 
ATOM     22  C   UNL     1       4.751   3.266  10.992  0.00  0.00    +0.000 C 
ATOM     23  C   UNL     1       5.423   2.113  11.674  0.00  0.00    +0.000 C 
ENDBRANCH  19  21
ENDBRANCH  18  19
ENDBRANCH  17  18
ENDBRANCH   1  17
TORSDOF 5
ENDMDL
