MODEL 1
REMARK VINA RESULT:      -7.6      0.000      0.000
REMARK  Name = 
REMARK  6 active torsions:
REMARK  status: ('A' for Active; 'I' for Inactive)
REMARK    1  A    between atoms: C_1  and  C_2
REMARK    2  A    between atoms: C_2  and  C_3
REMARK    3  A    between atoms: C_5  and  C_6
REMARK    4  A    between atoms: C_14  and  N_15
REMARK    5  A    between atoms: C_16  and  C_18
REMARK    6  A    between atoms: C_22  and  C_23
REMARK                            x       y       z     vdW  Elec       q    Type
REMARK                         _______ _______ _______ _____ _____    ______ ____
ROOT
ATOM      1  C   UNL     1       2.653   7.412  18.245  0.00  0.00    +0.000 A 
ATOM      2  C   UNL     1       4.012   7.648  17.945  0.00  0.00    +0.000 A 
ATOM      3  C   UNL     1       4.863   6.607  17.553  0.00  0.00    +0.000 A 
ATOM      4  C   UNL     1       4.343   5.326  17.476  0.00  0.00    +0.000 A 
ATOM      5  C   UNL     1       2.996   5.080  17.760  0.00  0.00    +0.000 A 
ATOM      6  C   UNL     1       2.143   6.107  18.137  0.00  0.00    +0.000 A 
ATOM      7  C   UNL     1       2.670   3.631  17.577  0.00  0.00    +0.000 C 
ATOM      8  C   UNL     1       4.068   2.998  17.645  0.00  0.00    +0.000 C 
ATOM      9  C   UNL     1       5.064   4.056  17.122  0.00  0.00    +0.000 C 
ENDROOT
BRANCH   1  12
ATOM     10  C   UNL     1       0.633   9.709  19.961  0.00  0.00    +0.000 A 
ATOM     11  N   UNL     1       1.325   8.594  19.984  0.00  0.00    +0.000 NA
ATOM     12  C   UNL     1       1.784   8.499  18.685  0.00  0.00    +0.000 A 
ATOM     13  N   UNL     1       1.377   9.507  17.894  0.00  0.00    +0.000 NA
ATOM     14  O   UNL     1       0.615  10.310  18.739  0.00  0.00    +0.000 OA
BRANCH  10  16
ATOM     15  C   UNL     1       0.173   9.710  22.391  0.00  0.00    +0.000 C 
ATOM     16  C   UNL     1      -0.076  10.401  21.061  0.00  0.00    +0.000 C 
ENDBRANCH  10  16
ENDBRANCH   1  12
BRANCH   9  17
ATOM     17  N   UNL     1       5.293   3.946  15.702  0.00  0.00    +0.000 N 
ATOM     18  C   UNL     1       6.505   4.289  15.140  0.00  0.00    +0.000 C 
ATOM     19  O   UNL     1       7.427   4.745  15.814  0.00  0.00    +0.000 OA
ATOM     20  H   UNL     1       4.594   3.510  15.111  0.00  0.00    +0.000 HD
BRANCH  18  21
ATOM     21  C   UNL     1       6.600   4.060  13.720  0.00  0.00    +0.000 A 
ATOM     22  O   UNL     1       5.831   3.093  13.115  0.00  0.00    +0.000 OA
ATOM     23  C   UNL     1       6.180   3.170  11.802  0.00  0.00    +0.000 A 
ATOM     24  N   UNL     1       7.086   4.075  11.514  0.00  0.00    +0.000 NA
ATOM     25  C   UNL     1       7.366   4.655  12.732  0.00  0.00    +0.000 A 
ATOM     26  C   UNL     1       8.362   5.741  12.849  0.00  0.00    +0.000 C 
ENDBRANCH  18  21
ENDBRANCH   9  17
TORSDOF 4
ENDMDL
MODEL 2
REMARK VINA RESULT:      -7.5      3.184      9.140
REMARK  Name = 
REMARK  6 active torsions:
REMARK  status: ('A' for Active; 'I' for Inactive)
REMARK    1  A    between atoms: C_1  and  C_2
REMARK    2  A    between atoms: C_2  and  C_3
REMARK    3  A    between atoms: C_5  and  C_6
REMARK    4  A    between atoms: C_14  and  N_15
REMARK    5  A    between atoms: C_16  and  C_18
REMARK    6  A    between atoms: C_22  and  C_23
REMARK                            x       y       z     vdW  Elec       q    Type
REMARK                         _______ _______ _______ _____ _____    ______ ____
ROOT
ATOM      1  C   UNL     1       2.667   7.015  18.442  0.00  0.00    +0.000 A 
ATOM      2  C   UNL     1       2.432   8.134  17.613  0.00  0.00    +0.000 A 
ATOM      3  C   UNL     1       1.745   9.258  18.086  0.00  0.00    +0.000 A 
ATOM      4  C   UNL     1       1.284   9.248  19.392  0.00  0.00    +0.000 A 
ATOM      5  C   UNL     1       1.519   8.150  20.226  0.00  0.00    +0.000 A 
ATOM      6  C   UNL     1       2.211   7.037  19.770  0.00  0.00    +0.000 A 
ATOM      7  C   UNL     1       0.954   8.389  21.591  0.00  0.00    +0.000 C 
ATOM      8  C   UNL     1      -0.053   9.513  21.306  0.00  0.00    +0.000 C 
ATOM      9  C   UNL     1       0.494  10.310  20.102  0.00  0.00    +0.000 C 
ENDROOT
BRANCH   1  12
ATOM     10  C   UNL     1       4.728   4.669  16.843  0.00  0.00    +0.000 A 
ATOM     11  N   UNL     1       4.364   5.922  16.989  0.00  0.00    +0.000 NA
ATOM     12  C   UNL     1       3.356   5.834  17.927  0.00  0.00    +0.000 A 
ATOM     13  N   UNL     1       3.099   4.577  18.328  0.00  0.00    +0.000 NA
ATOM     14  O   UNL     1       4.008   3.804  17.611  0.00  0.00    +0.000 OA
BRANCH  10  16
ATOM     15  C   UNL     1       5.874   4.776  14.655  0.00  0.00    +0.000 C 
ATOM     16  C   UNL     1       5.805   4.091  16.009  0.00  0.00    +0.000 C 
ENDBRANCH  10  16
ENDBRANCH   1  12
BRANCH   9  17
ATOM     17  N   UNL     1       1.325  11.419  20.504  0.00  0.00    +0.000 N 
ATOM     18  C   UNL     1       1.385  12.580  19.762  0.00  0.00    +0.000 C 
ATOM     19  O   UNL     1       0.771  12.706  18.704  0.00  0.00    +0.000 OA
ATOM     20  H   UNL     1       1.795  11.396  21.402  0.00  0.00    +0.000 HD
BRANCH  18  21
ATOM     21  C   UNL     1       2.207  13.619  20.329  0.00  0.00    +0.000 A 
ATOM     22  O   UNL     1       2.060  13.985  21.647  0.00  0.00    +0.000 OA
ATOM     23  C   UNL     1       2.986  14.967  21.820  0.00  0.00    +0.000 A 
ATOM     24  N   UNL     1       3.696  15.263  20.757  0.00  0.00    +0.000 NA
ATOM     25  C   UNL     1       3.209  14.409  19.792  0.00  0.00    +0.000 A 
ATOM     26  C   UNL     1       3.750  14.424  18.416  0.00  0.00    +0.000 C 
ENDBRANCH  18  21
ENDBRANCH   9  17
TORSDOF 4
ENDMDL
MODEL 3
REMARK VINA RESULT:      -7.5      0.979      1.218
REMARK  Name = 
REMARK  6 active torsions:
REMARK  status: ('A' for Active; 'I' for Inactive)
REMARK    1  A    between atoms: C_1  and  C_2
REMARK    2  A    between atoms: C_2  and  C_3
REMARK    3  A    between atoms: C_5  and  C_6
REMARK    4  A    between atoms: C_14  and  N_15
REMARK    5  A    between atoms: C_16  and  C_18
REMARK    6  A    between atoms: C_22  and  C_23
REMARK                            x       y       z     vdW  Elec       q    Type
REMARK                         _______ _______ _______ _____ _____    ______ ____
ROOT
ATOM      1  C   UNL     1       2.561   7.403  18.293  0.00  0.00    +0.000 A 
ATOM      2  C   UNL     1       3.916   7.666  17.991  0.00  0.00    +0.000 A 
ATOM      3  C   UNL     1       4.785   6.641  17.597  0.00  0.00    +0.000 A 
ATOM      4  C   UNL     1       4.290   5.351  17.519  0.00  0.00    +0.000 A 
ATOM      5  C   UNL     1       2.948   5.079  17.806  0.00  0.00    +0.000 A 
ATOM      6  C   UNL     1       2.077   6.089  18.185  0.00  0.00    +0.000 A 
ATOM      7  C   UNL     1       2.650   3.624  17.621  0.00  0.00    +0.000 C 
ATOM      8  C   UNL     1       4.060   3.018  17.686  0.00  0.00    +0.000 C 
ATOM      9  C   UNL     1       5.034   4.096  17.163  0.00  0.00    +0.000 C 
ENDROOT
BRANCH   1  12
ATOM     10  C   UNL     1       0.316  10.076  18.638  0.00  0.00    +0.000 A 
ATOM     11  N   UNL     1       1.030   9.311  17.846  0.00  0.00    +0.000 NA
ATOM     12  C   UNL     1       1.672   8.474  18.736  0.00  0.00    +0.000 A 
ATOM     13  N   UNL     1       1.378   8.726  20.023  0.00  0.00    +0.000 NA
ATOM     14  O   UNL     1       0.478   9.787  19.960  0.00  0.00    +0.000 OA
BRANCH  10  16
ATOM     15  C   UNL     1      -1.449  11.570  19.515  0.00  0.00    +0.000 C 
ATOM     16  C   UNL     1      -0.640  11.154  18.298  0.00  0.00    +0.000 C 
ENDBRANCH  10  16
ENDBRANCH   1  12
BRANCH   9  17
ATOM     17  N   UNL     1       5.263   3.991  15.742  0.00  0.00    +0.000 N 
ATOM     18  C   UNL     1       6.482   4.316  15.184  0.00  0.00    +0.000 C 
ATOM     19  O   UNL     1       7.411   4.752  15.862  0.00  0.00    +0.000 OA
ATOM     20  H   UNL     1       4.558   3.572  15.148  0.00  0.00    +0.000 HD
BRANCH  18  21
ATOM     21  C   UNL     1       6.575   4.096  13.763  0.00  0.00    +0.000 A 
ATOM     22  O   UNL     1       5.775   3.161  13.147  0.00  0.00    +0.000 OA
ATOM     23  C   UNL     1       6.132   3.237  11.836  0.00  0.00    +0.000 A 
ATOM     24  N   UNL     1       7.069   4.112  11.559  0.00  0.00    +0.000 NA
ATOM     25  C   UNL     1       7.365   4.672  12.782  0.00  0.00    +0.000 A 
ATOM     26  C   UNL     1       8.397   5.722  12.913  0.00  0.00    +0.000 C 
ENDBRANCH  18  21
ENDBRANCH   9  17
TORSDOF 4
ENDMDL
MODEL 4
REMARK VINA RESULT:      -7.4      2.212      8.556
REMARK  Name = 
REMARK  6 active torsions:
REMARK  status: ('A' for Active; 'I' for Inactive)
REMARK    1  A    between atoms: C_1  and  C_2
REMARK    2  A    between atoms: C_2  and  C_3
REMARK    3  A    between atoms: C_5  and  C_6
REMARK    4  A    between atoms: C_14  and  N_15
REMARK    5  A    between atoms: C_16  and  C_18
REMARK    6  A    between atoms: C_22  and  C_23
REMARK                            x       y       z     vdW  Elec       q    Type
REMARK                         _______ _______ _______ _____ _____    ______ ____
ROOT
ATOM      1  C   UNL     1       6.163   4.460  15.149  0.00  0.00    +0.000 A 
ATOM      2  C   UNL     1       4.896   4.010  15.581  0.00  0.00    +0.000 A 
ATOM      3  C   UNL     1       4.464   4.208  16.899  0.00  0.00    +0.000 A 
ATOM      4  C   UNL     1       5.316   4.848  17.783  0.00  0.00    +0.000 A 
ATOM      5  C   UNL     1       6.569   5.307  17.365  0.00  0.00    +0.000 A 
ATOM      6  C   UNL     1       7.000   5.128  16.059  0.00  0.00    +0.000 A 
ATOM      7  C   UNL     1       7.287   5.989  18.487  0.00  0.00    +0.000 C 
ATOM      8  C   UNL     1       6.532   5.436  19.706  0.00  0.00    +0.000 C 
ATOM      9  C   UNL     1       5.092   5.133  19.240  0.00  0.00    +0.000 C 
ENDROOT
BRANCH   1  12
ATOM     10  C   UNL     1       6.876   3.254  11.934  0.00  0.00    +0.000 A 
ATOM     11  N   UNL     1       6.340   3.043  13.113  0.00  0.00    +0.000 NA
ATOM     12  C   UNL     1       6.617   4.218  13.783  0.00  0.00    +0.000 A 
ATOM     13  N   UNL     1       7.309   5.108  13.050  0.00  0.00    +0.000 NA
ATOM     14  O   UNL     1       7.481   4.470  11.824  0.00  0.00    +0.000 OA
BRANCH  10  16
ATOM     15  C   UNL     1       6.411   0.985  11.069  0.00  0.00    +0.000 C 
ATOM     16  C   UNL     1       6.880   2.390  10.732  0.00  0.00    +0.000 C 
ENDBRANCH  10  16
ENDBRANCH   1  12
BRANCH   9  17
ATOM     17  N   UNL     1       4.201   6.251  19.438  0.00  0.00    +0.000 N 
ATOM     18  C   UNL     1       2.849   6.066  19.643  0.00  0.00    +0.000 C 
ATOM     19  O   UNL     1       2.336   4.949  19.621  0.00  0.00    +0.000 OA
ATOM     20  H   UNL     1       4.579   7.186  19.536  0.00  0.00    +0.000 HD
BRANCH  18  21
ATOM     21  C   UNL     1       2.104   7.275  19.891  0.00  0.00    +0.000 A 
ATOM     22  O   UNL     1       1.490   7.481  21.105  0.00  0.00    +0.000 OA
ATOM     23  C   UNL     1       0.903   8.701  20.973  0.00  0.00    +0.000 A 
ATOM     24  N   UNL     1       1.074   9.284  19.809  0.00  0.00    +0.000 NA
ATOM     25  C   UNL     1       1.842   8.383  19.104  0.00  0.00    +0.000 A 
ATOM     26  C   UNL     1       2.261   8.661  17.714  0.00  0.00    +0.000 C 
ENDBRANCH  18  21
ENDBRANCH   9  17
TORSDOF 4
ENDMDL
MODEL 5
REMARK VINA RESULT:      -7.3      3.466      9.388
REMARK  Name = 
REMARK  6 active torsions:
REMARK  status: ('A' for Active; 'I' for Inactive)
REMARK    1  A    between atoms: C_1  and  C_2
REMARK    2  A    between atoms: C_2  and  C_3
REMARK    3  A    between atoms: C_5  and  C_6
REMARK    4  A    between atoms: C_14  and  N_15
REMARK    5  A    between atoms: C_16  and  C_18
REMARK    6  A    between atoms: C_22  and  C_23
REMARK                            x       y       z     vdW  Elec       q    Type
REMARK                         _______ _______ _______ _____ _____    ______ ____
ROOT
ATOM      1  C   UNL     1       2.469   7.407  18.613  0.00  0.00    +0.000 A 
ATOM      2  C   UNL     1       2.171   8.517  17.792  0.00  0.00    +0.000 A 
ATOM      3  C   UNL     1       1.478   9.626  18.292  0.00  0.00    +0.000 A 
ATOM      4  C   UNL     1       1.074   9.609  19.616  0.00  0.00    +0.000 A 
ATOM      5  C   UNL     1       1.372   8.520  20.442  0.00  0.00    +0.000 A 
ATOM      6  C   UNL     1       2.070   7.423  19.960  0.00  0.00    +0.000 A 
ATOM      7  C   UNL     1       0.860   8.750  21.829  0.00  0.00    +0.000 C 
ATOM      8  C   UNL     1      -0.186   9.848  21.585  0.00  0.00    +0.000 C 
ATOM      9  C   UNL     1       0.290  10.654  20.357  0.00  0.00    +0.000 C 
ENDROOT
BRANCH   1  12
ATOM     10  C   UNL     1       3.656   4.229  17.719  0.00  0.00    +0.000 A 
ATOM     11  N   UNL     1       2.847   4.954  18.457  0.00  0.00    +0.000 NA
ATOM     12  C   UNL     1       3.163   6.241  18.072  0.00  0.00    +0.000 A 
ATOM     13  N   UNL     1       4.137   6.305  17.148  0.00  0.00    +0.000 NA
ATOM     14  O   UNL     1       4.464   4.972  16.912  0.00  0.00    +0.000 OA
BRANCH  10  16
ATOM     15  C   UNL     1       2.539   2.069  18.169  0.00  0.00    +0.000 C 
ATOM     16  C   UNL     1       3.778   2.757  17.621  0.00  0.00    +0.000 C 
ENDBRANCH  10  16
ENDBRANCH   1  12
BRANCH   9  17
ATOM     17  N   UNL     1       1.110  11.784  20.721  0.00  0.00    +0.000 N 
ATOM     18  C   UNL     1       0.896  13.033  20.177  0.00  0.00    +0.000 C 
ATOM     19  O   UNL     1       0.030  13.231  19.326  0.00  0.00    +0.000 OA
ATOM     20  H   UNL     1       1.790  11.693  21.467  0.00  0.00    +0.000 HD
BRANCH  18  21
ATOM     21  C   UNL     1       1.754  14.072  20.690  0.00  0.00    +0.000 A 
ATOM     22  O   UNL     1       1.773  14.362  22.035  0.00  0.00    +0.000 OA
ATOM     23  C   UNL     1       2.683  15.368  22.140  0.00  0.00    +0.000 A 
ATOM     24  N   UNL     1       3.235  15.746  21.012  0.00  0.00    +0.000 NA
ATOM     25  C   UNL     1       2.651  14.926  20.072  0.00  0.00    +0.000 A 
ATOM     26  C   UNL     1       3.002  15.035  18.640  0.00  0.00    +0.000 C 
ENDBRANCH  18  21
ENDBRANCH   9  17
TORSDOF 4
ENDMDL
MODEL 6
REMARK VINA RESULT:      -7.3      4.694      9.230
REMARK  Name = 
REMARK  6 active torsions:
REMARK  status: ('A' for Active; 'I' for Inactive)
REMARK    1  A    between atoms: C_1  and  C_2
REMARK    2  A    between atoms: C_2  and  C_3
REMARK    3  A    between atoms: C_5  and  C_6
REMARK    4  A    between atoms: C_14  and  N_15
REMARK    5  A    between atoms: C_16  and  C_18
REMARK    6  A    between atoms: C_22  and  C_23
REMARK                            x       y       z     vdW  Elec       q    Type
REMARK                         _______ _______ _______ _____ _____    ______ ____
ROOT
ATOM      1  C   UNL     1       2.228   7.373  19.373  0.00  0.00    +0.000 A 
ATOM      2  C   UNL     1       2.281   8.005  18.112  0.00  0.00    +0.000 A 
ATOM      3  C   UNL     1       1.697   9.260  17.901  0.00  0.00    +0.000 A 
ATOM      4  C   UNL     1       1.048   9.871  18.961  0.00  0.00    +0.000 A 
ATOM      5  C   UNL     1       0.997   9.260  20.218  0.00  0.00    +0.000 A 
ATOM      6  C   UNL     1       1.584   8.023  20.440  0.00  0.00    +0.000 A 
ATOM      7  C   UNL     1       0.272  10.126  21.200  0.00  0.00    +0.000 C 
ATOM      8  C   UNL     1      -0.512  11.055  20.261  0.00  0.00    +0.000 C 
ATOM      9  C   UNL     1       0.318  11.184  18.965  0.00  0.00    +0.000 C 
ENDROOT
BRANCH   1  12
ATOM     10  C   UNL     1       3.020   4.067  20.238  0.00  0.00    +0.000 A 
ATOM     11  N   UNL     1       2.211   5.093  20.365  0.00  0.00    +0.000 NA
ATOM     12  C   UNL     1       2.812   6.050  19.573  0.00  0.00    +0.000 A 
ATOM     13  N   UNL     1       3.953   5.634  18.995  0.00  0.00    +0.000 NA
ATOM     14  O   UNL     1       4.091   4.320  19.434  0.00  0.00    +0.000 OA
BRANCH  10  16
ATOM     15  C   UNL     1       1.676   2.574  21.679  0.00  0.00    +0.000 C 
ATOM     16  C   UNL     1       2.910   2.703  20.801  0.00  0.00    +0.000 C 
ENDBRANCH  10  16
ENDBRANCH   1  12
BRANCH   9  17
ATOM     17  N   UNL     1       1.228  12.304  19.001  0.00  0.00    +0.000 N 
ATOM     18  C   UNL     1       0.823  13.570  18.632  0.00  0.00    +0.000 C 
ATOM     19  O   UNL     1      -0.312  13.794  18.215  0.00  0.00    +0.000 OA
ATOM     20  H   UNL     1       2.151  12.190  19.402  0.00  0.00    +0.000 HD
BRANCH  18  21
ATOM     21  C   UNL     1       1.826  14.594  18.785  0.00  0.00    +0.000 A 
ATOM     22  O   UNL     1       2.864  14.695  17.887  0.00  0.00    +0.000 OA
ATOM     23  C   UNL     1       3.588  15.754  18.341  0.00  0.00    +0.000 A 
ATOM     24  N   UNL     1       3.125  16.327  19.427  0.00  0.00    +0.000 NA
ATOM     25  C   UNL     1       1.997  15.596  19.725  0.00  0.00    +0.000 A 
ATOM     26  C   UNL     1       1.167  15.920  20.905  0.00  0.00    +0.000 C 
ENDBRANCH  18  21
ENDBRANCH   9  17
TORSDOF 4
ENDMDL
MODEL 7
REMARK VINA RESULT:      -7.3      3.056      9.445
REMARK  Name = 
REMARK  6 active torsions:
REMARK  status: ('A' for Active; 'I' for Inactive)
REMARK    1  A    between atoms: C_1  and  C_2
REMARK    2  A    between atoms: C_2  and  C_3
REMARK    3  A    between atoms: C_5  and  C_6
REMARK    4  A    between atoms: C_14  and  N_15
REMARK    5  A    between atoms: C_16  and  C_18
REMARK    6  A    between atoms: C_22  and  C_23
REMARK                            x       y       z     vdW  Elec       q    Type
REMARK                         _______ _______ _______ _____ _____    ______ ____
ROOT
ATOM      1  C   UNL     1       2.755   7.105  18.442  0.00  0.00    +0.000 A 
ATOM      2  C   UNL     1       2.500   8.236  17.635  0.00  0.00    +0.000 A 
ATOM      3  C   UNL     1       1.755   9.319  18.116  0.00  0.00    +0.000 A 
ATOM      4  C   UNL     1       1.256   9.256  19.405  0.00  0.00    +0.000 A 
ATOM      5  C   UNL     1       1.509   8.146  20.218  0.00  0.00    +0.000 A 
ATOM      6  C   UNL     1       2.258   7.074  19.756  0.00  0.00    +0.000 A 
ATOM      7  C   UNL     1       0.894   8.326  21.571  0.00  0.00    +0.000 C 
ATOM      8  C   UNL     1      -0.148   9.417  21.283  0.00  0.00    +0.000 C 
ATOM      9  C   UNL     1       0.403  10.267  20.118  0.00  0.00    +0.000 C 
ENDROOT
BRANCH   1  12
ATOM     10  C   UNL     1       4.930   4.883  16.818  0.00  0.00    +0.000 A 
ATOM     11  N   UNL     1       4.496   6.112  16.970  0.00  0.00    +0.000 NA
ATOM     12  C   UNL     1       3.504   5.966  17.919  0.00  0.00    +0.000 A 
ATOM     13  N   UNL     1       3.325   4.696  18.322  0.00  0.00    +0.000 NA
ATOM     14  O   UNL     1       4.270   3.977  17.594  0.00  0.00    +0.000 OA
BRANCH  10  16
ATOM     15  C   UNL     1       5.646   4.396  14.502  0.00  0.00    +0.000 C 
ATOM     16  C   UNL     1       6.030   4.369  15.972  0.00  0.00    +0.000 C 
ENDBRANCH  10  16
ENDBRANCH   1  12
BRANCH   9  17
ATOM     17  N   UNL     1       1.177  11.396  20.575  0.00  0.00    +0.000 N 
ATOM     18  C   UNL     1       1.169  12.596  19.894  0.00  0.00    +0.000 C 
ATOM     19  O   UNL     1       0.542  12.744  18.847  0.00  0.00    +0.000 OA
ATOM     20  H   UNL     1       1.654  11.351  21.468  0.00  0.00    +0.000 HD
BRANCH  18  21
ATOM     21  C   UNL     1       1.939  13.646  20.511  0.00  0.00    +0.000 A 
ATOM     22  O   UNL     1       3.251  13.855  20.152  0.00  0.00    +0.000 OA
ATOM     23  C   UNL     1       3.638  14.907  20.923  0.00  0.00    +0.000 A 
ATOM     24  N   UNL     1       2.719  15.381  21.730  0.00  0.00    +0.000 NA
ATOM     25  C   UNL     1       1.623  14.585  21.479  0.00  0.00    +0.000 A 
ATOM     26  C   UNL     1       0.350  14.788  22.202  0.00  0.00    +0.000 C 
ENDBRANCH  18  21
ENDBRANCH   9  17
TORSDOF 4
ENDMDL
MODEL 8
REMARK VINA RESULT:      -7.2      1.191      1.591
REMARK  Name = 
REMARK  6 active torsions:
REMARK  status: ('A' for Active; 'I' for Inactive)
REMARK    1  A    between atoms: C_1  and  C_2
REMARK    2  A    between atoms: C_2  and  C_3
REMARK    3  A    between atoms: C_5  and  C_6
REMARK    4  A    between atoms: C_14  and  N_15
REMARK    5  A    between atoms: C_16  and  C_18
REMARK    6  A    between atoms: C_22  and  C_23
REMARK                            x       y       z     vdW  Elec       q    Type
REMARK                         _______ _______ _______ _____ _____    ______ ____
ROOT
ATOM      1  C   UNL     1       2.641   6.777  19.078  0.00  0.00    +0.000 A 
ATOM      2  C   UNL     1       4.049   6.878  19.105  0.00  0.00    +0.000 A 
ATOM      3  C   UNL     1       4.860   5.920  18.484  0.00  0.00    +0.000 A 
ATOM      4  C   UNL     1       4.249   4.853  17.847  0.00  0.00    +0.000 A 
ATOM      5  C   UNL     1       2.855   4.746  17.804  0.00  0.00    +0.000 A 
ATOM      6  C   UNL     1       2.044   5.698  18.404  0.00  0.00    +0.000 A 
ATOM      7  C   UNL     1       2.439   3.532  17.036  0.00  0.00    +0.000 C 
ATOM      8  C   UNL     1       3.727   2.696  17.074  0.00  0.00    +0.000 C 
ATOM      9  C   UNL     1       4.904   3.692  17.155  0.00  0.00    +0.000 C 
ENDROOT
BRANCH   1  12
ATOM     10  C   UNL     1       0.699   8.694  21.282  0.00  0.00    +0.000 A 
ATOM     11  N   UNL     1       1.359   7.583  21.050  0.00  0.00    +0.000 NA
ATOM     12  C   UNL     1       1.806   7.764  19.757  0.00  0.00    +0.000 A 
ATOM     13  N   UNL     1       1.423   8.930  19.211  0.00  0.00    +0.000 NA
ATOM     14  O   UNL     1       0.690   9.549  20.221  0.00  0.00    +0.000 OA
BRANCH  10  16
ATOM     15  C   UNL     1      -0.499  10.566  22.365  0.00  0.00    +0.000 C 
ATOM     16  C   UNL     1       0.017   9.145  22.515  0.00  0.00    +0.000 C 
ENDBRANCH  10  16
ENDBRANCH   1  12
BRANCH   9  17
ATOM     17  N   UNL     1       5.409   4.058  15.853  0.00  0.00    +0.000 N 
ATOM     18  C   UNL     1       6.729   4.413  15.667  0.00  0.00    +0.000 C 
ATOM     19  O   UNL     1       7.522   4.478  16.605  0.00  0.00    +0.000 OA
ATOM     20  H   UNL     1       4.818   3.953  15.036  0.00  0.00    +0.000 HD
BRANCH  18  21
ATOM     21  C   UNL     1       7.095   4.687  14.300  0.00  0.00    +0.000 A 
ATOM     22  O   UNL     1       8.086   5.597  14.011  0.00  0.00    +0.000 OA
ATOM     23  C   UNL     1       8.154   5.587  12.652  0.00  0.00    +0.000 A 
ATOM     24  N   UNL     1       7.314   4.775  12.054  0.00  0.00    +0.000 NA
ATOM     25  C   UNL     1       6.627   4.191  13.095  0.00  0.00    +0.000 A 
ATOM     26  C   UNL     1       5.563   3.196  12.845  0.00  0.00    +0.000 C 
ENDBRANCH  18  21
ENDBRANCH   9  17
TORSDOF 4
ENDMDL
MODEL 9
REMARK VINA RESULT:      -7.2      3.355      9.370
REMARK  Name = 
REMARK  6 active torsions:
REMARK  status: ('A' for Active; 'I' for Inactive)
REMARK    1  A    between atoms: C_1  and  C_2
REMARK    2  A    between atoms: C_2  and  C_3
REMARK    3  A    between atoms: C_5  and  C_6
REMARK    4  A    between atoms: C_14  and  N_15
REMARK    5  A    between atoms: C_16  and  C_18
REMARK    6  A    between atoms: C_22  and  C_23
REMARK                            x       y       z     vdW  Elec       q    Type
REMARK                         _______ _______ _______ _____ _____    ______ ____
ROOT
ATOM      1  C   UNL     1       2.415   7.501  18.874  0.00  0.00    +0.000 A 
ATOM      2  C   UNL     1       2.074   8.345  17.794  0.00  0.00    +0.000 A 
ATOM      3  C   UNL     1       1.263   9.472  17.980  0.00  0.00    +0.000 A 
ATOM      4  C   UNL     1       0.788   9.739  19.253  0.00  0.00    +0.000 A 
ATOM      5  C   UNL     1       1.127   8.917  20.332  0.00  0.00    +0.000 A 
ATOM      6  C   UNL     1       1.940   7.806  20.160  0.00  0.00    +0.000 A 
ATOM      7  C   UNL     1       0.520   9.427  21.601  0.00  0.00    +0.000 C 
ATOM      8  C   UNL     1      -0.598  10.330  21.057  0.00  0.00    +0.000 C 
ATOM      9  C   UNL     1      -0.122  10.854  19.684  0.00  0.00    +0.000 C 
ENDROOT
BRANCH   1  12
ATOM     10  C   UNL     1       4.413   4.879  17.673  0.00  0.00    +0.000 A 
ATOM     11  N   UNL     1       3.706   5.955  17.415  0.00  0.00    +0.000 NA
ATOM     12  C   UNL     1       3.233   6.310  18.662  0.00  0.00    +0.000 A 
ATOM     13  N   UNL     1       3.620   5.477  19.644  0.00  0.00    +0.000 NA
ATOM     14  O   UNL     1       4.403   4.529  18.989  0.00  0.00    +0.000 OA
BRANCH  10  16
ATOM     15  C   UNL     1       5.468   4.754  15.441  0.00  0.00    +0.000 C 
ATOM     16  C   UNL     1       5.224   4.043  16.761  0.00  0.00    +0.000 C 
ENDBRANCH  10  16
ENDBRANCH   1  12
BRANCH   9  17
ATOM     17  N   UNL     1       0.580  12.111  19.787  0.00  0.00    +0.000 N 
ATOM     18  C   UNL     1       0.267  13.178  18.970  0.00  0.00    +0.000 C 
ATOM     19  O   UNL     1      -0.588  13.093  18.090  0.00  0.00    +0.000 OA
ATOM     20  H   UNL     1       1.243  12.258  20.539  0.00  0.00    +0.000 HD
BRANCH  18  21
ATOM     21  C   UNL     1       1.010  14.383  19.238  0.00  0.00    +0.000 A 
ATOM     22  O   UNL     1       0.415  15.442  19.885  0.00  0.00    +0.000 OA
ATOM     23  C   UNL     1       1.402  16.375  19.962  0.00  0.00    +0.000 A 
ATOM     24  N   UNL     1       2.550  16.024  19.433  0.00  0.00    +0.000 NA
ATOM     25  C   UNL     1       2.317  14.750  18.964  0.00  0.00    +0.000 A 
ATOM     26  C   UNL     1       3.378  13.983  18.277  0.00  0.00    +0.000 C 
ENDBRANCH  18  21
ENDBRANCH   9  17
TORSDOF 4
ENDMDL
