MODEL 1
REMARK VINA RESULT:      -7.7      0.000      0.000
REMARK  Name = 
REMARK  6 active torsions:
REMARK  status: ('A' for Active; 'I' for Inactive)
REMARK    1  A    between atoms: C_1  and  C_2
REMARK    2  A    between atoms: C_5  and  S_6
REMARK    3  A    between atoms: S_6  and  C_7
REMARK    4  A    between atoms: C_7  and  C_8
REMARK    5  A    between atoms: C_9  and  C_10
REMARK    6  A    between atoms: N_17  and  C_18
REMARK                            x       y       z     vdW  Elec       q    Type
REMARK                         _______ _______ _______ _____ _____    ______ ____
ROOT
ATOM      1  C   UNL     1       5.692   4.348  15.190  0.00  0.00    +0.000 A 
ATOM      2  C   UNL     1       6.883   5.090  15.522  0.00  0.00    +0.000 A 
ATOM      3  N   UNL     1       7.643   5.287  14.425  0.00  0.00    +0.000 NA
ATOM      4  N   UNL     1       6.958   4.728  13.416  0.00  0.00    +0.000 N 
ATOM      5  C   UNL     1       7.510   4.775  12.082  0.00  0.00    +0.000 C 
ATOM      6  C   UNL     1       5.805   4.147  13.832  0.00  0.00    +0.000 A 
ATOM      7 CL   UNL     1       4.795   3.333  12.729  0.00  0.00    +0.000 Cl
ENDROOT
BRANCH   2   8
ATOM      8  C   UNL     1       7.360   5.607  16.815  0.00  0.00    +0.000 A 
ATOM      9  C   UNL     1       7.504   6.994  17.000  0.00  0.00    +0.000 A 
ATOM     10  C   UNL     1       7.920   7.524  18.224  0.00  0.00    +0.000 A 
ATOM     11  C   UNL     1       8.204   6.671  19.287  0.00  0.00    +0.000 A 
ATOM     12  C   UNL     1       8.063   5.295  19.125  0.00  0.00    +0.000 A 
ATOM     13  C   UNL     1       7.637   4.768  17.904  0.00  0.00    +0.000 A 
ENDBRANCH   2   8
BRANCH   1  14
ATOM     14  C   UNL     1       4.590   3.843  16.064  0.00  0.00    +0.000 C 
BRANCH  14  15
ATOM     15  S   UNL     1       3.972   5.181  17.151  0.00  0.00    +0.000 S 
BRANCH  15  20
ATOM     16  C   UNL     1       1.383   2.446  21.959  0.00  0.00    +0.000 C 
ATOM     17  C   UNL     1       1.974   3.048  20.717  0.00  0.00    +0.000 A 
ATOM     18  C   UNL     1       3.303   2.805  20.363  0.00  0.00    +0.000 A 
ATOM     19  C   UNL     1       3.863   3.430  19.243  0.00  0.00    +0.000 A 
ATOM     20  C   UNL     1       3.109   4.305  18.450  0.00  0.00    +0.000 A 
ATOM     21  C   UNL     1       1.773   4.528  18.791  0.00  0.00    +0.000 A 
ATOM     22  C   UNL     1       1.209   3.901  19.913  0.00  0.00    +0.000 A 
ENDBRANCH  15  20
ENDBRANCH  14  15
ENDBRANCH   1  14
TORSDOF 4
ENDMDL
MODEL 2
REMARK VINA RESULT:      -7.7      0.070      1.028
REMARK  Name = 
REMARK  6 active torsions:
REMARK  status: ('A' for Active; 'I' for Inactive)
REMARK    1  A    between atoms: C_1  and  C_2
REMARK    2  A    between atoms: C_5  and  S_6
REMARK    3  A    between atoms: S_6  and  C_7
REMARK    4  A    between atoms: C_7  and  C_8
REMARK    5  A    between atoms: C_9  and  C_10
REMARK    6  A    between atoms: N_17  and  C_18
REMARK                            x       y       z     vdW  Elec       q    Type
REMARK                         _______ _______ _______ _____ _____    ______ ____
ROOT
ATOM      1  C   UNL     1       5.655   4.375  15.136  0.00  0.00    +0.000 A 
ATOM      2  C   UNL     1       6.844   5.111  15.490  0.00  0.00    +0.000 A 
ATOM      3  N   UNL     1       7.631   5.295  14.409  0.00  0.00    +0.000 NA
ATOM      4  N   UNL     1       6.965   4.733  13.389  0.00  0.00    +0.000 N 
ATOM      5  C   UNL     1       7.548   4.767  12.068  0.00  0.00    +0.000 C 
ATOM      6  C   UNL     1       5.799   4.164  13.782  0.00  0.00    +0.000 A 
ATOM      7 CL   UNL     1       4.809   3.348  12.661  0.00  0.00    +0.000 Cl
ENDROOT
BRANCH   2   8
ATOM      8  C   UNL     1       7.294   5.634  16.790  0.00  0.00    +0.000 A 
ATOM      9  C   UNL     1       7.605   4.740  17.830  0.00  0.00    +0.000 A 
ATOM     10  C   UNL     1       8.069   5.198  19.066  0.00  0.00    +0.000 A 
ATOM     11  C   UNL     1       8.227   6.563  19.284  0.00  0.00    +0.000 A 
ATOM     12  C   UNL     1       7.929   7.464  18.265  0.00  0.00    +0.000 A 
ATOM     13  C   UNL     1       7.475   7.005  17.027  0.00  0.00    +0.000 A 
ENDBRANCH   2   8
BRANCH   1  14
ATOM     14  C   UNL     1       4.530   3.883  15.987  0.00  0.00    +0.000 C 
BRANCH  14  15
ATOM     15  S   UNL     1       3.957   5.208  17.114  0.00  0.00    +0.000 S 
BRANCH  15  20
ATOM     16  C   UNL     1       1.379   2.450  21.915  0.00  0.00    +0.000 C 
ATOM     17  C   UNL     1       1.972   3.055  20.676  0.00  0.00    +0.000 A 
ATOM     18  C   UNL     1       3.318   2.865  20.357  0.00  0.00    +0.000 A 
ATOM     19  C   UNL     1       3.876   3.494  19.239  0.00  0.00    +0.000 A 
ATOM     20  C   UNL     1       3.103   4.319  18.411  0.00  0.00    +0.000 A 
ATOM     21  C   UNL     1       1.750   4.487  18.717  0.00  0.00    +0.000 A 
ATOM     22  C   UNL     1       1.189   3.857  19.837  0.00  0.00    +0.000 A 
ENDBRANCH  15  20
ENDBRANCH  14  15
ENDBRANCH   1  14
TORSDOF 4
ENDMDL
MODEL 3
REMARK VINA RESULT:      -7.7      4.210      5.787
REMARK  Name = 
REMARK  6 active torsions:
REMARK  status: ('A' for Active; 'I' for Inactive)
REMARK    1  A    between atoms: C_1  and  C_2
REMARK    2  A    between atoms: C_5  and  S_6
REMARK    3  A    between atoms: S_6  and  C_7
REMARK    4  A    between atoms: C_7  and  C_8
REMARK    5  A    between atoms: C_9  and  C_10
REMARK    6  A    between atoms: N_17  and  C_18
REMARK                            x       y       z     vdW  Elec       q    Type
REMARK                         _______ _______ _______ _____ _____    ______ ____
ROOT
ATOM      1  C   UNL     1       2.806   4.666  18.642  0.00  0.00    +0.000 A 
ATOM      2  C   UNL     1       4.093   4.030  18.496  0.00  0.00    +0.000 A 
ATOM      3  N   UNL     1       4.301   3.142  19.491  0.00  0.00    +0.000 NA
ATOM      4  N   UNL     1       3.182   3.173  20.231  0.00  0.00    +0.000 N 
ATOM      5  C   UNL     1       3.084   2.317  21.389  0.00  0.00    +0.000 C 
ATOM      6  C   UNL     1       2.281   4.075  19.770  0.00  0.00    +0.000 A 
ATOM      7 CL   UNL     1       0.804   4.322  20.582  0.00  0.00    +0.000 Cl
ENDROOT
BRANCH   2   8
ATOM      8  C   UNL     1       5.148   4.223  17.488  0.00  0.00    +0.000 A 
ATOM      9  C   UNL     1       4.856   4.019  16.128  0.00  0.00    +0.000 A 
ATOM     10  C   UNL     1       5.822   4.227  15.140  0.00  0.00    +0.000 A 
ATOM     11  C   UNL     1       7.102   4.641  15.498  0.00  0.00    +0.000 A 
ATOM     12  C   UNL     1       7.409   4.853  16.840  0.00  0.00    +0.000 A 
ATOM     13  C   UNL     1       6.439   4.655  17.825  0.00  0.00    +0.000 A 
ENDBRANCH   2   8
BRANCH   1  14
ATOM     14  C   UNL     1       2.162   5.746  17.834  0.00  0.00    +0.000 C 
BRANCH  14  15
ATOM     15  S   UNL     1       3.018   7.342  18.103  0.00  0.00    +0.000 S 
BRANCH  15  20
ATOM     16  C   UNL     1      -0.354  10.524  22.078  0.00  0.00    +0.000 C 
ATOM     17  C   UNL     1       0.387   9.705  21.061  0.00  0.00    +0.000 A 
ATOM     18  C   UNL     1       0.989   8.496  21.414  0.00  0.00    +0.000 A 
ATOM     19  C   UNL     1       1.738   7.778  20.475  0.00  0.00    +0.000 A 
ATOM     20  C   UNL     1       1.899   8.247  19.165  0.00  0.00    +0.000 A 
ATOM     21  C   UNL     1       1.275   9.445  18.807  0.00  0.00    +0.000 A 
ATOM     22  C   UNL     1       0.523  10.165  19.746  0.00  0.00    +0.000 A 
ENDBRANCH  15  20
ENDBRANCH  14  15
ENDBRANCH   1  14
TORSDOF 4
ENDMDL
MODEL 4
REMARK VINA RESULT:      -7.7      4.330      5.786
REMARK  Name = 
REMARK  6 active torsions:
REMARK  status: ('A' for Active; 'I' for Inactive)
REMARK    1  A    between atoms: C_1  and  C_2
REMARK    2  A    between atoms: C_5  and  S_6
REMARK    3  A    between atoms: S_6  and  C_7
REMARK    4  A    between atoms: C_7  and  C_8
REMARK    5  A    between atoms: C_9  and  C_10
REMARK    6  A    between atoms: N_17  and  C_18
REMARK                            x       y       z     vdW  Elec       q    Type
REMARK                         _______ _______ _______ _____ _____    ______ ____
ROOT
ATOM      1  C   UNL     1       3.086   4.981  18.819  0.00  0.00    +0.000 A 
ATOM      2  C   UNL     1       3.715   4.138  17.831  0.00  0.00    +0.000 A 
ATOM      3  N   UNL     1       3.085   2.947  17.750  0.00  0.00    +0.000 NA
ATOM      4  N   UNL     1       2.068   3.026  18.622  0.00  0.00    +0.000 N 
ATOM      5  C   UNL     1       1.184   1.894  18.771  0.00  0.00    +0.000 C 
ATOM      6  C   UNL     1       2.045   4.208  19.285  0.00  0.00    +0.000 A 
ATOM      7 CL   UNL     1       0.868   4.513  20.478  0.00  0.00    +0.000 Cl
ENDROOT
BRANCH   2   8
ATOM      8  C   UNL     1       4.887   4.379  16.974  0.00  0.00    +0.000 A 
ATOM      9  C   UNL     1       6.157   4.533  17.559  0.00  0.00    +0.000 A 
ATOM     10  C   UNL     1       7.297   4.727  16.776  0.00  0.00    +0.000 A 
ATOM     11  C   UNL     1       7.185   4.774  15.389  0.00  0.00    +0.000 A 
ATOM     12  C   UNL     1       5.938   4.619  14.791  0.00  0.00    +0.000 A 
ATOM     13  C   UNL     1       4.800   4.414  15.575  0.00  0.00    +0.000 A 
ENDBRANCH   2   8
BRANCH   1  14
ATOM     14  C   UNL     1       3.452   6.347  19.302  0.00  0.00    +0.000 C 
BRANCH  14  15
ATOM     15  S   UNL     1       2.646   7.627  18.270  0.00  0.00    +0.000 S 
BRANCH  15  20
ATOM     16  C   UNL     1      -0.508  10.681  22.516  0.00  0.00    +0.000 C 
ATOM     17  C   UNL     1       0.179   9.891  21.440  0.00  0.00    +0.000 A 
ATOM     18  C   UNL     1       0.845   8.700  21.737  0.00  0.00    +0.000 A 
ATOM     19  C   UNL     1       1.542   8.011  20.738  0.00  0.00    +0.000 A 
ATOM     20  C   UNL     1       1.584   8.491  19.422  0.00  0.00    +0.000 A 
ATOM     21  C   UNL     1       0.896   9.669  19.122  0.00  0.00    +0.000 A 
ATOM     22  C   UNL     1       0.196  10.360  20.121  0.00  0.00    +0.000 A 
ENDBRANCH  15  20
ENDBRANCH  14  15
ENDBRANCH   1  14
TORSDOF 4
ENDMDL
MODEL 5
REMARK VINA RESULT:      -7.7      0.295      1.036
REMARK  Name = 
REMARK  6 active torsions:
REMARK  status: ('A' for Active; 'I' for Inactive)
REMARK    1  A    between atoms: C_1  and  C_2
REMARK    2  A    between atoms: C_5  and  S_6
REMARK    3  A    between atoms: S_6  and  C_7
REMARK    4  A    between atoms: C_7  and  C_8
REMARK    5  A    between atoms: C_9  and  C_10
REMARK    6  A    between atoms: N_17  and  C_18
REMARK                            x       y       z     vdW  Elec       q    Type
REMARK                         _______ _______ _______ _____ _____    ______ ____
ROOT
ATOM      1  C   UNL     1       5.622   4.443  15.210  0.00  0.00    +0.000 A 
ATOM      2  C   UNL     1       6.848   5.131  15.529  0.00  0.00    +0.000 A 
ATOM      3  N   UNL     1       7.630   5.245  14.435  0.00  0.00    +0.000 NA
ATOM      4  N   UNL     1       6.926   4.686  13.439  0.00  0.00    +0.000 N 
ATOM      5  C   UNL     1       7.494   4.651  12.112  0.00  0.00    +0.000 C 
ATOM      6  C   UNL     1       5.739   4.185  13.862  0.00  0.00    +0.000 A 
ATOM      7 CL   UNL     1       4.697   3.386  12.777  0.00  0.00    +0.000 Cl
ENDROOT
BRANCH   2   8
ATOM      8  C   UNL     1       7.339   5.671  16.808  0.00  0.00    +0.000 A 
ATOM      9  C   UNL     1       7.520   7.058  16.954  0.00  0.00    +0.000 A 
ATOM     10  C   UNL     1       7.950   7.609  18.164  0.00  0.00    +0.000 A 
ATOM     11  C   UNL     1       8.210   6.778  19.251  0.00  0.00    +0.000 A 
ATOM     12  C   UNL     1       8.032   5.403  19.127  0.00  0.00    +0.000 A 
ATOM     13  C   UNL     1       7.593   4.854  17.920  0.00  0.00    +0.000 A 
ENDBRANCH   2   8
BRANCH   1  14
ATOM     14  C   UNL     1       4.484   4.032  16.088  0.00  0.00    +0.000 C 
BRANCH  14  15
ATOM     15  S   UNL     1       3.988   5.417  17.179  0.00  0.00    +0.000 S 
BRANCH  15  20
ATOM     16  C   UNL     1       1.475   2.513  21.928  0.00  0.00    +0.000 C 
ATOM     17  C   UNL     1       2.161   3.268  20.826  0.00  0.00    +0.000 A 
ATOM     18  C   UNL     1       1.614   4.446  20.315  0.00  0.00    +0.000 A 
ATOM     19  C   UNL     1       2.224   5.101  19.239  0.00  0.00    +0.000 A 
ATOM     20  C   UNL     1       3.394   4.599  18.655  0.00  0.00    +0.000 A 
ATOM     21  C   UNL     1       3.953   3.433  19.184  0.00  0.00    +0.000 A 
ATOM     22  C   UNL     1       3.344   2.776  20.263  0.00  0.00    +0.000 A 
ENDBRANCH  15  20
ENDBRANCH  14  15
ENDBRANCH   1  14
TORSDOF 4
ENDMDL
MODEL 6
REMARK VINA RESULT:      -7.7      4.546      5.738
REMARK  Name = 
REMARK  6 active torsions:
REMARK  status: ('A' for Active; 'I' for Inactive)
REMARK    1  A    between atoms: C_1  and  C_2
REMARK    2  A    between atoms: C_5  and  S_6
REMARK    3  A    between atoms: S_6  and  C_7
REMARK    4  A    between atoms: C_7  and  C_8
REMARK    5  A    between atoms: C_9  and  C_10
REMARK    6  A    between atoms: N_17  and  C_18
REMARK                            x       y       z     vdW  Elec       q    Type
REMARK                         _______ _______ _______ _____ _____    ______ ____
ROOT
ATOM      1  C   UNL     1       3.045   5.124  19.366  0.00  0.00    +0.000 A 
ATOM      2  C   UNL     1       4.235   4.839  18.602  0.00  0.00    +0.000 A 
ATOM      3  N   UNL     1       4.149   3.624  18.021  0.00  0.00    +0.000 NA
ATOM      4  N   UNL     1       2.940   3.154  18.364  0.00  0.00    +0.000 N 
ATOM      5  C   UNL     1       2.532   1.853  17.888  0.00  0.00    +0.000 C 
ATOM      6  C   UNL     1       2.263   4.006  19.173  0.00  0.00    +0.000 A 
ATOM      7 CL   UNL     1       0.723   3.596  19.774  0.00  0.00    +0.000 Cl
ENDROOT
BRANCH   2   8
ATOM      8  C   UNL     1       5.458   5.634  18.402  0.00  0.00    +0.000 A 
ATOM      9  C   UNL     1       6.583   5.393  19.211  0.00  0.00    +0.000 A 
ATOM     10  C   UNL     1       7.773   6.103  19.028  0.00  0.00    +0.000 A 
ATOM     11  C   UNL     1       7.855   7.072  18.031  0.00  0.00    +0.000 A 
ATOM     12  C   UNL     1       6.753   7.320  17.217  0.00  0.00    +0.000 A 
ATOM     13  C   UNL     1       5.568   6.603  17.395  0.00  0.00    +0.000 A 
ENDBRANCH   2   8
BRANCH   1  14
ATOM     14  C   UNL     1       2.701   6.300  20.222  0.00  0.00    +0.000 C 
BRANCH  14  15
ATOM     15  S   UNL     1       2.090   7.684  19.190  0.00  0.00    +0.000 S 
BRANCH  15  20
ATOM     16  C   UNL     1      -1.228  11.189  22.932  0.00  0.00    +0.000 C 
ATOM     17  C   UNL     1      -0.329  10.379  22.043  0.00  0.00    +0.000 A 
ATOM     18  C   UNL     1      -0.250  10.639  20.674  0.00  0.00    +0.000 A 
ATOM     19  C   UNL     1       0.536   9.832  19.844  0.00  0.00    +0.000 A 
ATOM     20  C   UNL     1       1.263   8.751  20.363  0.00  0.00    +0.000 A 
ATOM     21  C   UNL     1       1.202   8.508  21.737  0.00  0.00    +0.000 A 
ATOM     22  C   UNL     1       0.416   9.318  22.570  0.00  0.00    +0.000 A 
ENDBRANCH  15  20
ENDBRANCH  14  15
ENDBRANCH   1  14
TORSDOF 4
ENDMDL
MODEL 7
REMARK VINA RESULT:      -7.7      4.314      5.756
REMARK  Name = 
REMARK  6 active torsions:
REMARK  status: ('A' for Active; 'I' for Inactive)
REMARK    1  A    between atoms: C_1  and  C_2
REMARK    2  A    between atoms: C_5  and  S_6
REMARK    3  A    between atoms: S_6  and  C_7
REMARK    4  A    between atoms: C_7  and  C_8
REMARK    5  A    between atoms: C_9  and  C_10
REMARK    6  A    between atoms: N_17  and  C_18
REMARK                            x       y       z     vdW  Elec       q    Type
REMARK                         _______ _______ _______ _____ _____    ______ ____
ROOT
ATOM      1  C   UNL     1       3.117   4.952  18.817  0.00  0.00    +0.000 A 
ATOM      2  C   UNL     1       3.748   4.081  17.854  0.00  0.00    +0.000 A 
ATOM      3  N   UNL     1       3.104   2.897  17.789  0.00  0.00    +0.000 NA
ATOM      4  N   UNL     1       2.078   3.006  18.646  0.00  0.00    +0.000 N 
ATOM      5  C   UNL     1       1.177   1.889  18.806  0.00  0.00    +0.000 C 
ATOM      6  C   UNL     1       2.061   4.201  19.285  0.00  0.00    +0.000 A 
ATOM      7 CL   UNL     1       0.873   4.544  20.457  0.00  0.00    +0.000 Cl
ENDROOT
BRANCH   2   8
ATOM      8  C   UNL     1       4.934   4.290  17.008  0.00  0.00    +0.000 A 
ATOM      9  C   UNL     1       4.787   4.361  15.611  0.00  0.00    +0.000 A 
ATOM     10  C   UNL     1       5.884   4.593  14.777  0.00  0.00    +0.000 A 
ATOM     11  C   UNL     1       7.152   4.755  15.330  0.00  0.00    +0.000 A 
ATOM     12  C   UNL     1       7.317   4.693  16.711  0.00  0.00    +0.000 A 
ATOM     13  C   UNL     1       6.217   4.471  17.543  0.00  0.00    +0.000 A 
ENDBRANCH   2   8
BRANCH   1  14
ATOM     14  C   UNL     1       3.495   6.322  19.278  0.00  0.00    +0.000 C 
BRANCH  14  15
ATOM     15  S   UNL     1       2.696   7.592  18.228  0.00  0.00    +0.000 S 
BRANCH  15  20
ATOM     16  C   UNL     1      -0.469  10.695  22.430  0.00  0.00    +0.000 C 
ATOM     17  C   UNL     1       0.220   9.893  21.363  0.00  0.00    +0.000 A 
ATOM     18  C   UNL     1       0.868   8.695  21.671  0.00  0.00    +0.000 A 
ATOM     19  C   UNL     1       1.568   7.995  20.682  0.00  0.00    +0.000 A 
ATOM     20  C   UNL     1       1.632   8.471  19.365  0.00  0.00    +0.000 A 
ATOM     21  C   UNL     1       0.962   9.657  19.054  0.00  0.00    +0.000 A 
ATOM     22  C   UNL     1       0.259  10.359  20.044  0.00  0.00    +0.000 A 
ENDBRANCH  15  20
ENDBRANCH  14  15
ENDBRANCH   1  14
TORSDOF 4
ENDMDL
MODEL 8
REMARK VINA RESULT:      -7.7      4.523      5.625
REMARK  Name = 
REMARK  6 active torsions:
REMARK  status: ('A' for Active; 'I' for Inactive)
REMARK    1  A    between atoms: C_1  and  C_2
REMARK    2  A    between atoms: C_5  and  S_6
REMARK    3  A    between atoms: S_6  and  C_7
REMARK    4  A    between atoms: C_7  and  C_8
REMARK    5  A    between atoms: C_9  and  C_10
REMARK    6  A    between atoms: N_17  and  C_18
REMARK                            x       y       z     vdW  Elec       q    Type
REMARK                         _______ _______ _______ _____ _____    ______ ____
ROOT
ATOM      1  C   UNL     1       3.068   5.110  19.414  0.00  0.00    +0.000 A 
ATOM      2  C   UNL     1       4.258   4.767  18.674  0.00  0.00    +0.000 A 
ATOM      3  N   UNL     1       4.165   3.517  18.176  0.00  0.00    +0.000 NA
ATOM      4  N   UNL     1       2.952   3.078  18.545  0.00  0.00    +0.000 N 
ATOM      5  C   UNL     1       2.537   1.752  18.155  0.00  0.00    +0.000 C 
ATOM      6  C   UNL     1       2.279   3.987  19.294  0.00  0.00    +0.000 A 
ATOM      7 CL   UNL     1       0.735   3.627  19.915  0.00  0.00    +0.000 Cl
ENDROOT
BRANCH   2   8
ATOM      8  C   UNL     1       5.486   5.539  18.426  0.00  0.00    +0.000 A 
ATOM      9  C   UNL     1       5.502   6.514  17.413  0.00  0.00    +0.000 A 
ATOM     10  C   UNL     1       6.639   7.291  17.172  0.00  0.00    +0.000 A 
ATOM     11  C   UNL     1       7.784   7.101  17.941  0.00  0.00    +0.000 A 
ATOM     12  C   UNL     1       7.785   6.144  18.953  0.00  0.00    +0.000 A 
ATOM     13  C   UNL     1       6.645   5.375  19.199  0.00  0.00    +0.000 A 
ENDBRANCH   2   8
BRANCH   1  14
ATOM     14  C   UNL     1       2.729   6.342  20.189  0.00  0.00    +0.000 C 
BRANCH  14  15
ATOM     15  S   UNL     1       2.224   7.690  19.057  0.00  0.00    +0.000 S 
BRANCH  15  20
ATOM     16  C   UNL     1      -1.001  11.261  22.817  0.00  0.00    +0.000 C 
ATOM     17  C   UNL     1      -0.297  10.345  21.858  0.00  0.00    +0.000 A 
ATOM     18  C   UNL     1       0.288   9.157  22.299  0.00  0.00    +0.000 A 
ATOM     19  C   UNL     1       1.003   8.347  21.409  0.00  0.00    +0.000 A 
ATOM     20  C   UNL     1       1.146   8.703  20.061  0.00  0.00    +0.000 A 
ATOM     21  C   UNL     1       0.538   9.880  19.617  0.00  0.00    +0.000 A 
ATOM     22  C   UNL     1      -0.180  10.692  20.507  0.00  0.00    +0.000 A 
ENDBRANCH  15  20
ENDBRANCH  14  15
ENDBRANCH   1  14
TORSDOF 4
ENDMDL
MODEL 9
REMARK VINA RESULT:      -7.6      1.959      4.221
REMARK  Name = 
REMARK  6 active torsions:
REMARK  status: ('A' for Active; 'I' for Inactive)
REMARK    1  A    between atoms: C_1  and  C_2
REMARK    2  A    between atoms: C_5  and  S_6
REMARK    3  A    between atoms: S_6  and  C_7
REMARK    4  A    between atoms: C_7  and  C_8
REMARK    5  A    between atoms: C_9  and  C_10
REMARK    6  A    between atoms: N_17  and  C_18
REMARK                            x       y       z     vdW  Elec       q    Type
REMARK                         _______ _______ _______ _____ _____    ______ ____
ROOT
ATOM      1  C   UNL     1       6.014   4.613  16.834  0.00  0.00    +0.000 A 
ATOM      2  C   UNL     1       6.748   5.144  15.711  0.00  0.00    +0.000 A 
ATOM      3  N   UNL     1       7.463   6.227  16.079  0.00  0.00    +0.000 NA
ATOM      4  N   UNL     1       7.233   6.373  17.393  0.00  0.00    +0.000 N 
ATOM      5  C   UNL     1       7.869   7.459  18.100  0.00  0.00    +0.000 C 
ATOM      6  C   UNL     1       6.367   5.446  17.872  0.00  0.00    +0.000 A 
ATOM      7 CL   UNL     1       5.890   5.466  19.507  0.00  0.00    +0.000 Cl
ENDROOT
BRANCH   2   8
ATOM      8  C   UNL     1       6.799   4.705  14.307  0.00  0.00    +0.000 A 
ATOM      9  C   UNL     1       5.911   3.713  13.855  0.00  0.00    +0.000 A 
ATOM     10  C   UNL     1       5.907   3.296  12.521  0.00  0.00    +0.000 A 
ATOM     11  C   UNL     1       6.797   3.866  11.615  0.00  0.00    +0.000 A 
ATOM     12  C   UNL     1       7.680   4.853  12.042  0.00  0.00    +0.000 A 
ATOM     13  C   UNL     1       7.677   5.276  13.374  0.00  0.00    +0.000 A 
ENDBRANCH   2   8
BRANCH   1  14
ATOM     14  C   UNL     1       5.050   3.473  16.910  0.00  0.00    +0.000 C 
BRANCH  14  15
ATOM     15  S   UNL     1       3.330   4.096  16.983  0.00  0.00    +0.000 S 
BRANCH  15  20
ATOM     16  C   UNL     1       1.102   2.438  22.423  0.00  0.00    +0.000 C 
ATOM     17  C   UNL     1       1.705   2.917  21.134  0.00  0.00    +0.000 A 
ATOM     18  C   UNL     1       0.987   3.746  20.270  0.00  0.00    +0.000 A 
ATOM     19  C   UNL     1       1.532   4.127  19.038  0.00  0.00    +0.000 A 
ATOM     20  C   UNL     1       2.806   3.694  18.645  0.00  0.00    +0.000 A 
ATOM     21  C   UNL     1       3.533   2.886  19.523  0.00  0.00    +0.000 A 
ATOM     22  C   UNL     1       2.988   2.505  20.758  0.00  0.00    +0.000 A 
ENDBRANCH  15  20
ENDBRANCH  14  15
ENDBRANCH   1  14
TORSDOF 4
ENDMDL
