MODEL 1
REMARK VINA RESULT:      -8.2      0.000      0.000
REMARK  Name = 
REMARK  8 active torsions:
REMARK  status: ('A' for Active; 'I' for Inactive)
REMARK    1  A    between atoms: C_1  and  C_2
REMARK    2  A    between atoms: C_4  and  C_5
REMARK    3  A    between atoms: C_5  and  N_6
REMARK    4  A    between atoms: C_8  and  N_9
REMARK    5  A    between atoms: N_9  and  C_10
REMARK    6  A    between atoms: N_9  and  C_11
REMARK    7  A    between atoms: C_11  and  C_12
REMARK    8  A    between atoms: C_11  and  C_13
REMARK                            x       y       z     vdW  Elec       q    Type
REMARK                         _______ _______ _______ _____ _____    ______ ____
ROOT
ATOM      1  N   UNL     1       3.010   5.222  18.533  0.00  0.00    +0.000 N 
ATOM      2  C   UNL     1       2.047   4.159  18.240  0.00  0.00    +0.000 C 
ENDROOT
BRANCH   1   8
ATOM      3  C   UNL     1       6.099   3.940  15.041  0.00  0.00    +0.000 C 
ATOM      4  C   UNL     1       5.828   4.503  16.402  0.00  0.00    +0.000 A 
ATOM      5  N   UNL     1       6.908   4.941  17.075  0.00  0.00    +0.000 NA
ATOM      6  C   UNL     1       6.681   5.433  18.302  0.00  0.00    +0.000 A 
ATOM      7  C   UNL     1       5.403   5.514  18.830  0.00  0.00    +0.000 A 
ATOM      8  C   UNL     1       4.319   5.106  18.055  0.00  0.00    +0.000 A 
ATOM      9  N   UNL     1       4.550   4.570  16.839  0.00  0.00    +0.000 NA
BRANCH   6  10
ATOM     10  C   UNL     1       7.882   5.899  19.093  0.00  0.00    +0.000 C 
BRANCH  10  11
ATOM     11  N   UNL     1       7.921   5.358  20.456  0.00  0.00    +0.000 NA
ATOM     12  H   UNL     1       8.475   4.501  20.434  0.00  0.00    +0.000 HD
ATOM     13  H   UNL     1       6.979   5.068  20.714  0.00  0.00    +0.000 HD
ENDBRANCH  10  11
ENDBRANCH   6  10
ENDBRANCH   1   8
BRANCH   1  14
ATOM     14  C   UNL     1       2.725   6.089  19.707  0.00  0.00    +0.000 C 
ATOM     15  C   UNL     1       1.826   5.358  20.724  0.00  0.00    +0.000 C 
BRANCH  14  16
ATOM     16  C   UNL     1       2.148   7.451  19.246  0.00  0.00    +0.000 A 
ATOM     17  C   UNL     1       2.343   7.887  17.911  0.00  0.00    +0.000 A 
ATOM     18  C   UNL     1       1.925   9.143  17.478  0.00  0.00    +0.000 A 
ATOM     19  C   UNL     1       1.314  10.013  18.367  0.00  0.00    +0.000 A 
ATOM     20  C   UNL     1       1.088   9.632  19.695  0.00  0.00    +0.000 A 
ATOM     21  C   UNL     1       0.473  10.545  20.569  0.00  0.00    +0.000 A 
ATOM     22  C   UNL     1       0.203  10.198  21.888  0.00  0.00    +0.000 A 
ATOM     23  C   UNL     1       0.542   8.933  22.346  0.00  0.00    +0.000 A 
ATOM     24  C   UNL     1       1.177   8.023  21.495  0.00  0.00    +0.000 A 
ATOM     25  C   UNL     1       1.482   8.340  20.151  0.00  0.00    +0.000 A 
ENDBRANCH  14  16
ENDBRANCH   1  14
TORSDOF 5
ENDMDL
MODEL 2
REMARK VINA RESULT:      -8.1      2.683      5.474
REMARK  Name = 
REMARK  8 active torsions:
REMARK  status: ('A' for Active; 'I' for Inactive)
REMARK    1  A    between atoms: C_1  and  C_2
REMARK    2  A    between atoms: C_4  and  C_5
REMARK    3  A    between atoms: C_5  and  N_6
REMARK    4  A    between atoms: C_8  and  N_9
REMARK    5  A    between atoms: N_9  and  C_10
REMARK    6  A    between atoms: N_9  and  C_11
REMARK    7  A    between atoms: C_11  and  C_12
REMARK    8  A    between atoms: C_11  and  C_13
REMARK                            x       y       z     vdW  Elec       q    Type
REMARK                         _______ _______ _______ _____ _____    ______ ____
ROOT
ATOM      1  N   UNL     1       6.065   4.668  16.300  0.00  0.00    +0.000 N 
ATOM      2  C   UNL     1       7.122   4.642  17.312  0.00  0.00    +0.000 C 
ENDROOT
BRANCH   1   8
ATOM      3  C   UNL     1       8.851   6.019  12.587  0.00  0.00    +0.000 C 
ATOM      4  C   UNL     1       7.729   5.200  13.146  0.00  0.00    +0.000 A 
ATOM      5  N   UNL     1       7.151   4.343  12.286  0.00  0.00    +0.000 NA
ATOM      6  C   UNL     1       6.134   3.614  12.771  0.00  0.00    +0.000 A 
ATOM      7  C   UNL     1       5.727   3.718  14.090  0.00  0.00    +0.000 A 
ATOM      8  C   UNL     1       6.412   4.575  14.949  0.00  0.00    +0.000 A 
ATOM      9  N   UNL     1       7.406   5.341  14.452  0.00  0.00    +0.000 NA
BRANCH   6  10
ATOM     10  C   UNL     1       5.444   2.668  11.814  0.00  0.00    +0.000 C 
BRANCH  10  11
ATOM     11  N   UNL     1       6.256   1.493  11.478  0.00  0.00    +0.000 NA
ATOM     12  H   UNL     1       7.044   1.811  10.914  0.00  0.00    +0.000 HD
ATOM     13  H   UNL     1       5.709   0.887  10.869  0.00  0.00    +0.000 HD
ENDBRANCH  10  11
ENDBRANCH   6  10
ENDBRANCH   1   8
BRANCH   1  14
ATOM     14  C   UNL     1       4.769   5.287  16.690  0.00  0.00    +0.000 C 
ATOM     15  C   UNL     1       4.995   6.657  17.358  0.00  0.00    +0.000 C 
BRANCH  14  16
ATOM     16  C   UNL     1       3.944   4.308  17.562  0.00  0.00    +0.000 A 
ATOM     17  C   UNL     1       3.945   2.921  17.264  0.00  0.00    +0.000 A 
ATOM     18  C   UNL     1       3.145   2.018  17.961  0.00  0.00    +0.000 A 
ATOM     19  C   UNL     1       2.305   2.470  18.966  0.00  0.00    +0.000 A 
ATOM     20  C   UNL     1       2.270   3.827  19.308  0.00  0.00    +0.000 A 
ATOM     21  C   UNL     1       1.399   4.249  20.327  0.00  0.00    +0.000 A 
ATOM     22  C   UNL     1       1.353   5.582  20.720  0.00  0.00    +0.000 A 
ATOM     23  C   UNL     1       2.180   6.507  20.099  0.00  0.00    +0.000 A 
ATOM     24  C   UNL     1       3.033   6.106  19.066  0.00  0.00    +0.000 A 
ATOM     25  C   UNL     1       3.101   4.764  18.628  0.00  0.00    +0.000 A 
ENDBRANCH  14  16
ENDBRANCH   1  14
TORSDOF 5
ENDMDL
MODEL 3
REMARK VINA RESULT:      -8.1      0.876      2.136
REMARK  Name = 
REMARK  8 active torsions:
REMARK  status: ('A' for Active; 'I' for Inactive)
REMARK    1  A    between atoms: C_1  and  C_2
REMARK    2  A    between atoms: C_4  and  C_5
REMARK    3  A    between atoms: C_5  and  N_6
REMARK    4  A    between atoms: C_8  and  N_9
REMARK    5  A    between atoms: N_9  and  C_10
REMARK    6  A    between atoms: N_9  and  C_11
REMARK    7  A    between atoms: C_11  and  C_12
REMARK    8  A    between atoms: C_11  and  C_13
REMARK                            x       y       z     vdW  Elec       q    Type
REMARK                         _______ _______ _______ _____ _____    ______ ____
ROOT
ATOM      1  N   UNL     1       3.089   5.482  18.448  0.00  0.00    +0.000 N 
ATOM      2  C   UNL     1       2.112   4.513  17.950  0.00  0.00    +0.000 C 
ENDROOT
BRANCH   1   8
ATOM      3  C   UNL     1       7.760   5.604  19.692  0.00  0.00    +0.000 C 
ATOM      4  C   UNL     1       6.686   5.373  18.674  0.00  0.00    +0.000 A 
ATOM      5  N   UNL     1       7.108   4.946  17.470  0.00  0.00    +0.000 NA
ATOM      6  C   UNL     1       6.157   4.750  16.545  0.00  0.00    +0.000 A 
ATOM      7  C   UNL     1       4.816   4.948  16.825  0.00  0.00    +0.000 A 
ATOM      8  C   UNL     1       4.437   5.325  18.112  0.00  0.00    +0.000 A 
ATOM      9  N   UNL     1       5.395   5.564  19.031  0.00  0.00    +0.000 NA
BRANCH   6  10
ATOM     10  C   UNL     1       6.610   4.305  15.173  0.00  0.00    +0.000 C 
BRANCH  10  11
ATOM     11  N   UNL     1       7.477   5.282  14.505  0.00  0.00    +0.000 NA
ATOM     12  H   UNL     1       8.165   5.603  15.187  0.00  0.00    +0.000 HD
ATOM     13  H   UNL     1       6.918   6.102  14.272  0.00  0.00    +0.000 HD
ENDBRANCH  10  11
ENDBRANCH   6  10
ENDBRANCH   1   8
BRANCH   1  14
ATOM     14  C   UNL     1       2.714   6.259  19.660  0.00  0.00    +0.000 C 
ATOM     15  C   UNL     1       1.793   5.433  20.578  0.00  0.00    +0.000 C 
BRANCH  14  16
ATOM     16  C   UNL     1       2.112   7.629  19.258  0.00  0.00    +0.000 A 
ATOM     17  C   UNL     1       2.294   8.124  17.941  0.00  0.00    +0.000 A 
ATOM     18  C   UNL     1       1.852   9.389  17.562  0.00  0.00    +0.000 A 
ATOM     19  C   UNL     1       1.230  10.210  18.490  0.00  0.00    +0.000 A 
ATOM     20  C   UNL     1       1.015   9.770  19.800  0.00  0.00    +0.000 A 
ATOM     21  C   UNL     1       0.388  10.634  20.714  0.00  0.00    +0.000 A 
ATOM     22  C   UNL     1       0.129  10.228  22.018  0.00  0.00    +0.000 A 
ATOM     23  C   UNL     1       0.491   8.951  22.422  0.00  0.00    +0.000 A 
ATOM     24  C   UNL     1       1.139   8.089  21.531  0.00  0.00    +0.000 A 
ATOM     25  C   UNL     1       1.433   8.467  20.201  0.00  0.00    +0.000 A 
ENDBRANCH  14  16
ENDBRANCH   1  14
TORSDOF 5
ENDMDL
MODEL 4
REMARK VINA RESULT:      -8.1      1.944      6.874
REMARK  Name = 
REMARK  8 active torsions:
REMARK  status: ('A' for Active; 'I' for Inactive)
REMARK    1  A    between atoms: C_1  and  C_2
REMARK    2  A    between atoms: C_4  and  C_5
REMARK    3  A    between atoms: C_5  and  N_6
REMARK    4  A    between atoms: C_8  and  N_9
REMARK    5  A    between atoms: N_9  and  C_10
REMARK    6  A    between atoms: N_9  and  C_11
REMARK    7  A    between atoms: C_11  and  C_12
REMARK    8  A    between atoms: C_11  and  C_13
REMARK                            x       y       z     vdW  Elec       q    Type
REMARK                         _______ _______ _______ _____ _____    ______ ____
ROOT
ATOM      1  N   UNL     1       2.792   5.262  19.723  0.00  0.00    +0.000 N 
ATOM      2  C   UNL     1       2.445   4.316  20.785  0.00  0.00    +0.000 C 
ENDROOT
BRANCH   1   8
ATOM      3  C   UNL     1       0.500   8.779  22.124  0.00  0.00    +0.000 C 
ATOM      4  C   UNL     1       1.170   8.265  20.886  0.00  0.00    +0.000 A 
ATOM      5  N   UNL     1       1.284   9.148  19.878  0.00  0.00    +0.000 NA
ATOM      6  C   UNL     1       1.869   8.695  18.758  0.00  0.00    +0.000 A 
ATOM      7  C   UNL     1       2.353   7.402  18.661  0.00  0.00    +0.000 A 
ATOM      8  C   UNL     1       2.266   6.557  19.766  0.00  0.00    +0.000 A 
ATOM      9  N   UNL     1       1.639   6.997  20.876  0.00  0.00    +0.000 NA
BRANCH   6  10
ATOM     10  C   UNL     1       1.977   9.658  17.598  0.00  0.00    +0.000 C 
BRANCH  10  11
ATOM     11  N   UNL     1       1.945  11.066  18.011  0.00  0.00    +0.000 NA
ATOM     12  H   UNL     1       1.066  11.225  18.504  0.00  0.00    +0.000 HD
ATOM     13  H   UNL     1       1.899  11.646  17.174  0.00  0.00    +0.000 HD
ENDBRANCH  10  11
ENDBRANCH   6  10
ENDBRANCH   1   8
BRANCH   1  14
ATOM     14  C   UNL     1       3.245   4.690  18.427  0.00  0.00    +0.000 C 
ATOM     15  C   UNL     1       2.777   3.228  18.280  0.00  0.00    +0.000 C 
BRANCH  14  16
ATOM     16  C   UNL     1       4.776   4.863  18.266  0.00  0.00    +0.000 A 
ATOM     17  C   UNL     1       5.571   5.211  19.387  0.00  0.00    +0.000 A 
ATOM     18  C   UNL     1       6.935   5.469  19.271  0.00  0.00    +0.000 A 
ATOM     19  C   UNL     1       7.547   5.407  18.028  0.00  0.00    +0.000 A 
ATOM     20  C   UNL     1       6.812   5.059  16.889  0.00  0.00    +0.000 A 
ATOM     21  C   UNL     1       7.466   5.015  15.646  0.00  0.00    +0.000 A 
ATOM     22  C   UNL     1       6.782   4.647  14.493  0.00  0.00    +0.000 A 
ATOM     23  C   UNL     1       5.437   4.316  14.571  0.00  0.00    +0.000 A 
ATOM     24  C   UNL     1       4.767   4.381  15.797  0.00  0.00    +0.000 A 
ATOM     25  C   UNL     1       5.422   4.763  16.990  0.00  0.00    +0.000 A 
ENDBRANCH  14  16
ENDBRANCH   1  14
TORSDOF 5
ENDMDL
MODEL 5
REMARK VINA RESULT:      -7.9      1.976      6.651
REMARK  Name = 
REMARK  8 active torsions:
REMARK  status: ('A' for Active; 'I' for Inactive)
REMARK    1  A    between atoms: C_1  and  C_2
REMARK    2  A    between atoms: C_4  and  C_5
REMARK    3  A    between atoms: C_5  and  N_6
REMARK    4  A    between atoms: C_8  and  N_9
REMARK    5  A    between atoms: N_9  and  C_10
REMARK    6  A    between atoms: N_9  and  C_11
REMARK    7  A    between atoms: C_11  and  C_12
REMARK    8  A    between atoms: C_11  and  C_13
REMARK                            x       y       z     vdW  Elec       q    Type
REMARK                         _______ _______ _______ _____ _____    ______ ____
ROOT
ATOM      1  N   UNL     1       2.604   5.020  19.465  0.00  0.00    +0.000 N 
ATOM      2  C   UNL     1       2.020   4.031  20.371  0.00  0.00    +0.000 C 
ENDROOT
BRANCH   1   8
ATOM      3  C   UNL     1       2.011   9.403  17.510  0.00  0.00    +0.000 C 
ATOM      4  C   UNL     1       1.935   8.476  18.684  0.00  0.00    +0.000 A 
ATOM      5  N   UNL     1       1.426   9.006  19.811  0.00  0.00    +0.000 NA
ATOM      6  C   UNL     1       1.367   8.191  20.874  0.00  0.00    +0.000 A 
ATOM      7  C   UNL     1       1.777   6.871  20.804  0.00  0.00    +0.000 A 
ATOM      8  C   UNL     1       2.231   6.362  19.589  0.00  0.00    +0.000 A 
ATOM      9  N   UNL     1       2.333   7.193  18.530  0.00  0.00    +0.000 NA
BRANCH   6  10
ATOM     10  C   UNL     1       0.831   8.773  22.163  0.00  0.00    +0.000 C 
BRANCH  10  11
ATOM     11  N   UNL     1       1.866   9.419  22.978  0.00  0.00    +0.000 NA
ATOM     12  H   UNL     1       1.460  10.261  23.386  0.00  0.00    +0.000 HD
ATOM     13  H   UNL     1       2.607   9.745  22.358  0.00  0.00    +0.000 HD
ENDBRANCH  10  11
ENDBRANCH   6  10
ENDBRANCH   1   8
BRANCH   1  14
ATOM     14  C   UNL     1       3.145   4.519  18.173  0.00  0.00    +0.000 C 
ATOM     15  C   UNL     1       2.738   3.051  17.940  0.00  0.00    +0.000 C 
BRANCH  14  16
ATOM     16  C   UNL     1       4.675   4.750  18.102  0.00  0.00    +0.000 A 
ATOM     17  C   UNL     1       5.393   5.100  19.273  0.00  0.00    +0.000 A 
ATOM     18  C   UNL     1       6.751   5.409  19.240  0.00  0.00    +0.000 A 
ATOM     19  C   UNL     1       7.434   5.396  18.033  0.00  0.00    +0.000 A 
ATOM     20  C   UNL     1       6.777   5.049  16.848  0.00  0.00    +0.000 A 
ATOM     21  C   UNL     1       7.501   5.056  15.642  0.00  0.00    +0.000 A 
ATOM     22  C   UNL     1       6.896   4.691  14.445  0.00  0.00    +0.000 A 
ATOM     23  C   UNL     1       5.562   4.311  14.440  0.00  0.00    +0.000 A 
ATOM     24  C   UNL     1       4.822   4.324  15.627  0.00  0.00    +0.000 A 
ATOM     25  C   UNL     1       5.395   4.702  16.863  0.00  0.00    +0.000 A 
ENDBRANCH  14  16
ENDBRANCH   1  14
TORSDOF 5
ENDMDL
MODEL 6
REMARK VINA RESULT:      -7.3      1.051      1.053
REMARK  Name = 
REMARK  8 active torsions:
REMARK  status: ('A' for Active; 'I' for Inactive)
REMARK    1  A    between atoms: C_1  and  C_2
REMARK    2  A    between atoms: C_4  and  C_5
REMARK    3  A    between atoms: C_5  and  N_6
REMARK    4  A    between atoms: C_8  and  N_9
REMARK    5  A    between atoms: N_9  and  C_10
REMARK    6  A    between atoms: N_9  and  C_11
REMARK    7  A    between atoms: C_11  and  C_12
REMARK    8  A    between atoms: C_11  and  C_13
REMARK                            x       y       z     vdW  Elec       q    Type
REMARK                         _______ _______ _______ _____ _____    ______ ____
ROOT
ATOM      1  N   UNL     1       3.045   5.721  18.131  0.00  0.00    +0.000 N 
ATOM      2  C   UNL     1       2.048   4.717  17.759  0.00  0.00    +0.000 C 
ENDROOT
BRANCH   1   8
ATOM      3  C   UNL     1       6.126   3.878  14.890  0.00  0.00    +0.000 C 
ATOM      4  C   UNL     1       5.842   4.760  16.068  0.00  0.00    +0.000 A 
ATOM      5  N   UNL     1       6.884   5.482  16.517  0.00  0.00    +0.000 NA
ATOM      6  C   UNL     1       6.647   6.265  17.581  0.00  0.00    +0.000 A 
ATOM      7  C   UNL     1       5.393   6.345  18.160  0.00  0.00    +0.000 A 
ATOM      8  C   UNL     1       4.338   5.624  17.605  0.00  0.00    +0.000 A 
ATOM      9  N   UNL     1       4.585   4.803  16.564  0.00  0.00    +0.000 NA
BRANCH   6  10
ATOM     10  C   UNL     1       7.812   7.060  18.126  0.00  0.00    +0.000 C 
BRANCH  10  11
ATOM     11  N   UNL     1       7.715   8.496  17.840  0.00  0.00    +0.000 NA
ATOM     12  H   UNL     1       6.739   8.705  17.624  0.00  0.00    +0.000 HD
ATOM     13  H   UNL     1       8.233   8.689  16.984  0.00  0.00    +0.000 HD
ENDBRANCH  10  11
ENDBRANCH   6  10
ENDBRANCH   1   8
BRANCH   1  14
ATOM     14  C   UNL     1       2.816   6.469  19.395  0.00  0.00    +0.000 C 
ATOM     15  C   UNL     1       2.037   5.608  20.409  0.00  0.00    +0.000 C 
BRANCH  14  16
ATOM     16  C   UNL     1       2.139   7.832  19.101  0.00  0.00    +0.000 A 
ATOM     17  C   UNL     1       2.229   8.402  17.806  0.00  0.00    +0.000 A 
ATOM     18  C   UNL     1       1.718   9.666  17.520  0.00  0.00    +0.000 A 
ATOM     19  C   UNL     1       1.117  10.411  18.523  0.00  0.00    +0.000 A 
ATOM     20  C   UNL     1       0.993   9.894  19.817  0.00  0.00    +0.000 A 
ATOM     21  C   UNL     1       0.385  10.683  20.809  0.00  0.00    +0.000 A 
ATOM     22  C   UNL     1       0.215  10.199  22.101  0.00  0.00    +0.000 A 
ATOM     23  C   UNL     1       0.648   8.919  22.415  0.00  0.00    +0.000 A 
ATOM     24  C   UNL     1       1.278   8.132  21.445  0.00  0.00    +0.000 A 
ATOM     25  C   UNL     1       1.483   8.591  20.124  0.00  0.00    +0.000 A 
ENDBRANCH  14  16
ENDBRANCH   1  14
TORSDOF 5
ENDMDL
MODEL 7
REMARK VINA RESULT:      -7.2      2.218      4.223
REMARK  Name = 
REMARK  8 active torsions:
REMARK  status: ('A' for Active; 'I' for Inactive)
REMARK    1  A    between atoms: C_1  and  C_2
REMARK    2  A    between atoms: C_4  and  C_5
REMARK    3  A    between atoms: C_5  and  N_6
REMARK    4  A    between atoms: C_8  and  N_9
REMARK    5  A    between atoms: N_9  and  C_10
REMARK    6  A    between atoms: N_9  and  C_11
REMARK    7  A    between atoms: C_11  and  C_12
REMARK    8  A    between atoms: C_11  and  C_13
REMARK                            x       y       z     vdW  Elec       q    Type
REMARK                         _______ _______ _______ _____ _____    ______ ____
ROOT
ATOM      1  N   UNL     1       5.479   5.453  16.373  0.00  0.00    +0.000 N 
ATOM      2  C   UNL     1       5.664   5.376  14.923  0.00  0.00    +0.000 C 
ENDROOT
BRANCH   1   8
ATOM      3  C   UNL     1       8.050   9.345  17.647  0.00  0.00    +0.000 C 
ATOM      4  C   UNL     1       7.725   7.890  17.793  0.00  0.00    +0.000 A 
ATOM      5  N   UNL     1       8.397   7.238  18.759  0.00  0.00    +0.000 NA
ATOM      6  C   UNL     1       8.126   5.931  18.890  0.00  0.00    +0.000 A 
ATOM      7  C   UNL     1       7.186   5.299  18.094  0.00  0.00    +0.000 A 
ATOM      8  C   UNL     1       6.474   6.045  17.157  0.00  0.00    +0.000 A 
ATOM      9  N   UNL     1       6.777   7.350  16.995  0.00  0.00    +0.000 NA
BRANCH   6  10
ATOM     10  C   UNL     1       8.894   5.169  19.945  0.00  0.00    +0.000 C 
BRANCH  10  11
ATOM     11  N   UNL     1       8.225   5.157  21.251  0.00  0.00    +0.000 NA
ATOM     12  H   UNL     1       8.922   4.915  21.955  0.00  0.00    +0.000 HD
ATOM     13  H   UNL     1       7.549   4.395  21.259  0.00  0.00    +0.000 HD
ENDBRANCH  10  11
ENDBRANCH   6  10
ENDBRANCH   1   8
BRANCH   1  14
ATOM     14  C   UNL     1       4.532   4.484  16.987  0.00  0.00    +0.000 C 
ATOM     15  C   UNL     1       3.777   3.692  15.901  0.00  0.00    +0.000 C 
BRANCH  14  16
ATOM     16  C   UNL     1       3.593   5.205  17.986  0.00  0.00    +0.000 A 
ATOM     17  C   UNL     1       3.251   6.566  17.779  0.00  0.00    +0.000 A 
ATOM     18  C   UNL     1       2.487   7.281  18.699  0.00  0.00    +0.000 A 
ATOM     19  C   UNL     1       2.055   6.667  19.865  0.00  0.00    +0.000 A 
ATOM     20  C   UNL     1       2.355   5.323  20.115  0.00  0.00    +0.000 A 
ATOM     21  C   UNL     1       1.907   4.738  21.312  0.00  0.00    +0.000 A 
ATOM     22  C   UNL     1       2.157   3.399  21.589  0.00  0.00    +0.000 A 
ATOM     23  C   UNL     1       2.857   2.629  20.671  0.00  0.00    +0.000 A 
ATOM     24  C   UNL     1       3.332   3.205  19.488  0.00  0.00    +0.000 A 
ATOM     25  C   UNL     1       3.111   4.565  19.174  0.00  0.00    +0.000 A 
ENDBRANCH  14  16
ENDBRANCH   1  14
TORSDOF 5
ENDMDL
MODEL 8
REMARK VINA RESULT:      -7.1      2.393      6.181
REMARK  Name = 
REMARK  8 active torsions:
REMARK  status: ('A' for Active; 'I' for Inactive)
REMARK    1  A    between atoms: C_1  and  C_2
REMARK    2  A    between atoms: C_4  and  C_5
REMARK    3  A    between atoms: C_5  and  N_6
REMARK    4  A    between atoms: C_8  and  N_9
REMARK    5  A    between atoms: N_9  and  C_10
REMARK    6  A    between atoms: N_9  and  C_11
REMARK    7  A    between atoms: C_11  and  C_12
REMARK    8  A    between atoms: C_11  and  C_13
REMARK                            x       y       z     vdW  Elec       q    Type
REMARK                         _______ _______ _______ _____ _____    ______ ____
ROOT
ATOM      1  N   UNL     1       3.779   6.867  17.757  0.00  0.00    +0.000 N 
ATOM      2  C   UNL     1       4.444   7.297  16.526  0.00  0.00    +0.000 C 
ENDROOT
BRANCH   1   8
ATOM      3  C   UNL     1       0.888   7.928  21.485  0.00  0.00    +0.000 C 
ATOM      4  C   UNL     1       1.485   8.276  20.156  0.00  0.00    +0.000 A 
ATOM      5  N   UNL     1       1.152   9.484  19.667  0.00  0.00    +0.000 NA
ATOM      6  C   UNL     1       1.668   9.801  18.470  0.00  0.00    +0.000 A 
ATOM      7  C   UNL     1       2.519   8.944  17.794  0.00  0.00    +0.000 A 
ATOM      8  C   UNL     1       2.880   7.735  18.385  0.00  0.00    +0.000 A 
ATOM      9  N   UNL     1       2.327   7.396  19.568  0.00  0.00    +0.000 NA
BRANCH   6  10
ATOM     10  C   UNL     1       1.280  11.139  17.883  0.00  0.00    +0.000 C 
BRANCH  10  11
ATOM     11  N   UNL     1       2.435  11.989  17.571  0.00  0.00    +0.000 NA
ATOM     12  H   UNL     1       2.801  12.350  18.452  0.00  0.00    +0.000 HD
ATOM     13  H   UNL     1       2.105  12.804  17.056  0.00  0.00    +0.000 HD
ENDBRANCH  10  11
ENDBRANCH   6  10
ENDBRANCH   1   8
BRANCH   1  14
ATOM     14  C   UNL     1       4.438   5.790  18.542  0.00  0.00    +0.000 C 
ATOM     15  C   UNL     1       5.935   5.690  18.188  0.00  0.00    +0.000 C 
BRANCH  14  16
ATOM     16  C   UNL     1       3.676   4.452  18.370  0.00  0.00    +0.000 A 
ATOM     17  C   UNL     1       3.645   3.813  17.104  0.00  0.00    +0.000 A 
ATOM     18  C   UNL     1       2.896   2.660  16.880  0.00  0.00    +0.000 A 
ATOM     19  C   UNL     1       2.140   2.116  17.906  0.00  0.00    +0.000 A 
ATOM     20  C   UNL     1       2.141   2.700  19.178  0.00  0.00    +0.000 A 
ATOM     21  C   UNL     1       1.354   2.124  20.191  0.00  0.00    +0.000 A 
ATOM     22  C   UNL     1       1.348   2.653  21.476  0.00  0.00    +0.000 A 
ATOM     23  C   UNL     1       2.130   3.762  21.764  0.00  0.00    +0.000 A 
ATOM     24  C   UNL     1       2.898   4.361  20.760  0.00  0.00    +0.000 A 
ATOM     25  C   UNL     1       2.923   3.863  19.438  0.00  0.00    +0.000 A 
ENDBRANCH  14  16
ENDBRANCH   1  14
TORSDOF 5
ENDMDL
MODEL 9
REMARK VINA RESULT:      -7.1      2.809      5.714
REMARK  Name = 
REMARK  8 active torsions:
REMARK  status: ('A' for Active; 'I' for Inactive)
REMARK    1  A    between atoms: C_1  and  C_2
REMARK    2  A    between atoms: C_4  and  C_5
REMARK    3  A    between atoms: C_5  and  N_6
REMARK    4  A    between atoms: C_8  and  N_9
REMARK    5  A    between atoms: N_9  and  C_10
REMARK    6  A    between atoms: N_9  and  C_11
REMARK    7  A    between atoms: C_11  and  C_12
REMARK    8  A    between atoms: C_11  and  C_13
REMARK                            x       y       z     vdW  Elec       q    Type
REMARK                         _______ _______ _______ _____ _____    ______ ____
ROOT
ATOM      1  N   UNL     1       5.518   5.000  16.350  0.00  0.00    +0.000 N 
ATOM      2  C   UNL     1       6.365   4.752  17.518  0.00  0.00    +0.000 C 
ENDROOT
BRANCH   1   8
ATOM      3  C   UNL     1       8.898   5.780  12.981  0.00  0.00    +0.000 C 
ATOM      4  C   UNL     1       7.636   5.113  13.434  0.00  0.00    +0.000 A 
ATOM      5  N   UNL     1       7.096   4.240  12.565  0.00  0.00    +0.000 NA
ATOM      6  C   UNL     1       5.956   3.647  12.952  0.00  0.00    +0.000 A 
ATOM      7  C   UNL     1       5.388   3.898  14.189  0.00  0.00    +0.000 A 
ATOM      8  C   UNL     1       6.033   4.762  15.071  0.00  0.00    +0.000 A 
ATOM      9  N   UNL     1       7.155   5.392  14.667  0.00  0.00    +0.000 NA
BRANCH   6  10
ATOM     10  C   UNL     1       5.311   2.687  11.977  0.00  0.00    +0.000 C 
BRANCH  10  11
ATOM     11  N   UNL     1       6.208   1.607  11.552  0.00  0.00    +0.000 NA
ATOM     12  H   UNL     1       7.166   1.950  11.629  0.00  0.00    +0.000 HD
ATOM     13  H   UNL     1       6.057   1.436  10.558  0.00  0.00    +0.000 HD
ENDBRANCH  10  11
ENDBRANCH   6  10
ENDBRANCH   1   8
BRANCH   1  14
ATOM     14  C   UNL     1       4.381   5.942  16.525  0.00  0.00    +0.000 C 
ATOM     15  C   UNL     1       4.863   7.404  16.451  0.00  0.00    +0.000 C 
BRANCH  14  16
ATOM     16  C   UNL     1       3.606   5.618  17.827  0.00  0.00    +0.000 A 
ATOM     17  C   UNL     1       3.481   6.602  18.840  0.00  0.00    +0.000 A 
ATOM     18  C   UNL     1       2.876   6.326  20.064  0.00  0.00    +0.000 A 
ATOM     19  C   UNL     1       2.392   5.053  20.325  0.00  0.00    +0.000 A 
ATOM     20  C   UNL     1       2.481   4.046  19.358  0.00  0.00    +0.000 A 
ATOM     21  C   UNL     1       1.987   2.766  19.663  0.00  0.00    +0.000 A 
ATOM     22  C   UNL     1       2.028   1.743  18.722  0.00  0.00    +0.000 A 
ATOM     23  C   UNL     1       2.561   1.989  17.466  0.00  0.00    +0.000 A 
ATOM     24  C   UNL     1       3.080   3.251  17.157  0.00  0.00    +0.000 A 
ATOM     25  C   UNL     1       3.070   4.315  18.088  0.00  0.00    +0.000 A 
ENDBRANCH  14  16
ENDBRANCH   1  14
TORSDOF 5
ENDMDL
