MODEL 1
REMARK VINA RESULT:      -6.0      0.000      0.000
REMARK  Name = 
REMARK  18 active torsions:
REMARK  status: ('A' for Active; 'I' for Inactive)
REMARK    1  A    between atoms: C_1  and  O_2
REMARK    2  A    between atoms: O_2  and  C_3
REMARK    3  A    between atoms: C_3  and  C_5
REMARK    4  A    between atoms: C_7  and  C_8
REMARK    5  A    between atoms: C_9  and  C_10
REMARK    6  A    between atoms: C_10  and  O_12
REMARK    7  A    between atoms: O_12  and  C_13
REMARK    8  A    between atoms: C_13  and  C_14
REMARK    9  A    between atoms: C_14  and  O_15
REMARK   10  A    between atoms: C_14  and  C_16
REMARK   11  A    between atoms: C_16  and  O_17
REMARK   12  A    between atoms: C_18  and  O_19
REMARK   13  A    between atoms: O_19  and  C_20
REMARK   14  A    between atoms: C_21  and  C_22
REMARK   15  A    between atoms: C_22  and  C_24
REMARK   16  A    between atoms: C_25  and  C_26
REMARK   17  A    between atoms: C_28  and  O_29
REMARK   18  A    between atoms: C_31  and  O_32
REMARK                            x       y       z     vdW  Elec       q    Type
REMARK                         _______ _______ _______ _____ _____    ______ ____
ROOT
ATOM      1  C   UNL     1      -3.891  11.431  18.470  0.00  0.00    +0.000 A 
ATOM      2  C   UNL     1      -5.290  11.522  18.484  0.00  0.00    +0.000 A 
ATOM      3  C   UNL     1      -5.973  12.166  19.517  0.00  0.00    +0.000 A 
ATOM      4  C   UNL     1      -7.475  12.226  19.426  0.00  0.00    +0.000 C 
ATOM      5  C   UNL     1      -5.224  12.731  20.572  0.00  0.00    +0.000 A 
ATOM      6  C   UNL     1      -3.795  12.730  20.527  0.00  0.00    +0.000 A 
ATOM      7  C   UNL     1      -3.111  12.061  19.464  0.00  0.00    +0.000 A 
ENDROOT
BRANCH   1   8
ATOM      8  C   UNL     1      -3.336  10.586  17.385  0.00  0.00    +0.000 C 
ATOM      9  O   UNL     1      -3.134   9.394  17.482  0.00  0.00    +0.000 OA
BRANCH   8  11
ATOM     10  C   UNL     1      -2.987  10.631  15.062  0.00  0.00    +0.000 C 
ATOM     11  O   UNL     1      -3.130  11.363  16.282  0.00  0.00    +0.000 OA
ENDBRANCH   8  11
ENDBRANCH   1   8
BRANCH   5  12
ATOM     12  C   UNL     1      -5.960  13.390  21.692  0.00  0.00    +0.000 C 
ATOM     13  O   UNL     1      -6.414  14.524  21.643  0.00  0.00    +0.000 OA
BRANCH  12  14
ATOM     14  O   UNL     1      -6.084  12.559  22.761  0.00  0.00    +0.000 OA
BRANCH  14  15
ATOM     15  C   UNL     1      -5.914  13.211  24.036  0.00  0.00    +0.000 C 
BRANCH  15  16
ATOM     16  C   UNL     1      -4.533  12.855  24.611  0.00  0.00    +0.000 C 
BRANCH  16  17
ATOM     17  O   UNL     1      -3.872  11.836  23.851  0.00  0.00    +0.000 OA
ATOM     18  H   UNL     1      -4.048  10.974  24.277  0.00  0.00    +0.000 HD
ENDBRANCH  16  17
BRANCH  16  19
ATOM     19  C   UNL     1      -3.610  14.073  24.683  0.00  0.00    +0.000 C 
BRANCH  19  20
ATOM     20  O   UNL     1      -4.353  15.291  24.771  0.00  0.00    +0.000 OA
ATOM     21  H   UNL     1      -4.323  15.723  23.897  0.00  0.00    +0.000 HD
ENDBRANCH  19  20
ENDBRANCH  16  19
ENDBRANCH  15  16
ENDBRANCH  14  15
ENDBRANCH  12  14
ENDBRANCH   5  12
BRANCH   6  22
ATOM     22  O   UNL     1      -3.198  13.643  21.377  0.00  0.00    +0.000 OA
ATOM     23  C   UNL     1      -2.954  14.971  20.919  0.00  0.00    +0.000 C 
ENDBRANCH   6  22
BRANCH   7  24
ATOM     24  C   UNL     1      -1.620  11.947  19.457  0.00  0.00    +0.000 C 
ATOM     25  O   UNL     1      -1.031  12.854  18.885  0.00  0.00    +0.000 OA
BRANCH  24  26
ATOM     26  C   UNL     1      -0.791  10.927  20.175  0.00  0.00    +0.000 A 
ATOM     27  C   UNL     1       0.049  10.033  19.442  0.00  0.00    +0.000 A 
ATOM     28  C   UNL     1       0.093   9.849  17.941  0.00  0.00    +0.000 C 
ATOM     29  C   UNL     1       0.965   9.224  20.142  0.00  0.00    +0.000 A 
ATOM     30  C   UNL     1       1.047   9.275  21.525  0.00  0.00    +0.000 A 
ATOM     31  C   UNL     1       0.174  10.063  22.255  0.00  0.00    +0.000 A 
ATOM     32  C   UNL     1      -0.753  10.865  21.583  0.00  0.00    +0.000 A 
BRANCH  30  33
ATOM     33  O   UNL     1       1.986   8.555  22.198  0.00  0.00    +0.000 OA
ATOM     34  H   UNL     1       1.585   8.213  23.015  0.00  0.00    +0.000 HD
ENDBRANCH  30  33
BRANCH  32  35
ATOM     35  O   UNL     1      -1.613  11.621  22.337  0.00  0.00    +0.000 OA
ATOM     36  H   UNL     1      -2.460  11.707  21.862  0.00  0.00    +0.000 HD
ENDBRANCH  32  35
ENDBRANCH  24  26
ENDBRANCH   7  24
TORSDOF 14
ENDMDL
MODEL 2
REMARK VINA RESULT:      -5.6      6.808     12.017
REMARK  Name = 
REMARK  18 active torsions:
REMARK  status: ('A' for Active; 'I' for Inactive)
REMARK    1  A    between atoms: C_1  and  O_2
REMARK    2  A    between atoms: O_2  and  C_3
REMARK    3  A    between atoms: C_3  and  C_5
REMARK    4  A    between atoms: C_7  and  C_8
REMARK    5  A    between atoms: C_9  and  C_10
REMARK    6  A    between atoms: C_10  and  O_12
REMARK    7  A    between atoms: O_12  and  C_13
REMARK    8  A    between atoms: C_13  and  C_14
REMARK    9  A    between atoms: C_14  and  O_15
REMARK   10  A    between atoms: C_14  and  C_16
REMARK   11  A    between atoms: C_16  and  O_17
REMARK   12  A    between atoms: C_18  and  O_19
REMARK   13  A    between atoms: O_19  and  C_20
REMARK   14  A    between atoms: C_21  and  C_22
REMARK   15  A    between atoms: C_22  and  C_24
REMARK   16  A    between atoms: C_25  and  C_26
REMARK   17  A    between atoms: C_28  and  O_29
REMARK   18  A    between atoms: C_31  and  O_32
REMARK                            x       y       z     vdW  Elec       q    Type
REMARK                         _______ _______ _______ _____ _____    ______ ____
ROOT
ATOM      1  C   UNL     1       3.711   7.263  17.758  0.00  0.00    +0.000 A 
ATOM      2  C   UNL     1       4.968   7.814  17.465  0.00  0.00    +0.000 A 
ATOM      3  C   UNL     1       6.116   7.023  17.394  0.00  0.00    +0.000 A 
ATOM      4  C   UNL     1       7.412   7.709  17.052  0.00  0.00    +0.000 C 
ATOM      5  C   UNL     1       5.996   5.637  17.629  0.00  0.00    +0.000 A 
ATOM      6  C   UNL     1       4.711   5.045  17.836  0.00  0.00    +0.000 A 
ATOM      7  C   UNL     1       3.545   5.869  17.912  0.00  0.00    +0.000 A 
ENDROOT
BRANCH   1   8
ATOM      8  C   UNL     1       2.627   8.259  17.945  0.00  0.00    +0.000 C 
ATOM      9  O   UNL     1       2.183   8.960  17.061  0.00  0.00    +0.000 OA
BRANCH   8  11
ATOM     10  C   UNL     1       1.225   9.198  19.578  0.00  0.00    +0.000 C 
ATOM     11  O   UNL     1       2.214   8.221  19.245  0.00  0.00    +0.000 OA
ENDBRANCH   8  11
ENDBRANCH   1   8
BRANCH   5  12
ATOM     12  C   UNL     1       7.233   4.799  17.585  0.00  0.00    +0.000 C 
ATOM     13  O   UNL     1       7.811   4.375  18.575  0.00  0.00    +0.000 OA
BRANCH  12  14
ATOM     14  O   UNL     1       7.615   4.547  16.305  0.00  0.00    +0.000 OA
BRANCH  14  15
ATOM     15  C   UNL     1       6.574   3.984  15.481  0.00  0.00    +0.000 C 
BRANCH  15  16
ATOM     16  C   UNL     1       6.569   4.686  14.113  0.00  0.00    +0.000 C 
BRANCH  16  17
ATOM     17  O   UNL     1       7.675   5.586  13.958  0.00  0.00    +0.000 OA
ATOM     18  H   UNL     1       8.096   5.406  13.095  0.00  0.00    +0.000 HD
ENDBRANCH  16  17
BRANCH  16  19
ATOM     19  C   UNL     1       6.598   3.688  12.954  0.00  0.00    +0.000 C 
BRANCH  19  20
ATOM     20  O   UNL     1       5.298   3.503  12.389  0.00  0.00    +0.000 OA
ATOM     21  H   UNL     1       5.225   2.574  12.103  0.00  0.00    +0.000 HD
ENDBRANCH  19  20
ENDBRANCH  16  19
ENDBRANCH  15  16
ENDBRANCH  14  15
ENDBRANCH  12  14
ENDBRANCH   5  12
BRANCH   6  22
ATOM     22  O   UNL     1       4.678   3.675  17.649  0.00  0.00    +0.000 OA
ATOM     23  C   UNL     1       4.785   2.811  18.778  0.00  0.00    +0.000 C 
ENDBRANCH   6  22
BRANCH   7  24
ATOM     24  C   UNL     1       2.208   5.288  18.241  0.00  0.00    +0.000 C 
ATOM     25  O   UNL     1       1.333   5.490  17.411  0.00  0.00    +0.000 OA
BRANCH  24  26
ATOM     26  C   UNL     1       1.875   4.392  19.395  0.00  0.00    +0.000 A 
ATOM     27  C   UNL     1       1.509   3.030  19.168  0.00  0.00    +0.000 A 
ATOM     28  C   UNL     1       1.230   2.370  17.836  0.00  0.00    +0.000 C 
ATOM     29  C   UNL     1       1.398   2.157  20.269  0.00  0.00    +0.000 A 
ATOM     30  C   UNL     1       1.622   2.610  21.560  0.00  0.00    +0.000 A 
ATOM     31  C   UNL     1       1.880   3.947  21.804  0.00  0.00    +0.000 A 
ATOM     32  C   UNL     1       1.983   4.834  20.729  0.00  0.00    +0.000 A 
BRANCH  30  33
ATOM     33  O   UNL     1       1.595   1.753  22.617  0.00  0.00    +0.000 OA
ATOM     34  H   UNL     1       1.407   0.858  22.285  0.00  0.00    +0.000 HD
ENDBRANCH  30  33
BRANCH  32  35
ATOM     35  O   UNL     1       2.225   6.155  21.007  0.00  0.00    +0.000 OA
ATOM     36  H   UNL     1       2.989   6.456  20.481  0.00  0.00    +0.000 HD
ENDBRANCH  32  35
ENDBRANCH  24  26
ENDBRANCH   7  24
TORSDOF 14
ENDMDL
MODEL 3
REMARK VINA RESULT:      -5.5      4.004      9.258
REMARK  Name = 
REMARK  18 active torsions:
REMARK  status: ('A' for Active; 'I' for Inactive)
REMARK    1  A    between atoms: C_1  and  O_2
REMARK    2  A    between atoms: O_2  and  C_3
REMARK    3  A    between atoms: C_3  and  C_5
REMARK    4  A    between atoms: C_7  and  C_8
REMARK    5  A    between atoms: C_9  and  C_10
REMARK    6  A    between atoms: C_10  and  O_12
REMARK    7  A    between atoms: O_12  and  C_13
REMARK    8  A    between atoms: C_13  and  C_14
REMARK    9  A    between atoms: C_14  and  O_15
REMARK   10  A    between atoms: C_14  and  C_16
REMARK   11  A    between atoms: C_16  and  O_17
REMARK   12  A    between atoms: C_18  and  O_19
REMARK   13  A    between atoms: O_19  and  C_20
REMARK   14  A    between atoms: C_21  and  C_22
REMARK   15  A    between atoms: C_22  and  C_24
REMARK   16  A    between atoms: C_25  and  C_26
REMARK   17  A    between atoms: C_28  and  O_29
REMARK   18  A    between atoms: C_31  and  O_32
REMARK                            x       y       z     vdW  Elec       q    Type
REMARK                         _______ _______ _______ _____ _____    ______ ____
ROOT
ATOM      1  C   UNL     1       1.423   8.120  20.839  0.00  0.00    +0.000 A 
ATOM      2  C   UNL     1       1.500   6.771  21.215  0.00  0.00    +0.000 A 
ATOM      3  C   UNL     1       1.721   5.760  20.279  0.00  0.00    +0.000 A 
ATOM      4  C   UNL     1       1.808   4.346  20.789  0.00  0.00    +0.000 C 
ATOM      5  C   UNL     1       1.863   6.117  18.921  0.00  0.00    +0.000 A 
ATOM      6  C   UNL     1       1.881   7.493  18.532  0.00  0.00    +0.000 A 
ATOM      7  C   UNL     1       1.648   8.516  19.503  0.00  0.00    +0.000 A 
ENDROOT
BRANCH   1   8
ATOM      8  C   UNL     1       1.033   9.046  21.930  0.00  0.00    +0.000 C 
ATOM      9  O   UNL     1       1.812   9.737  22.551  0.00  0.00    +0.000 OA
BRANCH   8  11
ATOM     10  C   UNL     1      -0.834   9.896  23.075  0.00  0.00    +0.000 C 
ATOM     11  O   UNL     1      -0.322   9.002  22.083  0.00  0.00    +0.000 OA
ENDBRANCH   8  11
ENDBRANCH   1   8
BRANCH   5  12
ATOM     12  C   UNL     1       2.066   5.029  17.917  0.00  0.00    +0.000 C 
ATOM     13  O   UNL     1       1.164   4.351  17.447  0.00  0.00    +0.000 OA
BRANCH  12  14
ATOM     14  O   UNL     1       3.376   4.909  17.574  0.00  0.00    +0.000 OA
BRANCH  14  15
ATOM     15  C   UNL     1       3.952   3.625  17.890  0.00  0.00    +0.000 C 
BRANCH  15  16
ATOM     16  C   UNL     1       4.765   3.736  19.190  0.00  0.00    +0.000 C 
BRANCH  16  17
ATOM     17  O   UNL     1       5.311   2.476  19.601  0.00  0.00    +0.000 OA
ATOM     18  H   UNL     1       4.879   2.214  20.438  0.00  0.00    +0.000 HD
ENDBRANCH  16  17
BRANCH  16  19
ATOM     19  C   UNL     1       5.914   4.738  19.066  0.00  0.00    +0.000 C 
BRANCH  19  20
ATOM     20  O   UNL     1       7.002   4.199  18.311  0.00  0.00    +0.000 OA
ATOM     21  H   UNL     1       7.828   4.406  18.786  0.00  0.00    +0.000 HD
ENDBRANCH  19  20
ENDBRANCH  16  19
ENDBRANCH  15  16
ENDBRANCH  14  15
ENDBRANCH  12  14
ENDBRANCH   5  12
BRANCH   6  22
ATOM     22  O   UNL     1       2.422   7.724  17.280  0.00  0.00    +0.000 OA
ATOM     23  C   UNL     1       3.836   7.817  17.133  0.00  0.00    +0.000 C 
ENDBRANCH   6  22
BRANCH   7  24
ATOM     24  C   UNL     1       1.546   9.953  19.101  0.00  0.00    +0.000 C 
ATOM     25  O   UNL     1       2.494  10.382  18.456  0.00  0.00    +0.000 OA
BRANCH  24  26
ATOM     26  C   UNL     1       0.371  10.862  19.293  0.00  0.00    +0.000 A 
ATOM     27  C   UNL     1      -0.843  10.631  18.576  0.00  0.00    +0.000 A 
ATOM     28  C   UNL     1      -1.066   9.639  17.456  0.00  0.00    +0.000 C 
ATOM     29  C   UNL     1      -1.993  11.369  18.919  0.00  0.00    +0.000 A 
ATOM     30  C   UNL     1      -1.953  12.321  19.926  0.00  0.00    +0.000 A 
ATOM     31  C   UNL     1      -0.762  12.624  20.563  0.00  0.00    +0.000 A 
ATOM     32  C   UNL     1       0.395  11.913  20.230  0.00  0.00    +0.000 A 
BRANCH  30  33
ATOM     33  O   UNL     1      -3.080  12.977  20.315  0.00  0.00    +0.000 OA
ATOM     34  H   UNL     1      -3.237  13.713  19.698  0.00  0.00    +0.000 HD
ENDBRANCH  30  33
BRANCH  32  35
ATOM     35  O   UNL     1       1.561  12.250  20.869  0.00  0.00    +0.000 OA
ATOM     36  H   UNL     1       2.029  12.923  20.343  0.00  0.00    +0.000 HD
ENDBRANCH  32  35
ENDBRANCH  24  26
ENDBRANCH   7  24
TORSDOF 14
ENDMDL
MODEL 4
REMARK VINA RESULT:      -5.5      0.871      1.874
REMARK  Name = 
REMARK  18 active torsions:
REMARK  status: ('A' for Active; 'I' for Inactive)
REMARK    1  A    between atoms: C_1  and  O_2
REMARK    2  A    between atoms: O_2  and  C_3
REMARK    3  A    between atoms: C_3  and  C_5
REMARK    4  A    between atoms: C_7  and  C_8
REMARK    5  A    between atoms: C_9  and  C_10
REMARK    6  A    between atoms: C_10  and  O_12
REMARK    7  A    between atoms: O_12  and  C_13
REMARK    8  A    between atoms: C_13  and  C_14
REMARK    9  A    between atoms: C_14  and  O_15
REMARK   10  A    between atoms: C_14  and  C_16
REMARK   11  A    between atoms: C_16  and  O_17
REMARK   12  A    between atoms: C_18  and  O_19
REMARK   13  A    between atoms: O_19  and  C_20
REMARK   14  A    between atoms: C_21  and  C_22
REMARK   15  A    between atoms: C_22  and  C_24
REMARK   16  A    between atoms: C_25  and  C_26
REMARK   17  A    between atoms: C_28  and  O_29
REMARK   18  A    between atoms: C_31  and  O_32
REMARK                            x       y       z     vdW  Elec       q    Type
REMARK                         _______ _______ _______ _____ _____    ______ ____
ROOT
ATOM      1  C   UNL     1      -3.637  11.185  18.163  0.00  0.00    +0.000 A 
ATOM      2  C   UNL     1      -5.039  11.142  18.171  0.00  0.00    +0.000 A 
ATOM      3  C   UNL     1      -5.786  11.794  19.152  0.00  0.00    +0.000 A 
ATOM      4  C   UNL     1      -7.287  11.704  19.059  0.00  0.00    +0.000 C 
ATOM      5  C   UNL     1      -5.101  12.508  20.160  0.00  0.00    +0.000 A 
ATOM      6  C   UNL     1      -3.679  12.641  20.114  0.00  0.00    +0.000 A 
ATOM      7  C   UNL     1      -2.927  11.961  19.105  0.00  0.00    +0.000 A 
ENDROOT
BRANCH   1   8
ATOM      8  C   UNL     1      -2.997  10.316  17.145  0.00  0.00    +0.000 C 
ATOM      9  O   UNL     1      -2.053   9.587  17.364  0.00  0.00    +0.000 OA
BRANCH   8  11
ATOM     10  C   UNL     1      -2.849  10.271  14.801  0.00  0.00    +0.000 C 
ATOM     11  O   UNL     1      -3.662  10.459  15.962  0.00  0.00    +0.000 OA
ENDBRANCH   8  11
ENDBRANCH   1   8
BRANCH   5  12
ATOM     12  C   UNL     1      -5.905  13.177  21.227  0.00  0.00    +0.000 C 
ATOM     13  O   UNL     1      -6.568  14.189  21.055  0.00  0.00    +0.000 OA
BRANCH  12  14
ATOM     14  O   UNL     1      -5.824  12.502  22.405  0.00  0.00    +0.000 OA
BRANCH  14  15
ATOM     15  C   UNL     1      -5.993  13.333  23.571  0.00  0.00    +0.000 C 
BRANCH  15  16
ATOM     16  C   UNL     1      -4.633  13.926  23.977  0.00  0.00    +0.000 C 
BRANCH  16  17
ATOM     17  O   UNL     1      -4.770  15.113  24.769  0.00  0.00    +0.000 OA
ATOM     18  H   UNL     1      -4.032  15.714  24.548  0.00  0.00    +0.000 HD
ENDBRANCH  16  17
BRANCH  16  19
ATOM     19  C   UNL     1      -3.780  12.924  24.759  0.00  0.00    +0.000 C 
BRANCH  19  20
ATOM     20  O   UNL     1      -4.406  11.641  24.825  0.00  0.00    +0.000 OA
ATOM     21  H   UNL     1      -5.226  11.734  25.344  0.00  0.00    +0.000 HD
ENDBRANCH  19  20
ENDBRANCH  16  19
ENDBRANCH  15  16
ENDBRANCH  14  15
ENDBRANCH  12  14
ENDBRANCH   5  12
BRANCH   6  22
ATOM     22  O   UNL     1      -3.177  13.669  20.890  0.00  0.00    +0.000 OA
ATOM     23  C   UNL     1      -3.169  14.998  20.373  0.00  0.00    +0.000 C 
ENDBRANCH   6  22
BRANCH   7  24
ATOM     24  C   UNL     1      -1.432  11.990  19.104  0.00  0.00    +0.000 C 
ATOM     25  O   UNL     1      -0.930  12.972  18.573  0.00  0.00    +0.000 OA
BRANCH  24  26
ATOM     26  C   UNL     1      -0.512  11.026  19.789  0.00  0.00    +0.000 A 
ATOM     27  C   UNL     1      -0.578  10.848  21.205  0.00  0.00    +0.000 A 
ATOM     28  C   UNL     1      -1.378  11.669  22.191  0.00  0.00    +0.000 C 
ATOM     29  C   UNL     1       0.150   9.797  21.798  0.00  0.00    +0.000 A 
ATOM     30  C   UNL     1       0.936   8.954  21.028  0.00  0.00    +0.000 A 
ATOM     31  C   UNL     1       1.087   9.173  19.670  0.00  0.00    +0.000 A 
ATOM     32  C   UNL     1       0.384  10.218  19.061  0.00  0.00    +0.000 A 
BRANCH  30  33
ATOM     33  O   UNL     1       1.576   7.889  21.586  0.00  0.00    +0.000 OA
ATOM     34  H   UNL     1       2.137   8.213  22.311  0.00  0.00    +0.000 HD
ENDBRANCH  30  33
BRANCH  32  35
ATOM     35  O   UNL     1       0.568  10.417  17.717  0.00  0.00    +0.000 OA
ATOM     36  H   UNL     1       1.507  10.621  17.551  0.00  0.00    +0.000 HD
ENDBRANCH  32  35
ENDBRANCH  24  26
ENDBRANCH   7  24
TORSDOF 14
ENDMDL
MODEL 5
REMARK VINA RESULT:      -5.5      2.316      3.279
REMARK  Name = 
REMARK  18 active torsions:
REMARK  status: ('A' for Active; 'I' for Inactive)
REMARK    1  A    between atoms: C_1  and  O_2
REMARK    2  A    between atoms: O_2  and  C_3
REMARK    3  A    between atoms: C_3  and  C_5
REMARK    4  A    between atoms: C_7  and  C_8
REMARK    5  A    between atoms: C_9  and  C_10
REMARK    6  A    between atoms: C_10  and  O_12
REMARK    7  A    between atoms: O_12  and  C_13
REMARK    8  A    between atoms: C_13  and  C_14
REMARK    9  A    between atoms: C_14  and  O_15
REMARK   10  A    between atoms: C_14  and  C_16
REMARK   11  A    between atoms: C_16  and  O_17
REMARK   12  A    between atoms: C_18  and  O_19
REMARK   13  A    between atoms: O_19  and  C_20
REMARK   14  A    between atoms: C_21  and  C_22
REMARK   15  A    between atoms: C_22  and  C_24
REMARK   16  A    between atoms: C_25  and  C_26
REMARK   17  A    between atoms: C_28  and  O_29
REMARK   18  A    between atoms: C_31  and  O_32
REMARK                            x       y       z     vdW  Elec       q    Type
REMARK                         _______ _______ _______ _____ _____    ______ ____
ROOT
ATOM      1  C   UNL     1      -2.766  11.601  18.641  0.00  0.00    +0.000 A 
ATOM      2  C   UNL     1      -4.155  11.743  18.508  0.00  0.00    +0.000 A 
ATOM      3  C   UNL     1      -4.943  12.246  19.545  0.00  0.00    +0.000 A 
ATOM      4  C   UNL     1      -6.422  12.378  19.293  0.00  0.00    +0.000 C 
ATOM      5  C   UNL     1      -4.314  12.612  20.754  0.00  0.00    +0.000 A 
ATOM      6  C   UNL     1      -2.890  12.563  20.874  0.00  0.00    +0.000 A 
ATOM      7  C   UNL     1      -2.097  12.040  19.804  0.00  0.00    +0.000 A 
ENDROOT
BRANCH   1   8
ATOM      8  C   UNL     1      -2.103  10.912  17.507  0.00  0.00    +0.000 C 
ATOM      9  O   UNL     1      -1.377   9.948  17.623  0.00  0.00    +0.000 OA
BRANCH   8  11
ATOM     10  C   UNL     1      -2.858  10.623  15.301  0.00  0.00    +0.000 C 
ATOM     11  O   UNL     1      -2.472  11.523  16.344  0.00  0.00    +0.000 OA
ENDBRANCH   8  11
ENDBRANCH   1   8
BRANCH   5  12
ATOM     12  C   UNL     1      -5.165  13.119  21.873  0.00  0.00    +0.000 C 
ATOM     13  O   UNL     1      -5.628  12.414  22.757  0.00  0.00    +0.000 OA
BRANCH  12  14
ATOM     14  O   UNL     1      -5.334  14.466  21.796  0.00  0.00    +0.000 OA
BRANCH  14  15
ATOM     15  C   UNL     1      -6.671  14.908  22.104  0.00  0.00    +0.000 C 
BRANCH  15  16
ATOM     16  C   UNL     1      -6.723  15.407  23.558  0.00  0.00    +0.000 C 
BRANCH  16  17
ATOM     17  O   UNL     1      -7.162  14.390  24.468  0.00  0.00    +0.000 OA
ATOM     18  H   UNL     1      -6.384  14.063  24.959  0.00  0.00    +0.000 HD
ENDBRANCH  16  17
BRANCH  16  19
ATOM     19  C   UNL     1      -5.365  15.924  24.037  0.00  0.00    +0.000 C 
BRANCH  19  20
ATOM     20  O   UNL     1      -4.587  14.882  24.632  0.00  0.00    +0.000 OA
ATOM     21  H   UNL     1      -4.003  14.514  23.943  0.00  0.00    +0.000 HD
ENDBRANCH  19  20
ENDBRANCH  16  19
ENDBRANCH  15  16
ENDBRANCH  14  15
ENDBRANCH  12  14
ENDBRANCH   5  12
BRANCH   6  22
ATOM     22  O   UNL     1      -2.380  13.310  21.920  0.00  0.00    +0.000 OA
ATOM     23  C   UNL     1      -2.017  12.659  23.134  0.00  0.00    +0.000 C 
ENDBRANCH   6  22
BRANCH   7  24
ATOM     24  C   UNL     1      -0.619  11.870  19.950  0.00  0.00    +0.000 C 
ATOM     25  O   UNL     1      -0.269  10.956  20.684  0.00  0.00    +0.000 OA
BRANCH  24  26
ATOM     26  C   UNL     1       0.450  12.607  19.203  0.00  0.00    +0.000 A 
ATOM     27  C   UNL     1       0.523  14.032  19.266  0.00  0.00    +0.000 A 
ATOM     28  C   UNL     1      -0.491  14.970  19.883  0.00  0.00    +0.000 C 
ATOM     29  C   UNL     1       1.647  14.686  18.725  0.00  0.00    +0.000 A 
ATOM     30  C   UNL     1       2.667  13.966  18.122  0.00  0.00    +0.000 A 
ATOM     31  C   UNL     1       2.565  12.594  17.966  0.00  0.00    +0.000 A 
ATOM     32  C   UNL     1       1.452  11.925  18.484  0.00  0.00    +0.000 A 
BRANCH  30  33
ATOM     33  O   UNL     1       3.792  14.586  17.671  0.00  0.00    +0.000 OA
ATOM     34  H   UNL     1       3.565  15.095  16.874  0.00  0.00    +0.000 HD
ENDBRANCH  30  33
BRANCH  32  35
ATOM     35  O   UNL     1       1.375  10.568  18.298  0.00  0.00    +0.000 OA
ATOM     36  H   UNL     1       0.522  10.352  17.880  0.00  0.00    +0.000 HD
ENDBRANCH  32  35
ENDBRANCH  24  26
ENDBRANCH   7  24
TORSDOF 14
ENDMDL
MODEL 6
REMARK VINA RESULT:      -5.3      1.473      2.154
REMARK  Name = 
REMARK  18 active torsions:
REMARK  status: ('A' for Active; 'I' for Inactive)
REMARK    1  A    between atoms: C_1  and  O_2
REMARK    2  A    between atoms: O_2  and  C_3
REMARK    3  A    between atoms: C_3  and  C_5
REMARK    4  A    between atoms: C_7  and  C_8
REMARK    5  A    between atoms: C_9  and  C_10
REMARK    6  A    between atoms: C_10  and  O_12
REMARK    7  A    between atoms: O_12  and  C_13
REMARK    8  A    between atoms: C_13  and  C_14
REMARK    9  A    between atoms: C_14  and  O_15
REMARK   10  A    between atoms: C_14  and  C_16
REMARK   11  A    between atoms: C_16  and  O_17
REMARK   12  A    between atoms: C_18  and  O_19
REMARK   13  A    between atoms: O_19  and  C_20
REMARK   14  A    between atoms: C_21  and  C_22
REMARK   15  A    between atoms: C_22  and  C_24
REMARK   16  A    between atoms: C_25  and  C_26
REMARK   17  A    between atoms: C_28  and  O_29
REMARK   18  A    between atoms: C_31  and  O_32
REMARK                            x       y       z     vdW  Elec       q    Type
REMARK                         _______ _______ _______ _____ _____    ______ ____
ROOT
ATOM      1  C   UNL     1      -2.672  11.083  18.159  0.00  0.00    +0.000 A 
ATOM      2  C   UNL     1      -4.057  11.282  18.248  0.00  0.00    +0.000 A 
ATOM      3  C   UNL     1      -4.624  12.046  19.270  0.00  0.00    +0.000 A 
ATOM      4  C   UNL     1      -6.120  12.215  19.264  0.00  0.00    +0.000 C 
ATOM      5  C   UNL     1      -3.769  12.624  20.233  0.00  0.00    +0.000 A 
ATOM      6  C   UNL     1      -2.350  12.510  20.104  0.00  0.00    +0.000 A 
ATOM      7  C   UNL     1      -1.786  11.719  19.056  0.00  0.00    +0.000 A 
ENDROOT
BRANCH   1   8
ATOM      8  C   UNL     1      -2.250  10.124  17.108  0.00  0.00    +0.000 C 
ATOM      9  O   UNL     1      -1.177   9.562  17.086  0.00  0.00    +0.000 OA
BRANCH   8  11
ATOM     10  C   UNL     1      -2.920  10.263  14.861  0.00  0.00    +0.000 C 
ATOM     11  O   UNL     1      -3.272   9.971  16.216  0.00  0.00    +0.000 OA
ENDBRANCH   8  11
ENDBRANCH   1   8
BRANCH   5  12
ATOM     12  C   UNL     1      -4.382  13.414  21.344  0.00  0.00    +0.000 C 
ATOM     13  O   UNL     1      -4.799  14.557  21.225  0.00  0.00    +0.000 OA
BRANCH  12  14
ATOM     14  O   UNL     1      -4.442  12.690  22.493  0.00  0.00    +0.000 OA
BRANCH  14  15
ATOM     15  C   UNL     1      -4.646  13.485  23.679  0.00  0.00    +0.000 C 
BRANCH  15  16
ATOM     16  C   UNL     1      -3.335  13.553  24.480  0.00  0.00    +0.000 C 
BRANCH  16  17
ATOM     17  O   UNL     1      -2.178  13.410  23.645  0.00  0.00    +0.000 OA
ATOM     18  H   UNL     1      -1.971  14.282  23.257  0.00  0.00    +0.000 HD
ENDBRANCH  16  17
BRANCH  16  19
ATOM     19  C   UNL     1      -3.204  14.863  25.259  0.00  0.00    +0.000 C 
BRANCH  19  20
ATOM     20  O   UNL     1      -4.298  15.744  24.991  0.00  0.00    +0.000 OA
ATOM     21  H   UNL     1      -3.959  16.658  25.017  0.00  0.00    +0.000 HD
ENDBRANCH  19  20
ENDBRANCH  16  19
ENDBRANCH  15  16
ENDBRANCH  14  15
ENDBRANCH  12  14
ENDBRANCH   5  12
BRANCH   6  22
ATOM     22  O   UNL     1      -1.635  13.432  20.848  0.00  0.00    +0.000 OA
ATOM     23  C   UNL     1      -1.371  14.721  20.299  0.00  0.00    +0.000 C 
ENDBRANCH   6  22
BRANCH   7  24
ATOM     24  C   UNL     1      -0.311  11.491  18.968  0.00  0.00    +0.000 C 
ATOM     25  O   UNL     1       0.332  12.415  18.489  0.00  0.00    +0.000 OA
BRANCH  24  26
ATOM     26  C   UNL     1       0.455  10.325  19.517  0.00  0.00    +0.000 A 
ATOM     27  C   UNL     1       0.228   9.879  20.855  0.00  0.00    +0.000 A 
ATOM     28  C   UNL     1      -0.605  10.564  21.916  0.00  0.00    +0.000 C 
ATOM     29  C   UNL     1       0.805   8.667  21.281  0.00  0.00    +0.000 A 
ATOM     30  C   UNL     1       1.599   7.919  20.425  0.00  0.00    +0.000 A 
ATOM     31  C   UNL     1       1.907   8.385  19.159  0.00  0.00    +0.000 A 
ATOM     32  C   UNL     1       1.356   9.593  18.719  0.00  0.00    +0.000 A 
BRANCH  30  33
ATOM     33  O   UNL     1       2.092   6.708  20.805  0.00  0.00    +0.000 OA
ATOM     34  H   UNL     1       1.640   6.016  20.292  0.00  0.00    +0.000 HD
ENDBRANCH  30  33
BRANCH  32  35
ATOM     35  O   UNL     1       1.694  10.034  17.466  0.00  0.00    +0.000 OA
ATOM     36  H   UNL     1       0.884  10.132  16.933  0.00  0.00    +0.000 HD
ENDBRANCH  32  35
ENDBRANCH  24  26
ENDBRANCH   7  24
TORSDOF 14
ENDMDL
MODEL 7
REMARK VINA RESULT:      -5.2      4.137      9.356
REMARK  Name = 
REMARK  18 active torsions:
REMARK  status: ('A' for Active; 'I' for Inactive)
REMARK    1  A    between atoms: C_1  and  O_2
REMARK    2  A    between atoms: O_2  and  C_3
REMARK    3  A    between atoms: C_3  and  C_5
REMARK    4  A    between atoms: C_7  and  C_8
REMARK    5  A    between atoms: C_9  and  C_10
REMARK    6  A    between atoms: C_10  and  O_12
REMARK    7  A    between atoms: O_12  and  C_13
REMARK    8  A    between atoms: C_13  and  C_14
REMARK    9  A    between atoms: C_14  and  O_15
REMARK   10  A    between atoms: C_14  and  C_16
REMARK   11  A    between atoms: C_16  and  O_17
REMARK   12  A    between atoms: C_18  and  O_19
REMARK   13  A    between atoms: O_19  and  C_20
REMARK   14  A    between atoms: C_21  and  C_22
REMARK   15  A    between atoms: C_22  and  C_24
REMARK   16  A    between atoms: C_25  and  C_26
REMARK   17  A    between atoms: C_28  and  O_29
REMARK   18  A    between atoms: C_31  and  O_32
REMARK                            x       y       z     vdW  Elec       q    Type
REMARK                         _______ _______ _______ _____ _____    ______ ____
ROOT
ATOM      1  C   UNL     1       1.427   8.167  20.852  0.00  0.00    +0.000 A 
ATOM      2  C   UNL     1       1.544   6.821  21.231  0.00  0.00    +0.000 A 
ATOM      3  C   UNL     1       1.791   5.815  20.295  0.00  0.00    +0.000 A 
ATOM      4  C   UNL     1       1.919   4.405  20.808  0.00  0.00    +0.000 C 
ATOM      5  C   UNL     1       1.920   6.174  18.936  0.00  0.00    +0.000 A 
ATOM      6  C   UNL     1       1.898   7.549  18.545  0.00  0.00    +0.000 A 
ATOM      7  C   UNL     1       1.638   8.567  19.515  0.00  0.00    +0.000 A 
ENDROOT
BRANCH   1   8
ATOM      8  C   UNL     1       1.014   9.083  21.943  0.00  0.00    +0.000 C 
ATOM      9  O   UNL     1       1.778   9.777  22.579  0.00  0.00    +0.000 OA
BRANCH   8  11
ATOM     10  C   UNL     1      -0.873   9.881  23.093  0.00  0.00    +0.000 C 
ATOM     11  O   UNL     1      -0.343   9.027  22.076  0.00  0.00    +0.000 OA
ENDBRANCH   8  11
ENDBRANCH   1   8
BRANCH   5  12
ATOM     12  C   UNL     1       2.151   5.091  17.934  0.00  0.00    +0.000 C 
ATOM     13  O   UNL     1       1.259   4.474  17.371  0.00  0.00    +0.000 OA
BRANCH  12  14
ATOM     14  O   UNL     1       3.478   4.898  17.709  0.00  0.00    +0.000 OA
BRANCH  14  15
ATOM     15  C   UNL     1       3.827   3.540  17.373  0.00  0.00    +0.000 C 
BRANCH  15  16
ATOM     16  C   UNL     1       4.739   2.961  18.468  0.00  0.00    +0.000 C 
BRANCH  16  17
ATOM     17  O   UNL     1       5.170   3.959  19.403  0.00  0.00    +0.000 OA
ATOM     18  H   UNL     1       5.298   4.798  18.918  0.00  0.00    +0.000 HD
ENDBRANCH  16  17
BRANCH  16  19
ATOM     19  C   UNL     1       4.059   1.836  19.248  0.00  0.00    +0.000 C 
BRANCH  19  20
ATOM     20  O   UNL     1       3.956   0.643  18.467  0.00  0.00    +0.000 OA
ATOM     21  H   UNL     1       3.016   0.511  18.245  0.00  0.00    +0.000 HD
ENDBRANCH  19  20
ENDBRANCH  16  19
ENDBRANCH  15  16
ENDBRANCH  14  15
ENDBRANCH  12  14
ENDBRANCH   5  12
BRANCH   6  22
ATOM     22  O   UNL     1       2.429   7.793  17.292  0.00  0.00    +0.000 OA
ATOM     23  C   UNL     1       3.843   7.869  17.132  0.00  0.00    +0.000 C 
ENDBRANCH   6  22
BRANCH   7  24
ATOM     24  C   UNL     1       1.495  10.000  19.112  0.00  0.00    +0.000 C 
ATOM     25  O   UNL     1       2.429  10.455  18.466  0.00  0.00    +0.000 OA
BRANCH  24  26
ATOM     26  C   UNL     1       0.294  10.874  19.303  0.00  0.00    +0.000 A 
ATOM     27  C   UNL     1      -0.911  10.613  18.579  0.00  0.00    +0.000 A 
ATOM     28  C   UNL     1      -1.101   9.621  17.455  0.00  0.00    +0.000 C 
ATOM     29  C   UNL     1      -2.082  11.317  18.921  0.00  0.00    +0.000 A 
ATOM     30  C   UNL     1      -2.072  12.266  19.933  0.00  0.00    +0.000 A 
ATOM     31  C   UNL     1      -0.892  12.599  20.576  0.00  0.00    +0.000 A 
ATOM     32  C   UNL     1       0.285  11.922  20.245  0.00  0.00    +0.000 A 
BRANCH  30  33
ATOM     33  O   UNL     1      -3.218  12.889  20.320  0.00  0.00    +0.000 OA
ATOM     34  H   UNL     1      -3.762  12.253  20.817  0.00  0.00    +0.000 HD
ENDBRANCH  30  33
BRANCH  32  35
ATOM     35  O   UNL     1       1.439  12.288  20.890  0.00  0.00    +0.000 OA
ATOM     36  H   UNL     1       2.159  12.360  20.237  0.00  0.00    +0.000 HD
ENDBRANCH  32  35
ENDBRANCH  24  26
ENDBRANCH   7  24
TORSDOF 14
ENDMDL
MODEL 8
REMARK VINA RESULT:      -5.2      4.190      9.431
REMARK  Name = 
REMARK  18 active torsions:
REMARK  status: ('A' for Active; 'I' for Inactive)
REMARK    1  A    between atoms: C_1  and  O_2
REMARK    2  A    between atoms: O_2  and  C_3
REMARK    3  A    between atoms: C_3  and  C_5
REMARK    4  A    between atoms: C_7  and  C_8
REMARK    5  A    between atoms: C_9  and  C_10
REMARK    6  A    between atoms: C_10  and  O_12
REMARK    7  A    between atoms: O_12  and  C_13
REMARK    8  A    between atoms: C_13  and  C_14
REMARK    9  A    between atoms: C_14  and  O_15
REMARK   10  A    between atoms: C_14  and  C_16
REMARK   11  A    between atoms: C_16  and  O_17
REMARK   12  A    between atoms: C_18  and  O_19
REMARK   13  A    between atoms: O_19  and  C_20
REMARK   14  A    between atoms: C_21  and  C_22
REMARK   15  A    between atoms: C_22  and  C_24
REMARK   16  A    between atoms: C_25  and  C_26
REMARK   17  A    between atoms: C_28  and  O_29
REMARK   18  A    between atoms: C_31  and  O_32
REMARK                            x       y       z     vdW  Elec       q    Type
REMARK                         _______ _______ _______ _____ _____    ______ ____
ROOT
ATOM      1  C   UNL     1       1.442   8.210  20.747  0.00  0.00    +0.000 A 
ATOM      2  C   UNL     1       1.544   6.891  21.212  0.00  0.00    +0.000 A 
ATOM      3  C   UNL     1       1.816   5.829  20.348  0.00  0.00    +0.000 A 
ATOM      4  C   UNL     1       1.926   4.453  20.950  0.00  0.00    +0.000 C 
ATOM      5  C   UNL     1       1.986   6.103  18.974  0.00  0.00    +0.000 A 
ATOM      6  C   UNL     1       1.978   7.451  18.498  0.00  0.00    +0.000 A 
ATOM      7  C   UNL     1       1.693   8.527  19.395  0.00  0.00    +0.000 A 
ENDROOT
BRANCH   1   8
ATOM      8  C   UNL     1       1.000   9.193  21.767  0.00  0.00    +0.000 C 
ATOM      9  O   UNL     1       1.743   9.948  22.356  0.00  0.00    +0.000 OA
BRANCH   8  11
ATOM     10  C   UNL     1      -0.908   9.993  22.880  0.00  0.00    +0.000 C 
ATOM     11  O   UNL     1      -0.357   9.115  21.894  0.00  0.00    +0.000 OA
ENDBRANCH   8  11
ENDBRANCH   1   8
BRANCH   5  12
ATOM     12  C   UNL     1       2.243   4.959  18.048  0.00  0.00    +0.000 C 
ATOM     13  O   UNL     1       1.384   4.419  17.367  0.00  0.00    +0.000 OA
BRANCH  12  14
ATOM     14  O   UNL     1       3.558   4.615  18.039  0.00  0.00    +0.000 OA
BRANCH  14  15
ATOM     15  C   UNL     1       3.910   3.661  17.016  0.00  0.00    +0.000 C 
BRANCH  15  16
ATOM     16  C   UNL     1       5.307   3.994  16.465  0.00  0.00    +0.000 C 
BRANCH  16  17
ATOM     17  O   UNL     1       5.252   4.872  15.334  0.00  0.00    +0.000 OA
ATOM     18  H   UNL     1       4.575   5.555  15.509  0.00  0.00    +0.000 HD
ENDBRANCH  16  17
BRANCH  16  19
ATOM     19  C   UNL     1       6.205   4.634  17.525  0.00  0.00    +0.000 C 
BRANCH  19  20
ATOM     20  O   UNL     1       7.035   5.655  16.964  0.00  0.00    +0.000 OA
ATOM     21  H   UNL     1       6.453   6.357  16.619  0.00  0.00    +0.000 HD
ENDBRANCH  19  20
ENDBRANCH  16  19
ENDBRANCH  15  16
ENDBRANCH  14  15
ENDBRANCH  12  14
ENDBRANCH   5  12
BRANCH   6  22
ATOM     22  O   UNL     1       2.546   7.616  17.248  0.00  0.00    +0.000 OA
ATOM     23  C   UNL     1       3.966   7.657  17.122  0.00  0.00    +0.000 C 
ENDBRANCH   6  22
BRANCH   7  24
ATOM     24  C   UNL     1       1.565   9.932  18.899  0.00  0.00    +0.000 C 
ATOM     25  O   UNL     1       2.508  10.336  18.232  0.00  0.00    +0.000 OA
BRANCH  24  26
ATOM     26  C   UNL     1       0.371  10.827  19.025  0.00  0.00    +0.000 A 
ATOM     27  C   UNL     1      -0.841  10.513  18.336  0.00  0.00    +0.000 A 
ATOM     28  C   UNL     1      -1.047   9.430  17.301  0.00  0.00    +0.000 C 
ATOM     29  C   UNL     1      -2.005  11.251  18.626  0.00  0.00    +0.000 A 
ATOM     30  C   UNL     1      -1.981  12.281  19.554  0.00  0.00    +0.000 A 
ATOM     31  C   UNL     1      -0.795  12.661  20.157  0.00  0.00    +0.000 A 
ATOM     32  C   UNL     1       0.376  11.951  19.875  0.00  0.00    +0.000 A 
BRANCH  30  33
ATOM     33  O   UNL     1      -3.121  12.942  19.896  0.00  0.00    +0.000 OA
ATOM     34  H   UNL     1      -2.952  13.450  20.709  0.00  0.00    +0.000 HD
ENDBRANCH  30  33
BRANCH  32  35
ATOM     35  O   UNL     1       1.537  12.363  20.478  0.00  0.00    +0.000 OA
ATOM     36  H   UNL     1       1.462  13.309  20.699  0.00  0.00    +0.000 HD
ENDBRANCH  32  35
ENDBRANCH  24  26
ENDBRANCH   7  24
TORSDOF 14
ENDMDL
MODEL 9
REMARK VINA RESULT:      -5.1      1.721      2.629
REMARK  Name = 
REMARK  18 active torsions:
REMARK  status: ('A' for Active; 'I' for Inactive)
REMARK    1  A    between atoms: C_1  and  O_2
REMARK    2  A    between atoms: O_2  and  C_3
REMARK    3  A    between atoms: C_3  and  C_5
REMARK    4  A    between atoms: C_7  and  C_8
REMARK    5  A    between atoms: C_9  and  C_10
REMARK    6  A    between atoms: C_10  and  O_12
REMARK    7  A    between atoms: O_12  and  C_13
REMARK    8  A    between atoms: C_13  and  C_14
REMARK    9  A    between atoms: C_14  and  O_15
REMARK   10  A    between atoms: C_14  and  C_16
REMARK   11  A    between atoms: C_16  and  O_17
REMARK   12  A    between atoms: C_18  and  O_19
REMARK   13  A    between atoms: O_19  and  C_20
REMARK   14  A    between atoms: C_21  and  C_22
REMARK   15  A    between atoms: C_22  and  C_24
REMARK   16  A    between atoms: C_25  and  C_26
REMARK   17  A    between atoms: C_28  and  O_29
REMARK   18  A    between atoms: C_31  and  O_32
REMARK                            x       y       z     vdW  Elec       q    Type
REMARK                         _______ _______ _______ _____ _____    ______ ____
ROOT
ATOM      1  C   UNL     1      -2.598  11.381  18.288  0.00  0.00    +0.000 A 
ATOM      2  C   UNL     1      -3.987  11.550  18.386  0.00  0.00    +0.000 A 
ATOM      3  C   UNL     1      -4.578  12.117  19.515  0.00  0.00    +0.000 A 
ATOM      4  C   UNL     1      -6.076  12.272  19.512  0.00  0.00    +0.000 C 
ATOM      5  C   UNL     1      -3.747  12.522  20.581  0.00  0.00    +0.000 A 
ATOM      6  C   UNL     1      -2.325  12.445  20.461  0.00  0.00    +0.000 A 
ATOM      7  C   UNL     1      -1.734  11.855  19.299  0.00  0.00    +0.000 A 
ENDROOT
BRANCH   1   8
ATOM      8  C   UNL     1      -2.148  10.626  17.092  0.00  0.00    +0.000 C 
ATOM      9  O   UNL     1      -1.553   9.572  17.134  0.00  0.00    +0.000 OA
BRANCH   8  11
ATOM     10  C   UNL     1      -3.067  10.465  14.937  0.00  0.00    +0.000 C 
ATOM     11  O   UNL     1      -2.543  11.300  15.973  0.00  0.00    +0.000 OA
ENDBRANCH   8  11
ENDBRANCH   1   8
BRANCH   5  12
ATOM     12  C   UNL     1      -4.387  13.098  21.803  0.00  0.00    +0.000 C 
ATOM     13  O   UNL     1      -4.698  12.445  22.788  0.00  0.00    +0.000 OA
BRANCH  12  14
ATOM     14  O   UNL     1      -4.554  14.442  21.688  0.00  0.00    +0.000 OA
BRANCH  14  15
ATOM     15  C   UNL     1      -5.051  15.078  22.883  0.00  0.00    +0.000 C 
BRANCH  15  16
ATOM     16  C   UNL     1      -5.059  16.603  22.686  0.00  0.00    +0.000 C 
BRANCH  16  17
ATOM     17  O   UNL     1      -6.356  17.100  22.332  0.00  0.00    +0.000 OA
ATOM     18  H   UNL     1      -7.003  16.377  22.448  0.00  0.00    +0.000 HD
ENDBRANCH  16  17
BRANCH  16  19
ATOM     19  C   UNL     1      -4.585  17.347  23.935  0.00  0.00    +0.000 C 
BRANCH  19  20
ATOM     20  O   UNL     1      -5.162  16.798  25.123  0.00  0.00    +0.000 OA
ATOM     21  H   UNL     1      -6.115  16.669  24.961  0.00  0.00    +0.000 HD
ENDBRANCH  19  20
ENDBRANCH  16  19
ENDBRANCH  15  16
ENDBRANCH  14  15
ENDBRANCH  12  14
ENDBRANCH   5  12
BRANCH   6  22
ATOM     22  O   UNL     1      -1.633  13.226  21.368  0.00  0.00    +0.000 OA
ATOM     23  C   UNL     1      -1.279  14.561  21.017  0.00  0.00    +0.000 C 
ENDBRANCH   6  22
BRANCH   7  24
ATOM     24  C   UNL     1      -0.255  11.658  19.200  0.00  0.00    +0.000 C 
ATOM     25  O   UNL     1       0.379  12.641  18.843  0.00  0.00    +0.000 OA
BRANCH  24  26
ATOM     26  C   UNL     1       0.521  10.444  19.611  0.00  0.00    +0.000 A 
ATOM     27  C   UNL     1       0.440   9.956  20.952  0.00  0.00    +0.000 A 
ATOM     28  C   UNL     1      -0.227  10.631  22.129  0.00  0.00    +0.000 C 
ATOM     29  C   UNL     1       1.013   8.707  21.262  0.00  0.00    +0.000 A 
ATOM     30  C   UNL     1       1.664   7.963  20.290  0.00  0.00    +0.000 A 
ATOM     31  C   UNL     1       1.836   8.466  19.013  0.00  0.00    +0.000 A 
ATOM     32  C   UNL     1       1.287   9.709  18.685  0.00  0.00    +0.000 A 
BRANCH  30  33
ATOM     33  O   UNL     1       2.148   6.720  20.567  0.00  0.00    +0.000 OA
ATOM     34  H   UNL     1       1.711   6.392  21.372  0.00  0.00    +0.000 HD
ENDBRANCH  30  33
BRANCH  32  35
ATOM     35  O   UNL     1       1.489  10.185  17.414  0.00  0.00    +0.000 OA
ATOM     36  H   UNL     1       1.861   9.472  16.863  0.00  0.00    +0.000 HD
ENDBRANCH  32  35
ENDBRANCH  24  26
ENDBRANCH   7  24
TORSDOF 14
ENDMDL
