MODEL 1
REMARK VINA RESULT:      -7.9      0.000      0.000
REMARK  Name = 
REMARK  6 active torsions:
REMARK  status: ('A' for Active; 'I' for Inactive)
REMARK    1  A    between atoms: C_1  and  C_2
REMARK    2  A    between atoms: C_3  and  N_4
REMARK    3  A    between atoms: C_6  and  N_7
REMARK    4  A    between atoms: C_15  and  C_16
REMARK    5  A    between atoms: C_16  and  O_18
REMARK    6  A    between atoms: C_20  and  C_21
REMARK                            x       y       z     vdW  Elec       q    Type
REMARK                         _______ _______ _______ _____ _____    ______ ____
ROOT
ATOM      1  C   UNL     1       3.906   2.923  18.103  0.00  0.00    +0.000 C 
ATOM      2  C   UNL     1       3.857   4.424  17.941  0.00  0.00    +0.000 A 
ATOM      3  C   UNL     1       4.486   4.959  16.856  0.00  0.00    +0.000 A 
ATOM      4  C   UNL     1       4.428   6.395  16.703  0.00  0.00    +0.000 A 
ATOM      5  F   UNL     1       5.106   6.991  15.698  0.00  0.00    +0.000 F 
ATOM      6  C   UNL     1       3.721   7.157  17.532  0.00  0.00    +0.000 A 
ATOM      7  N   UNL     1       3.010   6.680  18.622  0.00  0.00    +0.000 N 
ATOM      8  C   UNL     1       2.305   7.616  19.387  0.00  0.00    +0.000 A 
ATOM      9  O   UNL     1       2.247   8.825  19.143  0.00  0.00    +0.000 OA
ATOM     10  C   UNL     1       1.569   7.111  20.552  0.00  0.00    +0.000 A 
ATOM     11  C   UNL     1       1.651   5.804  20.824  0.00  0.00    +0.000 A 
ATOM     12  C   UNL     1       2.420   4.841  20.036  0.00  0.00    +0.000 A 
ATOM     13  C   UNL     1       3.076   5.290  18.913  0.00  0.00    +0.000 A 
ENDROOT
BRANCH   3  14
ATOM     14  N   UNL     1       5.124   4.177  15.882  0.00  0.00    +0.000 N 
ATOM     15  C   UNL     1       6.511   3.760  15.980  0.00  0.00    +0.000 C 
ATOM     16  C   UNL     1       6.758   4.258  14.553  0.00  0.00    +0.000 C 
ATOM     17  C   UNL     1       5.254   4.532  14.485  0.00  0.00    +0.000 C 
BRANCH  16  18
ATOM     18  N   UNL     1       7.515   5.521  14.586  0.00  0.00    +0.000 NA
ATOM     19  H   UNL     1       6.929   6.330  14.809  0.00  0.00    +0.000 HD
ATOM     20  H   UNL     1       7.960   5.753  13.700  0.00  0.00    +0.000 HD
ENDBRANCH  16  18
ENDBRANCH   3  14
BRANCH  12  21
ATOM     21  C   UNL     1       2.390   3.449  20.580  0.00  0.00    +0.000 C 
ATOM     22  C   UNL     1       1.527   2.912  21.698  0.00  0.00    +0.000 C 
ATOM     23  C   UNL     1       1.164   2.609  20.278  0.00  0.00    +0.000 C 
ENDBRANCH  12  21
BRANCH  10  24
ATOM     24  C   UNL     1       0.735   7.968  21.430  0.00  0.00    +0.000 C 
ATOM     25  O   UNL     1      -0.487   7.884  21.480  0.00  0.00    +0.000 OA
BRANCH  24  26
ATOM     26  O   UNL     1       1.414   8.854  22.184  0.00  0.00    +0.000 OA
ATOM     27  H   UNL     1       1.809   8.470  23.004  0.00  0.00    +0.000 HD
ENDBRANCH  24  26
ENDBRANCH  10  24
TORSDOF 5
ENDMDL
MODEL 2
REMARK VINA RESULT:      -7.2      3.111      6.275
REMARK  Name = 
REMARK  6 active torsions:
REMARK  status: ('A' for Active; 'I' for Inactive)
REMARK    1  A    between atoms: C_1  and  C_2
REMARK    2  A    between atoms: C_3  and  N_4
REMARK    3  A    between atoms: C_6  and  N_7
REMARK    4  A    between atoms: C_15  and  C_16
REMARK    5  A    between atoms: C_16  and  O_18
REMARK    6  A    between atoms: C_20  and  C_21
REMARK                            x       y       z     vdW  Elec       q    Type
REMARK                         _______ _______ _______ _____ _____    ______ ____
ROOT
ATOM      1  C   UNL     1       1.800   5.240  20.697  0.00  0.00    +0.000 C 
ATOM      2  C   UNL     1       2.302   6.182  19.628  0.00  0.00    +0.000 A 
ATOM      3  C   UNL     1       1.913   7.487  19.708  0.00  0.00    +0.000 A 
ATOM      4  C   UNL     1       2.404   8.384  18.686  0.00  0.00    +0.000 A 
ATOM      5  F   UNL     1       1.983   9.666  18.661  0.00  0.00    +0.000 F 
ATOM      6  C   UNL     1       3.267   7.979  17.759  0.00  0.00    +0.000 A 
ATOM      7  N   UNL     1       3.751   6.685  17.649  0.00  0.00    +0.000 N 
ATOM      8  C   UNL     1       4.667   6.429  16.622  0.00  0.00    +0.000 A 
ATOM      9  O   UNL     1       5.094   7.275  15.831  0.00  0.00    +0.000 OA
ATOM     10  C   UNL     1       5.163   5.053  16.495  0.00  0.00    +0.000 A 
ATOM     11  C   UNL     1       4.682   4.135  17.341  0.00  0.00    +0.000 A 
ATOM     12  C   UNL     1       3.698   4.409  18.388  0.00  0.00    +0.000 A 
ATOM     13  C   UNL     1       3.259   5.703  18.551  0.00  0.00    +0.000 A 
ENDROOT
BRANCH   3  14
ATOM     14  N   UNL     1       1.117   7.983  20.750  0.00  0.00    +0.000 N 
ATOM     15  C   UNL     1       0.045   8.940  20.546  0.00  0.00    +0.000 C 
ATOM     16  C   UNL     1       0.609   9.807  21.675  0.00  0.00    +0.000 C 
ATOM     17  C   UNL     1       1.614   8.678  21.917  0.00  0.00    +0.000 C 
BRANCH  16  18
ATOM     18  N   UNL     1       1.281  10.990  21.113  0.00  0.00    +0.000 NA
ATOM     19  H   UNL     1       0.626  11.736  20.861  0.00  0.00    +0.000 HD
ATOM     20  H   UNL     1       1.801  10.796  20.258  0.00  0.00    +0.000 HD
ENDBRANCH  16  18
ENDBRANCH   3  14
BRANCH  12  21
ATOM     21  C   UNL     1       3.286   3.201  19.165  0.00  0.00    +0.000 C 
ATOM     22  C   UNL     1       3.622   1.757  18.877  0.00  0.00    +0.000 C 
ATOM     23  C   UNL     1       4.359   2.482  19.959  0.00  0.00    +0.000 C 
ENDBRANCH  12  21
BRANCH  10  24
ATOM     24  C   UNL     1       6.173   4.634  15.492  0.00  0.00    +0.000 C 
ATOM     25  O   UNL     1       6.036   3.646  14.780  0.00  0.00    +0.000 OA
BRANCH  24  26
ATOM     26  O   UNL     1       7.263   5.422  15.408  0.00  0.00    +0.000 OA
ATOM     27  H   UNL     1       7.062   6.381  15.283  0.00  0.00    +0.000 HD
ENDBRANCH  24  26
ENDBRANCH  10  24
TORSDOF 5
ENDMDL
MODEL 3
REMARK VINA RESULT:      -7.0      3.260      6.215
REMARK  Name = 
REMARK  6 active torsions:
REMARK  status: ('A' for Active; 'I' for Inactive)
REMARK    1  A    between atoms: C_1  and  C_2
REMARK    2  A    between atoms: C_3  and  N_4
REMARK    3  A    between atoms: C_6  and  N_7
REMARK    4  A    between atoms: C_15  and  C_16
REMARK    5  A    between atoms: C_16  and  O_18
REMARK    6  A    between atoms: C_20  and  C_21
REMARK                            x       y       z     vdW  Elec       q    Type
REMARK                         _______ _______ _______ _____ _____    ______ ____
ROOT
ATOM      1  C   UNL     1       0.921   7.408  21.206  0.00  0.00    +0.000 C 
ATOM      2  C   UNL     1       1.626   7.738  19.911  0.00  0.00    +0.000 A 
ATOM      3  C   UNL     1       1.414   8.975  19.379  0.00  0.00    +0.000 A 
ATOM      4  C   UNL     1       2.098   9.286  18.144  0.00  0.00    +0.000 A 
ATOM      5  F   UNL     1       1.858  10.460  17.522  0.00  0.00    +0.000 F 
ATOM      6  C   UNL     1       2.964   8.440  17.595  0.00  0.00    +0.000 A 
ATOM      7  N   UNL     1       3.275   7.191  18.108  0.00  0.00    +0.000 N 
ATOM      8  C   UNL     1       4.223   6.430  17.414  0.00  0.00    +0.000 A 
ATOM      9  O   UNL     1       4.819   6.802  16.400  0.00  0.00    +0.000 OA
ATOM     10  C   UNL     1       4.535   5.099  17.949  0.00  0.00    +0.000 A 
ATOM     11  C   UNL     1       3.871   4.692  19.037  0.00  0.00    +0.000 A 
ATOM     12  C   UNL     1       2.857   5.483  19.733  0.00  0.00    +0.000 A 
ATOM     13  C   UNL     1       2.587   6.752  19.273  0.00  0.00    +0.000 A 
ENDROOT
BRANCH   3  14
ATOM     14  N   UNL     1       0.616   9.946  20.000  0.00  0.00    +0.000 N 
ATOM     15  C   UNL     1      -0.734  10.262  19.570  0.00  0.00    +0.000 C 
ATOM     16  C   UNL     1      -0.378  11.752  19.560  0.00  0.00    +0.000 C 
ATOM     17  C   UNL     1       0.971  11.341  20.152  0.00  0.00    +0.000 C 
BRANCH  16  18
ATOM     18  N   UNL     1      -0.216  12.221  18.174  0.00  0.00    +0.000 NA
ATOM     19  H   UNL     1      -0.784  11.690  17.506  0.00  0.00    +0.000 HD
ATOM     20  H   UNL     1       0.739  12.146  17.826  0.00  0.00    +0.000 HD
ENDBRANCH  16  18
ENDBRANCH   3  14
BRANCH  12  21
ATOM     21  C   UNL     1       2.227   4.780  20.891  0.00  0.00    +0.000 C 
ATOM     22  C   UNL     1       1.169   3.702  20.854  0.00  0.00    +0.000 C 
ATOM     23  C   UNL     1       2.595   3.326  21.109  0.00  0.00    +0.000 C 
ENDBRANCH  12  21
BRANCH  10  24
ATOM     24  C   UNL     1       5.551   4.194  17.357  0.00  0.00    +0.000 C 
ATOM     25  O   UNL     1       5.393   3.626  16.283  0.00  0.00    +0.000 OA
BRANCH  24  26
ATOM     26  O   UNL     1       6.676   4.038  18.082  0.00  0.00    +0.000 OA
ATOM     27  H   UNL     1       6.822   4.741  18.761  0.00  0.00    +0.000 HD
ENDBRANCH  24  26
ENDBRANCH  10  24
TORSDOF 5
ENDMDL
MODEL 4
REMARK VINA RESULT:      -6.9      3.564      6.836
REMARK  Name = 
REMARK  6 active torsions:
REMARK  status: ('A' for Active; 'I' for Inactive)
REMARK    1  A    between atoms: C_1  and  C_2
REMARK    2  A    between atoms: C_3  and  N_4
REMARK    3  A    between atoms: C_6  and  N_7
REMARK    4  A    between atoms: C_15  and  C_16
REMARK    5  A    between atoms: C_16  and  O_18
REMARK    6  A    between atoms: C_20  and  C_21
REMARK                            x       y       z     vdW  Elec       q    Type
REMARK                         _______ _______ _______ _____ _____    ______ ____
ROOT
ATOM      1  C   UNL     1       2.633   8.863  17.668  0.00  0.00    +0.000 C 
ATOM      2  C   UNL     1       2.288   7.985  18.848  0.00  0.00    +0.000 A 
ATOM      3  C   UNL     1       1.435   8.494  19.781  0.00  0.00    +0.000 A 
ATOM      4  C   UNL     1       1.104   7.644  20.903  0.00  0.00    +0.000 A 
ATOM      5  F   UNL     1       0.336   8.124  21.905  0.00  0.00    +0.000 F 
ATOM      6  C   UNL     1       1.539   6.390  20.980  0.00  0.00    +0.000 A 
ATOM      7  N   UNL     1       2.361   5.786  20.043  0.00  0.00    +0.000 N 
ATOM      8  C   UNL     1       2.716   4.450  20.268  0.00  0.00    +0.000 A 
ATOM      9  O   UNL     1       2.328   3.769  21.220  0.00  0.00    +0.000 OA
ATOM     10  C   UNL     1       3.603   3.819  19.283  0.00  0.00    +0.000 A 
ATOM     11  C   UNL     1       4.038   4.567  18.263  0.00  0.00    +0.000 A 
ATOM     12  C   UNL     1       3.687   5.972  18.058  0.00  0.00    +0.000 A 
ATOM     13  C   UNL     1       2.818   6.565  18.945  0.00  0.00    +0.000 A 
ENDROOT
BRANCH   3  14
ATOM     14  N   UNL     1       0.844   9.760  19.665  0.00  0.00    +0.000 N 
ATOM     15  C   UNL     1       1.167  10.872  20.539  0.00  0.00    +0.000 C 
ATOM     16  C   UNL     1      -0.326  11.112  20.781  0.00  0.00    +0.000 C 
ATOM     17  C   UNL     1      -0.577  10.024  19.735  0.00  0.00    +0.000 C 
BRANCH  16  18
ATOM     18  N   UNL     1      -0.700  10.638  22.124  0.00  0.00    +0.000 NA
ATOM     19  H   UNL     1      -0.335   9.704  22.331  0.00  0.00    +0.000 HD
ATOM     20  H   UNL     1      -1.707  10.565  22.265  0.00  0.00    +0.000 HD
ENDBRANCH  16  18
ENDBRANCH   3  14
BRANCH  12  21
ATOM     21  C   UNL     1       4.345   6.596  16.871  0.00  0.00    +0.000 C 
ATOM     22  C   UNL     1       5.824   6.805  16.637  0.00  0.00    +0.000 C 
ATOM     23  C   UNL     1       5.120   5.682  15.942  0.00  0.00    +0.000 C 
ENDBRANCH  12  21
BRANCH  10  24
ATOM     24  C   UNL     1       4.028   2.399  19.354  0.00  0.00    +0.000 C 
ATOM     25  O   UNL     1       3.523   1.516  18.671  0.00  0.00    +0.000 OA
BRANCH  24  26
ATOM     26  O   UNL     1       5.023   2.138  20.225  0.00  0.00    +0.000 OA
ATOM     27  H   UNL     1       5.144   1.178  20.426  0.00  0.00    +0.000 HD
ENDBRANCH  24  26
ENDBRANCH  10  24
TORSDOF 5
ENDMDL
MODEL 5
REMARK VINA RESULT:      -6.6      3.186      6.206
REMARK  Name = 
REMARK  6 active torsions:
REMARK  status: ('A' for Active; 'I' for Inactive)
REMARK    1  A    between atoms: C_1  and  C_2
REMARK    2  A    between atoms: C_3  and  N_4
REMARK    3  A    between atoms: C_6  and  N_7
REMARK    4  A    between atoms: C_15  and  C_16
REMARK    5  A    between atoms: C_16  and  O_18
REMARK    6  A    between atoms: C_20  and  C_21
REMARK                            x       y       z     vdW  Elec       q    Type
REMARK                         _______ _______ _______ _____ _____    ______ ____
ROOT
ATOM      1  C   UNL     1       1.758   6.254  20.769  0.00  0.00    +0.000 C 
ATOM      2  C   UNL     1       2.345   6.861  19.516  0.00  0.00    +0.000 A 
ATOM      3  C   UNL     1       1.912   8.103  19.157  0.00  0.00    +0.000 A 
ATOM      4  C   UNL     1       2.484   8.680  17.961  0.00  0.00    +0.000 A 
ATOM      5  F   UNL     1       2.031   9.867  17.506  0.00  0.00    +0.000 F 
ATOM      6  C   UNL     1       3.455   8.069  17.288  0.00  0.00    +0.000 A 
ATOM      7  N   UNL     1       3.986   6.834  17.625  0.00  0.00    +0.000 N 
ATOM      8  C   UNL     1       5.016   6.338  16.817  0.00  0.00    +0.000 A 
ATOM      9  O   UNL     1       5.502   6.932  15.850  0.00  0.00    +0.000 OA
ATOM     10  C   UNL     1       5.564   5.021  17.164  0.00  0.00    +0.000 A 
ATOM     11  C   UNL     1       5.021   4.372  18.200  0.00  0.00    +0.000 A 
ATOM     12  C   UNL     1       3.921   4.886  19.015  0.00  0.00    +0.000 A 
ATOM     13  C   UNL     1       3.429   6.140  18.733  0.00  0.00    +0.000 A 
ENDROOT
BRANCH   3  14
ATOM     14  N   UNL     1       0.992   8.839  19.917  0.00  0.00    +0.000 N 
ATOM     15  C   UNL     1       0.085   9.815  19.343  0.00  0.00    +0.000 C 
ATOM     16  C   UNL     1       0.517  10.834  20.400  0.00  0.00    +0.000 C 
ATOM     17  C   UNL     1       1.333   9.702  21.027  0.00  0.00    +0.000 C 
BRANCH  16  18
ATOM     18  N   UNL     1       1.404  11.842  19.795  0.00  0.00    +0.000 NA
ATOM     19  H   UNL     1       1.497  12.685  20.368  0.00  0.00    +0.000 HD
ATOM     20  H   UNL     1       1.084  12.174  18.886  0.00  0.00    +0.000 HD
ENDBRANCH  16  18
ENDBRANCH   3  14
BRANCH  12  21
ATOM     21  C   UNL     1       3.462   3.945  20.081  0.00  0.00    +0.000 C 
ATOM     22  C   UNL     1       2.465   2.817  19.953  0.00  0.00    +0.000 C 
ATOM     23  C   UNL     1       3.928   2.506  19.988  0.00  0.00    +0.000 C 
ENDBRANCH  12  21
BRANCH  10  24
ATOM     24  C   UNL     1       6.689   4.383  16.437  0.00  0.00    +0.000 C 
ATOM     25  O   UNL     1       7.845   4.404  16.845  0.00  0.00    +0.000 OA
BRANCH  24  26
ATOM     26  O   UNL     1       6.356   3.765  15.287  0.00  0.00    +0.000 OA
ATOM     27  H   UNL     1       6.920   2.984  15.068  0.00  0.00    +0.000 HD
ENDBRANCH  24  26
ENDBRANCH  10  24
TORSDOF 5
ENDMDL
MODEL 6
REMARK VINA RESULT:      -6.5      3.533      6.548
REMARK  Name = 
REMARK  6 active torsions:
REMARK  status: ('A' for Active; 'I' for Inactive)
REMARK    1  A    between atoms: C_1  and  C_2
REMARK    2  A    between atoms: C_3  and  N_4
REMARK    3  A    between atoms: C_6  and  N_7
REMARK    4  A    between atoms: C_15  and  C_16
REMARK    5  A    between atoms: C_16  and  O_18
REMARK    6  A    between atoms: C_20  and  C_21
REMARK                            x       y       z     vdW  Elec       q    Type
REMARK                         _______ _______ _______ _____ _____    ______ ____
ROOT
ATOM      1  C   UNL     1       2.742   8.823  17.691  0.00  0.00    +0.000 C 
ATOM      2  C   UNL     1       2.384   7.925  18.852  0.00  0.00    +0.000 A 
ATOM      3  C   UNL     1       1.549   8.432  19.803  0.00  0.00    +0.000 A 
ATOM      4  C   UNL     1       1.205   7.564  20.907  0.00  0.00    +0.000 A 
ATOM      5  F   UNL     1       0.454   8.038  21.925  0.00  0.00    +0.000 F 
ATOM      6  C   UNL     1       1.611   6.299  20.952  0.00  0.00    +0.000 A 
ATOM      7  N   UNL     1       2.413   5.698  19.995  0.00  0.00    +0.000 N 
ATOM      8  C   UNL     1       2.738   4.350  20.187  0.00  0.00    +0.000 A 
ATOM      9  O   UNL     1       2.340   3.655  21.126  0.00  0.00    +0.000 OA
ATOM     10  C   UNL     1       3.604   3.721  19.181  0.00  0.00    +0.000 A 
ATOM     11  C   UNL     1       4.050   4.483  18.177  0.00  0.00    +0.000 A 
ATOM     12  C   UNL     1       3.731   5.900  18.007  0.00  0.00    +0.000 A 
ATOM     13  C   UNL     1       2.882   6.492  18.913  0.00  0.00    +0.000 A 
ENDROOT
BRANCH   3  14
ATOM     14  N   UNL     1       0.987   9.714  19.721  0.00  0.00    +0.000 N 
ATOM     15  C   UNL     1      -0.439   9.966  19.812  0.00  0.00    +0.000 C 
ATOM     16  C   UNL     1      -0.367  10.818  18.542  0.00  0.00    +0.000 C 
ATOM     17  C   UNL     1       1.149  10.622  18.606  0.00  0.00    +0.000 C 
BRANCH  16  18
ATOM     18  N   UNL     1      -0.940  10.077  17.406  0.00  0.00    +0.000 NA
ATOM     19  H   UNL     1      -1.944   9.906  17.509  0.00  0.00    +0.000 HD
ATOM     20  H   UNL     1      -0.528   9.155  17.271  0.00  0.00    +0.000 HD
ENDBRANCH  16  18
ENDBRANCH   3  14
BRANCH  12  21
ATOM     21  C   UNL     1       4.396   6.536  16.830  0.00  0.00    +0.000 C 
ATOM     22  C   UNL     1       5.878   6.713  16.589  0.00  0.00    +0.000 C 
ATOM     23  C   UNL     1       5.140   5.626  15.873  0.00  0.00    +0.000 C 
ENDBRANCH  12  21
BRANCH  10  24
ATOM     24  C   UNL     1       3.997   2.291  19.217  0.00  0.00    +0.000 C 
ATOM     25  O   UNL     1       3.481   1.439  18.502  0.00  0.00    +0.000 OA
BRANCH  24  26
ATOM     26  O   UNL     1       4.973   1.982  20.093  0.00  0.00    +0.000 OA
ATOM     27  H   UNL     1       4.763   1.216  20.680  0.00  0.00    +0.000 HD
ENDBRANCH  24  26
ENDBRANCH  10  24
TORSDOF 5
ENDMDL
MODEL 7
REMARK VINA RESULT:      -6.4      3.171      6.232
REMARK  Name = 
REMARK  6 active torsions:
REMARK  status: ('A' for Active; 'I' for Inactive)
REMARK    1  A    between atoms: C_1  and  C_2
REMARK    2  A    between atoms: C_3  and  N_4
REMARK    3  A    between atoms: C_6  and  N_7
REMARK    4  A    between atoms: C_15  and  C_16
REMARK    5  A    between atoms: C_16  and  O_18
REMARK    6  A    between atoms: C_20  and  C_21
REMARK                            x       y       z     vdW  Elec       q    Type
REMARK                         _______ _______ _______ _____ _____    ______ ____
ROOT
ATOM      1  C   UNL     1       1.856   5.910  20.736  0.00  0.00    +0.000 C 
ATOM      2  C   UNL     1       2.408   6.599  19.510  0.00  0.00    +0.000 A 
ATOM      3  C   UNL     1       1.936   7.845  19.224  0.00  0.00    +0.000 A 
ATOM      4  C   UNL     1       2.475   8.501  18.054  0.00  0.00    +0.000 A 
ATOM      5  F   UNL     1       1.983   9.698  17.669  0.00  0.00    +0.000 F 
ATOM      6  C   UNL     1       3.451   7.954  17.336  0.00  0.00    +0.000 A 
ATOM      7  N   UNL     1       4.020   6.718  17.598  0.00  0.00    +0.000 N 
ATOM      8  C   UNL     1       5.051   6.295  16.751  0.00  0.00    +0.000 A 
ATOM      9  O   UNL     1       5.505   6.952  15.810  0.00  0.00    +0.000 OA
ATOM     10  C   UNL     1       5.638   4.976  17.019  0.00  0.00    +0.000 A 
ATOM     11  C   UNL     1       5.129   4.258  18.025  0.00  0.00    +0.000 A 
ATOM     12  C   UNL     1       4.028   4.698  18.882  0.00  0.00    +0.000 A 
ATOM     13  C   UNL     1       3.498   5.951  18.675  0.00  0.00    +0.000 A 
ENDROOT
BRANCH   3  14
ATOM     14  N   UNL     1       1.009   8.514  20.036  0.00  0.00    +0.000 N 
ATOM     15  C   UNL     1       1.204   9.869  20.519  0.00  0.00    +0.000 C 
ATOM     16  C   UNL     1       0.866   9.407  21.939  0.00  0.00    +0.000 C 
ATOM     17  C   UNL     1       0.539   8.046  21.322  0.00  0.00    +0.000 C 
BRANCH  16  18
ATOM     18  N   UNL     1       2.094   9.329  22.748  0.00  0.00    +0.000 NA
ATOM     19  H   UNL     1       2.893   9.789  22.302  0.00  0.00    +0.000 HD
ATOM     20  H   UNL     1       2.405   8.376  22.928  0.00  0.00    +0.000 HD
ENDBRANCH  16  18
ENDBRANCH   3  14
BRANCH  12  21
ATOM     21  C   UNL     1       3.611   3.689  19.902  0.00  0.00    +0.000 C 
ATOM     22  C   UNL     1       2.677   2.516  19.714  0.00  0.00    +0.000 C 
ATOM     23  C   UNL     1       4.154   2.281  19.753  0.00  0.00    +0.000 C 
ENDBRANCH  12  21
BRANCH  10  24
ATOM     24  C   UNL     1       6.769   4.409  16.243  0.00  0.00    +0.000 C 
ATOM     25  O   UNL     1       7.908   4.325  16.688  0.00  0.00    +0.000 OA
BRANCH  24  26
ATOM     26  O   UNL     1       6.461   3.982  15.003  0.00  0.00    +0.000 OA
ATOM     27  H   UNL     1       6.330   3.005  14.931  0.00  0.00    +0.000 HD
ENDBRANCH  24  26
ENDBRANCH  10  24
TORSDOF 5
ENDMDL
MODEL 8
REMARK VINA RESULT:      -6.4      3.503      6.439
REMARK  Name = 
REMARK  6 active torsions:
REMARK  status: ('A' for Active; 'I' for Inactive)
REMARK    1  A    between atoms: C_1  and  C_2
REMARK    2  A    between atoms: C_3  and  N_4
REMARK    3  A    between atoms: C_6  and  N_7
REMARK    4  A    between atoms: C_15  and  C_16
REMARK    5  A    between atoms: C_16  and  O_18
REMARK    6  A    between atoms: C_20  and  C_21
REMARK                            x       y       z     vdW  Elec       q    Type
REMARK                         _______ _______ _______ _____ _____    ______ ____
ROOT
ATOM      1  C   UNL     1       3.752   8.039  17.073  0.00  0.00    +0.000 C 
ATOM      2  C   UNL     1       3.183   7.312  18.269  0.00  0.00    +0.000 A 
ATOM      3  C   UNL     1       2.214   7.948  18.987  0.00  0.00    +0.000 A 
ATOM      4  C   UNL     1       1.669   7.243  20.126  0.00  0.00    +0.000 A 
ATOM      5  F   UNL     1       0.772   7.856  20.927  0.00  0.00    +0.000 F 
ATOM      6  C   UNL     1       2.029   5.996  20.411  0.00  0.00    +0.000 A 
ATOM      7  N   UNL     1       2.964   5.265  19.694  0.00  0.00    +0.000 N 
ATOM      8  C   UNL     1       3.217   3.956  20.120  0.00  0.00    +0.000 A 
ATOM      9  O   UNL     1       2.651   3.400  21.065  0.00  0.00    +0.000 OA
ATOM     10  C   UNL     1       4.222   3.192  19.371  0.00  0.00    +0.000 A 
ATOM     11  C   UNL     1       4.849   3.806  18.361  0.00  0.00    +0.000 A 
ATOM     12  C   UNL     1       4.599   5.186  17.948  0.00  0.00    +0.000 A 
ATOM     13  C   UNL     1       3.626   5.900  18.608  0.00  0.00    +0.000 A 
ENDROOT
BRANCH   3  14
ATOM     14  N   UNL     1       1.707   9.207  18.636  0.00  0.00    +0.000 N 
ATOM     15  C   UNL     1       1.486  10.273  19.597  0.00  0.00    +0.000 C 
ATOM     16  C   UNL     1       0.070  10.469  19.049  0.00  0.00    +0.000 C 
ATOM     17  C   UNL     1       0.439   9.440  17.979  0.00  0.00    +0.000 C 
BRANCH  16  18
ATOM     18  N   UNL     1      -0.915   9.910  19.990  0.00  0.00    +0.000 NA
ATOM     19  H   UNL     1      -1.865  10.251  19.819  0.00  0.00    +0.000 HD
ATOM     20  H   UNL     1      -0.723  10.138  20.964  0.00  0.00    +0.000 HD
ENDBRANCH  16  18
ENDBRANCH   3  14
BRANCH  12  21
ATOM     21  C   UNL     1       5.468   5.651  16.825  0.00  0.00    +0.000 C 
ATOM     22  C   UNL     1       6.568   4.884  16.128  0.00  0.00    +0.000 C 
ATOM     23  C   UNL     1       5.236   5.030  15.461  0.00  0.00    +0.000 C 
ENDBRANCH  12  21
BRANCH  10  24
ATOM     24  C   UNL     1       4.567   1.779  19.667  0.00  0.00    +0.000 C 
ATOM     25  O   UNL     1       5.179   1.438  20.672  0.00  0.00    +0.000 OA
BRANCH  24  26
ATOM     26  O   UNL     1       4.154   0.881  18.751  0.00  0.00    +0.000 OA
ATOM     27  H   UNL     1       3.260   1.068  18.374  0.00  0.00    +0.000 HD
ENDBRANCH  24  26
ENDBRANCH  10  24
TORSDOF 5
ENDMDL
MODEL 9
REMARK VINA RESULT:      -6.4      3.432      6.069
REMARK  Name = 
REMARK  6 active torsions:
REMARK  status: ('A' for Active; 'I' for Inactive)
REMARK    1  A    between atoms: C_1  and  C_2
REMARK    2  A    between atoms: C_3  and  N_4
REMARK    3  A    between atoms: C_6  and  N_7
REMARK    4  A    between atoms: C_15  and  C_16
REMARK    5  A    between atoms: C_16  and  O_18
REMARK    6  A    between atoms: C_20  and  C_21
REMARK                            x       y       z     vdW  Elec       q    Type
REMARK                         _______ _______ _______ _____ _____    ______ ____
ROOT
ATOM      1  C   UNL     1       2.299   9.224  17.801  0.00  0.00    +0.000 C 
ATOM      2  C   UNL     1       1.764   8.717  19.120  0.00  0.00    +0.000 A 
ATOM      3  C   UNL     1       2.070   7.435  19.470  0.00  0.00    +0.000 A 
ATOM      4  C   UNL     1       1.561   6.959  20.737  0.00  0.00    +0.000 A 
ATOM      5  F   UNL     1       1.756   5.672  21.097  0.00  0.00    +0.000 F 
ATOM      6  C   UNL     1       0.900   7.759  21.567  0.00  0.00    +0.000 A 
ATOM      7  N   UNL     1       0.601   9.087  21.306  0.00  0.00    +0.000 N 
ATOM      8  C   UNL     1      -0.091   9.794  22.296  0.00  0.00    +0.000 A 
ATOM      9  O   UNL     1      -0.427   9.331  23.390  0.00  0.00    +0.000 OA
ATOM     10  C   UNL     1      -0.423  11.195  22.009  0.00  0.00    +0.000 A 
ATOM     11  C   UNL     1      -0.076  11.687  20.815  0.00  0.00    +0.000 A 
ATOM     12  C   UNL     1       0.617  10.927  19.775  0.00  0.00    +0.000 A 
ATOM     13  C   UNL     1       0.979   9.627  20.047  0.00  0.00    +0.000 A 
ENDROOT
BRANCH   3  14
ATOM     14  N   UNL     1       2.883   6.603  18.686  0.00  0.00    +0.000 N 
ATOM     15  C   UNL     1       2.371   5.482  17.920  0.00  0.00    +0.000 C 
ATOM     16  C   UNL     1       3.454   4.582  18.522  0.00  0.00    +0.000 C 
ATOM     17  C   UNL     1       4.015   5.846  19.175  0.00  0.00    +0.000 C 
BRANCH  16  18
ATOM     18  N   UNL     1       2.862   3.692  19.535  0.00  0.00    +0.000 NA
ATOM     19  H   UNL     1       2.601   2.777  19.155  0.00  0.00    +0.000 HD
ATOM     20  H   UNL     1       2.008   4.058  19.952  0.00  0.00    +0.000 HD
ENDBRANCH  16  18
ENDBRANCH   3  14
BRANCH  12  21
ATOM     21  C   UNL     1       0.845  11.692  18.512  0.00  0.00    +0.000 C 
ATOM     22  C   UNL     1       0.627  13.168  18.274  0.00  0.00    +0.000 C 
ATOM     23  C   UNL     1       2.017  12.653  18.481  0.00  0.00    +0.000 C 
ENDBRANCH  12  21
BRANCH  10  24
ATOM     24  C   UNL     1      -1.108  12.090  22.974  0.00  0.00    +0.000 C 
ATOM     25  O   UNL     1      -0.602  13.119  23.406  0.00  0.00    +0.000 OA
BRANCH  24  26
ATOM     26  O   UNL     1      -2.342  11.698  23.348  0.00  0.00    +0.000 OA
ATOM     27  H   UNL     1      -2.869  11.274  22.627  0.00  0.00    +0.000 HD
ENDBRANCH  24  26
ENDBRANCH  10  24
TORSDOF 5
ENDMDL
