MODEL 1
REMARK VINA RESULT:      -8.4      0.000      0.000
REMARK  Name = 
REMARK  5 active torsions:
REMARK  status: ('A' for Active; 'I' for Inactive)
REMARK    1  A    between atoms: C_4  and  C_5
REMARK    2  A    between atoms: C_5  and  O_6
REMARK    3  A    between atoms: O_6  and  C_7
REMARK    4  A    between atoms: N_16  and  C_17
REMARK    5  A    between atoms: C_17  and  C_18
REMARK                            x       y       z     vdW  Elec       q    Type
REMARK                         _______ _______ _______ _____ _____    ______ ____
ROOT
ATOM      1  O   UNL     1       7.637   4.519  18.468  0.00  0.00    +0.000 OA
ATOM      2  C   UNL     1       7.505   5.646  18.029  0.00  0.00    +0.000 A 
ATOM      3  C   UNL     1       8.162   6.845  18.589  0.00  0.00    +0.000 A 
ATOM      4  C   UNL     1       7.742   7.872  17.831  0.00  0.00    +0.000 A 
ATOM      5  N   UNL     1       6.835   7.474  16.852  0.00  0.00    +0.000 N 
ATOM      6  N   UNL     1       6.774   6.082  16.939  0.00  0.00    +0.000 N 
ATOM      7  H   UNL     1       7.066   7.825  15.920  0.00  0.00    +0.000 HD
ENDROOT
BRANCH   4   8
ATOM      8  C   UNL     1       8.241   9.280  17.930  0.00  0.00    +0.000 C 
BRANCH   8   9
ATOM      9  O   UNL     1       9.103   9.381  19.062  0.00  0.00    +0.000 OA
BRANCH   9  10
ATOM     10  C   UNL     1       9.600  10.621  19.354  0.00  0.00    +0.000 A 
ATOM     11  C   UNL     1      10.377  11.410  18.505  0.00  0.00    +0.000 A 
ATOM     12  C   UNL     1      10.801  12.673  18.925  0.00  0.00    +0.000 A 
ATOM     13 CL   UNL     1      11.746  13.644  17.863  0.00  0.00    +0.000 Cl
ATOM     14  C   UNL     1      10.463  13.158  20.185  0.00  0.00    +0.000 A 
ATOM     15  C   UNL     1       9.696  12.363  21.031  0.00  0.00    +0.000 A 
ATOM     16 CL   UNL     1       9.268  12.950  22.591  0.00  0.00    +0.000 Cl
ATOM     17  C   UNL     1       9.266  11.101  20.623  0.00  0.00    +0.000 A 
ENDBRANCH   9  10
ENDBRANCH   8   9
ENDBRANCH   4   8
BRANCH   6  18
ATOM     18  C   UNL     1       5.864   5.304  16.131  0.00  0.00    +0.000 C 
BRANCH  18  19
ATOM     19  C   UNL     1       4.527   5.094  16.802  0.00  0.00    +0.000 A 
ATOM     20  C   UNL     1       3.939   3.820  16.839  0.00  0.00    +0.000 A 
ATOM     21  C   UNL     1       2.739   3.609  17.520  0.00  0.00    +0.000 A 
ATOM     22  C   UNL     1       2.115   4.667  18.177  0.00  0.00    +0.000 A 
ATOM     23  C   UNL     1       2.683   5.939  18.141  0.00  0.00    +0.000 A 
ATOM     24  C   UNL     1       3.881   6.153  17.454  0.00  0.00    +0.000 A 
ENDBRANCH  18  19
ENDBRANCH   6  18
TORSDOF 5
ENDMDL
MODEL 2
REMARK VINA RESULT:      -8.3      0.089      1.878
REMARK  Name = 
REMARK  5 active torsions:
REMARK  status: ('A' for Active; 'I' for Inactive)
REMARK    1  A    between atoms: C_4  and  C_5
REMARK    2  A    between atoms: C_5  and  O_6
REMARK    3  A    between atoms: O_6  and  C_7
REMARK    4  A    between atoms: N_16  and  C_17
REMARK    5  A    between atoms: C_17  and  C_18
REMARK                            x       y       z     vdW  Elec       q    Type
REMARK                         _______ _______ _______ _____ _____    ______ ____
ROOT
ATOM      1  O   UNL     1       7.578   4.521  18.522  0.00  0.00    +0.000 OA
ATOM      2  C   UNL     1       7.466   5.649  18.077  0.00  0.00    +0.000 A 
ATOM      3  C   UNL     1       8.129   6.842  18.642  0.00  0.00    +0.000 A 
ATOM      4  C   UNL     1       7.732   7.871  17.875  0.00  0.00    +0.000 A 
ATOM      5  N   UNL     1       6.835   7.481  16.883  0.00  0.00    +0.000 N 
ATOM      6  N   UNL     1       6.757   6.089  16.974  0.00  0.00    +0.000 N 
ATOM      7  H   UNL     1       7.084   7.825  15.954  0.00  0.00    +0.000 HD
ENDROOT
BRANCH   4   8
ATOM      8  C   UNL     1       8.247   9.273  17.976  0.00  0.00    +0.000 C 
BRANCH   8   9
ATOM      9  O   UNL     1       9.186   9.339  19.048  0.00  0.00    +0.000 OA
BRANCH   9  10
ATOM     10  C   UNL     1       9.556  10.585  19.472  0.00  0.00    +0.000 A 
ATOM     11  C   UNL     1       9.230  11.158  20.703  0.00  0.00    +0.000 A 
ATOM     12  C   UNL     1       9.696  12.437  21.017  0.00  0.00    +0.000 A 
ATOM     13 CL   UNL     1       9.302  13.128  22.544  0.00  0.00    +0.000 Cl
ATOM     14  C   UNL     1      10.478  13.155  20.117  0.00  0.00    +0.000 A 
ATOM     15  C   UNL     1      10.791  12.583  18.889  0.00  0.00    +0.000 A 
ATOM     16 CL   UNL     1      11.760  13.456  17.766  0.00  0.00    +0.000 Cl
ATOM     17  C   UNL     1      10.333  11.306  18.563  0.00  0.00    +0.000 A 
ENDBRANCH   9  10
ENDBRANCH   8   9
ENDBRANCH   4   8
BRANCH   6  18
ATOM     18  C   UNL     1       5.849   5.319  16.156  0.00  0.00    +0.000 C 
BRANCH  18  19
ATOM     19  C   UNL     1       4.512   5.097  16.822  0.00  0.00    +0.000 A 
ATOM     20  C   UNL     1       3.946   3.815  16.878  0.00  0.00    +0.000 A 
ATOM     21  C   UNL     1       2.745   3.595  17.555  0.00  0.00    +0.000 A 
ATOM     22  C   UNL     1       2.099   4.653  18.190  0.00  0.00    +0.000 A 
ATOM     23  C   UNL     1       2.645   5.934  18.135  0.00  0.00    +0.000 A 
ATOM     24  C   UNL     1       3.844   6.157  17.452  0.00  0.00    +0.000 A 
ENDBRANCH  18  19
ENDBRANCH   6  18
TORSDOF 5
ENDMDL
MODEL 3
REMARK VINA RESULT:      -8.2      0.174      1.020
REMARK  Name = 
REMARK  5 active torsions:
REMARK  status: ('A' for Active; 'I' for Inactive)
REMARK    1  A    between atoms: C_4  and  C_5
REMARK    2  A    between atoms: C_5  and  O_6
REMARK    3  A    between atoms: O_6  and  C_7
REMARK    4  A    between atoms: N_16  and  C_17
REMARK    5  A    between atoms: C_17  and  C_18
REMARK                            x       y       z     vdW  Elec       q    Type
REMARK                         _______ _______ _______ _____ _____    ______ ____
ROOT
ATOM      1  O   UNL     1       7.508   4.629  18.335  0.00  0.00    +0.000 OA
ATOM      2  C   UNL     1       7.393   5.769  17.925  0.00  0.00    +0.000 A 
ATOM      3  C   UNL     1       8.084   6.940  18.503  0.00  0.00    +0.000 A 
ATOM      4  C   UNL     1       7.674   7.994  17.777  0.00  0.00    +0.000 A 
ATOM      5  N   UNL     1       6.745   7.639  16.801  0.00  0.00    +0.000 N 
ATOM      6  N   UNL     1       6.656   6.246  16.856  0.00  0.00    +0.000 N 
ATOM      7  H   UNL     1       6.970   8.006  15.875  0.00  0.00    +0.000 HD
ENDROOT
BRANCH   4   8
ATOM      8  C   UNL     1       8.205   9.388  17.901  0.00  0.00    +0.000 C 
BRANCH   8   9
ATOM      9  O   UNL     1       9.145   9.425  18.973  0.00  0.00    +0.000 OA
BRANCH   9  10
ATOM     10  C   UNL     1       9.614  10.655  19.344  0.00  0.00    +0.000 A 
ATOM     11  C   UNL     1      10.432  11.483  18.573  0.00  0.00    +0.000 A 
ATOM     12  C   UNL     1      10.820  12.730  19.068  0.00  0.00    +0.000 A 
ATOM     13 CL   UNL     1      11.816  13.750  18.103  0.00  0.00    +0.000 Cl
ATOM     14  C   UNL     1      10.409  13.160  20.326  0.00  0.00    +0.000 A 
ATOM     15  C   UNL     1       9.602  12.327  21.094  0.00  0.00    +0.000 A 
ATOM     16 CL   UNL     1       9.081  12.845  22.651  0.00  0.00    +0.000 Cl
ATOM     17  C   UNL     1       9.206  11.080  20.611  0.00  0.00    +0.000 A 
ENDBRANCH   9  10
ENDBRANCH   8   9
ENDBRANCH   4   8
BRANCH   6  18
ATOM     18  C   UNL     1       5.718   5.508  16.044  0.00  0.00    +0.000 C 
BRANCH  18  19
ATOM     19  C   UNL     1       4.434   5.197  16.777  0.00  0.00    +0.000 A 
ATOM     20  C   UNL     1       3.714   6.216  17.419  0.00  0.00    +0.000 A 
ATOM     21  C   UNL     1       2.491   5.944  18.036  0.00  0.00    +0.000 A 
ATOM     22  C   UNL     1       1.971   4.652  18.014  0.00  0.00    +0.000 A 
ATOM     23  C   UNL     1       2.680   3.629  17.387  0.00  0.00    +0.000 A 
ATOM     24  C   UNL     1       3.907   3.898  16.775  0.00  0.00    +0.000 A 
ENDBRANCH  18  19
ENDBRANCH   6  18
TORSDOF 5
ENDMDL
MODEL 4
REMARK VINA RESULT:      -7.7      7.425      9.738
REMARK  Name = 
REMARK  5 active torsions:
REMARK  status: ('A' for Active; 'I' for Inactive)
REMARK    1  A    between atoms: C_4  and  C_5
REMARK    2  A    between atoms: C_5  and  O_6
REMARK    3  A    between atoms: O_6  and  C_7
REMARK    4  A    between atoms: N_16  and  C_17
REMARK    5  A    between atoms: C_17  and  C_18
REMARK                            x       y       z     vdW  Elec       q    Type
REMARK                         _______ _______ _______ _____ _____    ______ ____
ROOT
ATOM      1  O   UNL     1       2.891   8.071  17.056  0.00  0.00    +0.000 OA
ATOM      2  C   UNL     1       2.212   8.420  18.004  0.00  0.00    +0.000 A 
ATOM      3  C   UNL     1       1.342   9.615  18.016  0.00  0.00    +0.000 A 
ATOM      4  C   UNL     1       0.791   9.646  19.241  0.00  0.00    +0.000 A 
ATOM      5  N   UNL     1       1.245   8.611  20.055  0.00  0.00    +0.000 N 
ATOM      6  N   UNL     1       2.054   7.818  19.239  0.00  0.00    +0.000 N 
ATOM      7  H   UNL     1       0.492   8.101  20.519  0.00  0.00    +0.000 HD
ENDROOT
BRANCH   4   8
ATOM      8  C   UNL     1      -0.269  10.604  19.688  0.00  0.00    +0.000 C 
BRANCH   8   9
ATOM      9  O   UNL     1      -0.633  11.429  18.583  0.00  0.00    +0.000 OA
BRANCH   9  10
ATOM     10  C   UNL     1      -1.938  11.381  18.177  0.00  0.00    +0.000 A 
ATOM     11  C   UNL     1      -3.041  11.799  18.923  0.00  0.00    +0.000 A 
ATOM     12  C   UNL     1      -4.323  11.714  18.374  0.00  0.00    +0.000 A 
ATOM     13 CL   UNL     1      -5.675  12.247  19.297  0.00  0.00    +0.000 Cl
ATOM     14  C   UNL     1      -4.519  11.211  17.091  0.00  0.00    +0.000 A 
ATOM     15  C   UNL     1      -3.417  10.787  16.356  0.00  0.00    +0.000 A 
ATOM     16 CL   UNL     1      -3.643  10.165  14.767  0.00  0.00    +0.000 Cl
ATOM     17  C   UNL     1      -2.133  10.867  16.892  0.00  0.00    +0.000 A 
ENDBRANCH   9  10
ENDBRANCH   8   9
ENDBRANCH   4   8
BRANCH   6  18
ATOM     18  C   UNL     1       2.783   6.683  19.756  0.00  0.00    +0.000 C 
BRANCH  18  19
ATOM     19  C   UNL     1       2.075   5.373  19.504  0.00  0.00    +0.000 A 
ATOM     20  C   UNL     1       2.087   4.789  18.228  0.00  0.00    +0.000 A 
ATOM     21  C   UNL     1       1.494   3.544  18.009  0.00  0.00    +0.000 A 
ATOM     22  C   UNL     1       0.887   2.866  19.062  0.00  0.00    +0.000 A 
ATOM     23  C   UNL     1       0.860   3.438  20.333  0.00  0.00    +0.000 A 
ATOM     24  C   UNL     1       1.447   4.687  20.553  0.00  0.00    +0.000 A 
ENDBRANCH  18  19
ENDBRANCH   6  18
TORSDOF 5
ENDMDL
MODEL 5
REMARK VINA RESULT:      -7.7      7.293      9.468
REMARK  Name = 
REMARK  5 active torsions:
REMARK  status: ('A' for Active; 'I' for Inactive)
REMARK    1  A    between atoms: C_4  and  C_5
REMARK    2  A    between atoms: C_5  and  O_6
REMARK    3  A    between atoms: O_6  and  C_7
REMARK    4  A    between atoms: N_16  and  C_17
REMARK    5  A    between atoms: C_17  and  C_18
REMARK                            x       y       z     vdW  Elec       q    Type
REMARK                         _______ _______ _______ _____ _____    ______ ____
ROOT
ATOM      1  O   UNL     1       3.223   8.008  17.011  0.00  0.00    +0.000 OA
ATOM      2  C   UNL     1       2.478   8.299  17.928  0.00  0.00    +0.000 A 
ATOM      3  C   UNL     1       1.559   9.456  17.927  0.00  0.00    +0.000 A 
ATOM      4  C   UNL     1       0.939   9.424  19.118  0.00  0.00    +0.000 A 
ATOM      5  N   UNL     1       1.390   8.383  19.926  0.00  0.00    +0.000 N 
ATOM      6  N   UNL     1       2.277   7.650  19.133  0.00  0.00    +0.000 N 
ATOM      7  H   UNL     1       0.635   7.827  20.330  0.00  0.00    +0.000 HD
ENDROOT
BRANCH   4   8
ATOM      8  C   UNL     1      -0.185  10.323  19.532  0.00  0.00    +0.000 C 
BRANCH   8   9
ATOM      9  O   UNL     1      -0.471  11.219  18.459  0.00  0.00    +0.000 OA
BRANCH   9  10
ATOM     10  C   UNL     1      -1.738  11.185  17.945  0.00  0.00    +0.000 A 
ATOM     11  C   UNL     1      -2.096  10.689  16.690  0.00  0.00    +0.000 A 
ATOM     12  C   UNL     1      -3.437  10.694  16.299  0.00  0.00    +0.000 A 
ATOM     13 CL   UNL     1      -3.870  10.066  14.756  0.00  0.00    +0.000 Cl
ATOM     14  C   UNL     1      -4.426  11.195  17.141  0.00  0.00    +0.000 A 
ATOM     15  C   UNL     1      -4.062  11.697  18.386  0.00  0.00    +0.000 A 
ATOM     16 CL   UNL     1      -5.273  12.317  19.440  0.00  0.00    +0.000 Cl
ATOM     17  C   UNL     1      -2.727  11.696  18.789  0.00  0.00    +0.000 A 
ENDBRANCH   9  10
ENDBRANCH   8   9
ENDBRANCH   4   8
BRANCH   6  18
ATOM     18  C   UNL     1       3.024   6.530  19.657  0.00  0.00    +0.000 C 
BRANCH  18  19
ATOM     19  C   UNL     1       2.287   5.220  19.508  0.00  0.00    +0.000 A 
ATOM     20  C   UNL     1       1.734   4.580  20.628  0.00  0.00    +0.000 A 
ATOM     21  C   UNL     1       0.992   3.407  20.483  0.00  0.00    +0.000 A 
ATOM     22  C   UNL     1       0.790   2.862  19.218  0.00  0.00    +0.000 A 
ATOM     23  C   UNL     1       1.341   3.482  18.098  0.00  0.00    +0.000 A 
ATOM     24  C   UNL     1       2.089   4.653  18.242  0.00  0.00    +0.000 A 
ENDBRANCH  18  19
ENDBRANCH   6  18
TORSDOF 5
ENDMDL
MODEL 6
REMARK VINA RESULT:      -7.4      6.722      9.446
REMARK  Name = 
REMARK  5 active torsions:
REMARK  status: ('A' for Active; 'I' for Inactive)
REMARK    1  A    between atoms: C_4  and  C_5
REMARK    2  A    between atoms: C_5  and  O_6
REMARK    3  A    between atoms: O_6  and  C_7
REMARK    4  A    between atoms: N_16  and  C_17
REMARK    5  A    between atoms: C_17  and  C_18
REMARK                            x       y       z     vdW  Elec       q    Type
REMARK                         _______ _______ _______ _____ _____    ______ ____
ROOT
ATOM      1  O   UNL     1      -0.627  10.422  21.883  0.00  0.00    +0.000 OA
ATOM      2  C   UNL     1       0.076   9.853  21.068  0.00  0.00    +0.000 A 
ATOM      3  C   UNL     1       0.880   8.647  21.353  0.00  0.00    +0.000 A 
ATOM      4  C   UNL     1       1.511   8.355  20.204  0.00  0.00    +0.000 A 
ATOM      5  N   UNL     1       1.235   9.278  19.197  0.00  0.00    +0.000 N 
ATOM      6  N   UNL     1       0.277  10.142  19.731  0.00  0.00    +0.000 N 
ATOM      7  H   UNL     1       0.960   8.844  18.314  0.00  0.00    +0.000 HD
ENDROOT
BRANCH   4   8
ATOM      8  C   UNL     1       2.342   7.134  19.959  0.00  0.00    +0.000 C 
BRANCH   8   9
ATOM      9  O   UNL     1       2.522   6.979  18.553  0.00  0.00    +0.000 OA
BRANCH   9  10
ATOM     10  C   UNL     1       2.850   5.729  18.105  0.00  0.00    +0.000 A 
ATOM     11  C   UNL     1       3.964   5.408  17.326  0.00  0.00    +0.000 A 
ATOM     12  C   UNL     1       4.192   4.080  16.956  0.00  0.00    +0.000 A 
ATOM     13 CL   UNL     1       5.576   3.693  16.008  0.00  0.00    +0.000 Cl
ATOM     14  C   UNL     1       3.320   3.069  17.348  0.00  0.00    +0.000 A 
ATOM     15  C   UNL     1       2.208   3.396  18.116  0.00  0.00    +0.000 A 
ATOM     16 CL   UNL     1       1.122   2.155  18.612  0.00  0.00    +0.000 Cl
ATOM     17  C   UNL     1       1.969   4.717  18.493  0.00  0.00    +0.000 A 
ENDBRANCH   9  10
ENDBRANCH   8   9
ENDBRANCH   4   8
BRANCH   6  18
ATOM     18  C   UNL     1      -0.200  11.297  19.006  0.00  0.00    +0.000 C 
BRANCH  18  19
ATOM     19  C   UNL     1      -1.582  11.093  18.433  0.00  0.00    +0.000 A 
ATOM     20  C   UNL     1      -1.818  10.097  17.474  0.00  0.00    +0.000 A 
ATOM     21  C   UNL     1      -3.108   9.859  16.996  0.00  0.00    +0.000 A 
ATOM     22  C   UNL     1      -4.178  10.610  17.475  0.00  0.00    +0.000 A 
ATOM     23  C   UNL     1      -3.957  11.609  18.422  0.00  0.00    +0.000 A 
ATOM     24  C   UNL     1      -2.666  11.852  18.897  0.00  0.00    +0.000 A 
ENDBRANCH  18  19
ENDBRANCH   6  18
TORSDOF 5
ENDMDL
MODEL 7
REMARK VINA RESULT:      -7.4      7.348      9.430
REMARK  Name = 
REMARK  5 active torsions:
REMARK  status: ('A' for Active; 'I' for Inactive)
REMARK    1  A    between atoms: C_4  and  C_5
REMARK    2  A    between atoms: C_5  and  O_6
REMARK    3  A    between atoms: O_6  and  C_7
REMARK    4  A    between atoms: N_16  and  C_17
REMARK    5  A    between atoms: C_17  and  C_18
REMARK                            x       y       z     vdW  Elec       q    Type
REMARK                         _______ _______ _______ _____ _____    ______ ____
ROOT
ATOM      1  O   UNL     1       2.700   8.317  17.122  0.00  0.00    +0.000 OA
ATOM      2  C   UNL     1       2.127   8.514  18.178  0.00  0.00    +0.000 A 
ATOM      3  C   UNL     1       1.235   9.661  18.445  0.00  0.00    +0.000 A 
ATOM      4  C   UNL     1       0.829   9.512  19.717  0.00  0.00    +0.000 A 
ATOM      5  N   UNL     1       1.402   8.401  20.332  0.00  0.00    +0.000 N 
ATOM      6  N   UNL     1       2.130   7.752  19.332  0.00  0.00    +0.000 N 
ATOM      7  H   UNL     1       0.721   7.805  20.806  0.00  0.00    +0.000 HD
ENDROOT
BRANCH   4   8
ATOM      8  C   UNL     1      -0.196  10.361  20.403  0.00  0.00    +0.000 C 
BRANCH   8   9
ATOM      9  O   UNL     1      -0.484  11.486  19.575  0.00  0.00    +0.000 OA
BRANCH   9  10
ATOM     10  C   UNL     1      -1.761  11.592  19.096  0.00  0.00    +0.000 A 
ATOM     11  C   UNL     1      -2.201  11.162  17.843  0.00  0.00    +0.000 A 
ATOM     12  C   UNL     1      -3.544  11.312  17.490  0.00  0.00    +0.000 A 
ATOM     13 CL   UNL     1      -4.079  10.764  15.948  0.00  0.00    +0.000 Cl
ATOM     14  C   UNL     1      -4.454  11.892  18.369  0.00  0.00    +0.000 A 
ATOM     15  C   UNL     1      -4.008  12.327  19.613  0.00  0.00    +0.000 A 
ATOM     16 CL   UNL     1      -5.121  13.044  20.712  0.00  0.00    +0.000 Cl
ATOM     17  C   UNL     1      -2.670  12.182  19.977  0.00  0.00    +0.000 A 
ENDBRANCH   9  10
ENDBRANCH   8   9
ENDBRANCH   4   8
BRANCH   6  18
ATOM     18  C   UNL     1       2.944   6.591  19.610  0.00  0.00    +0.000 C 
BRANCH  18  19
ATOM     19  C   UNL     1       2.200   5.295  19.389  0.00  0.00    +0.000 A 
ATOM     20  C   UNL     1       2.254   4.643  18.147  0.00  0.00    +0.000 A 
ATOM     21  C   UNL     1       1.627   3.410  17.962  0.00  0.00    +0.000 A 
ATOM     22  C   UNL     1       0.943   2.810  19.017  0.00  0.00    +0.000 A 
ATOM     23  C   UNL     1       0.875   3.450  20.253  0.00  0.00    +0.000 A 
ATOM     24  C   UNL     1       1.497   4.688  20.438  0.00  0.00    +0.000 A 
ENDBRANCH  18  19
ENDBRANCH   6  18
TORSDOF 5
ENDMDL
MODEL 8
REMARK VINA RESULT:      -7.4      7.194      9.002
REMARK  Name = 
REMARK  5 active torsions:
REMARK  status: ('A' for Active; 'I' for Inactive)
REMARK    1  A    between atoms: C_4  and  C_5
REMARK    2  A    between atoms: C_5  and  O_6
REMARK    3  A    between atoms: O_6  and  C_7
REMARK    4  A    between atoms: N_16  and  C_17
REMARK    5  A    between atoms: C_17  and  C_18
REMARK                            x       y       z     vdW  Elec       q    Type
REMARK                         _______ _______ _______ _____ _____    ______ ____
ROOT
ATOM      1  O   UNL     1       1.739   8.909  17.946  0.00  0.00    +0.000 OA
ATOM      2  C   UNL     1       1.510   8.720  19.126  0.00  0.00    +0.000 A 
ATOM      3  C   UNL     1       0.689   9.610  19.973  0.00  0.00    +0.000 A 
ATOM      4  C   UNL     1       0.702   9.055  21.196  0.00  0.00    +0.000 A 
ATOM      5  N   UNL     1       1.487   7.906  21.251  0.00  0.00    +0.000 N 
ATOM      6  N   UNL     1       1.902   7.672  19.939  0.00  0.00    +0.000 N 
ATOM      7  H   UNL     1       1.013   7.113  21.687  0.00  0.00    +0.000 HD
ENDROOT
BRANCH   4   8
ATOM      8  C   UNL     1      -0.102   9.527  22.368  0.00  0.00    +0.000 C 
BRANCH   8   9
ATOM      9  O   UNL     1       0.241  10.885  22.640  0.00  0.00    +0.000 OA
BRANCH   9  10
ATOM     10  C   UNL     1      -0.758  11.811  22.525  0.00  0.00    +0.000 A 
ATOM     11  C   UNL     1      -0.774  12.889  21.637  0.00  0.00    +0.000 A 
ATOM     12  C   UNL     1      -1.874  13.749  21.609  0.00  0.00    +0.000 A 
ATOM     13 CL   UNL     1      -1.890  15.065  20.500  0.00  0.00    +0.000 Cl
ATOM     14  C   UNL     1      -2.957  13.552  22.460  0.00  0.00    +0.000 A 
ATOM     15  C   UNL     1      -2.932  12.483  23.349  0.00  0.00    +0.000 A 
ATOM     16 CL   UNL     1      -4.266  12.224  24.406  0.00  0.00    +0.000 Cl
ATOM     17  C   UNL     1      -1.840  11.616  23.386  0.00  0.00    +0.000 A 
ENDBRANCH   9  10
ENDBRANCH   8   9
ENDBRANCH   4   8
BRANCH   6  18
ATOM     18  C   UNL     1       2.815   6.603  19.605  0.00  0.00    +0.000 C 
BRANCH  18  19
ATOM     19  C   UNL     1       2.115   5.278  19.419  0.00  0.00    +0.000 A 
ATOM     20  C   UNL     1       2.023   4.691  18.148  0.00  0.00    +0.000 A 
ATOM     21  C   UNL     1       1.440   3.433  17.984  0.00  0.00    +0.000 A 
ATOM     22  C   UNL     1       0.946   2.745  19.090  0.00  0.00    +0.000 A 
ATOM     23  C   UNL     1       1.023   3.320  20.357  0.00  0.00    +0.000 A 
ATOM     24  C   UNL     1       1.601   4.582  20.521  0.00  0.00    +0.000 A 
ENDBRANCH  18  19
ENDBRANCH   6  18
TORSDOF 5
ENDMDL
MODEL 9
REMARK VINA RESULT:      -7.3      6.790      9.742
REMARK  Name = 
REMARK  5 active torsions:
REMARK  status: ('A' for Active; 'I' for Inactive)
REMARK    1  A    between atoms: C_4  and  C_5
REMARK    2  A    between atoms: C_5  and  O_6
REMARK    3  A    between atoms: O_6  and  C_7
REMARK    4  A    between atoms: N_16  and  C_17
REMARK    5  A    between atoms: C_17  and  C_18
REMARK                            x       y       z     vdW  Elec       q    Type
REMARK                         _______ _______ _______ _____ _____    ______ ____
ROOT
ATOM      1  O   UNL     1      -0.661  11.108  21.813  0.00  0.00    +0.000 OA
ATOM      2  C   UNL     1      -0.048  10.312  21.125  0.00  0.00    +0.000 A 
ATOM      3  C   UNL     1       0.659   9.124  21.648  0.00  0.00    +0.000 A 
ATOM      4  C   UNL     1       1.210   8.533  20.575  0.00  0.00    +0.000 A 
ATOM      5  N   UNL     1       0.972   9.238  19.397  0.00  0.00    +0.000 N 
ATOM      6  N   UNL     1       0.118  10.284  19.753  0.00  0.00    +0.000 N 
ATOM      7  H   UNL     1       0.620   8.652  18.638  0.00  0.00    +0.000 HD
ENDROOT
BRANCH   4   8
ATOM      8  C   UNL     1       1.920   7.215  20.583  0.00  0.00    +0.000 C 
BRANCH   8   9
ATOM      9  O   UNL     1       2.638   7.075  19.359  0.00  0.00    +0.000 OA
BRANCH   9  10
ATOM     10  C   UNL     1       2.648   5.834  18.784  0.00  0.00    +0.000 A 
ATOM     11  C   UNL     1       1.756   4.797  19.066  0.00  0.00    +0.000 A 
ATOM     12  C   UNL     1       1.867   3.582  18.385  0.00  0.00    +0.000 A 
ATOM     13 CL   UNL     1       0.754   2.316  18.730  0.00  0.00    +0.000 Cl
ATOM     14  C   UNL     1       2.860   3.386  17.430  0.00  0.00    +0.000 A 
ATOM     15  C   UNL     1       3.751   4.420  17.159  0.00  0.00    +0.000 A 
ATOM     16 CL   UNL     1       4.982   4.194  15.978  0.00  0.00    +0.000 Cl
ATOM     17  C   UNL     1       3.650   5.638  17.832  0.00  0.00    +0.000 A 
ENDBRANCH   9  10
ENDBRANCH   8   9
ENDBRANCH   4   8
BRANCH   6  18
ATOM     18  C   UNL     1      -0.288  11.296  18.804  0.00  0.00    +0.000 C 
BRANCH  18  19
ATOM     19  C   UNL     1      -1.653  11.027  18.217  0.00  0.00    +0.000 A 
ATOM     20  C   UNL     1      -2.779  11.728  18.677  0.00  0.00    +0.000 A 
ATOM     21  C   UNL     1      -4.029  11.532  18.087  0.00  0.00    +0.000 A 
ATOM     22  C   UNL     1      -4.169  10.639  17.028  0.00  0.00    +0.000 A 
ATOM     23  C   UNL     1      -3.061   9.929  16.568  0.00  0.00    +0.000 A 
ATOM     24  C   UNL     1      -1.810  10.119  17.161  0.00  0.00    +0.000 A 
ENDBRANCH  18  19
ENDBRANCH   6  18
TORSDOF 5
ENDMDL
