MODEL 1
REMARK VINA RESULT:      -7.7      0.000      0.000
REMARK  Name = 
REMARK  7 active torsions:
REMARK  status: ('A' for Active; 'I' for Inactive)
REMARK    1  A    between atoms: C_1  and  C_2
REMARK    2  A    between atoms: C_2  and  C_3
REMARK    3  A    between atoms: N_6  and  N_7
REMARK    4  A    between atoms: C_8  and  C_9
REMARK    5  A    between atoms: C_8  and  C_10
REMARK    6  A    between atoms: C_10  and  O_11
REMARK    7  A    between atoms: O_11  and  C_12
REMARK                            x       y       z     vdW  Elec       q    Type
REMARK                         _______ _______ _______ _____ _____    ______ ____
ROOT
ATOM      1  N   UNL     1       6.068   4.609  18.665  0.00  0.00    +0.000 NA
ATOM      2  C   UNL     1       6.415   5.346  17.649  0.00  0.00    +0.000 C 
ATOM      3  C   UNL     1       5.820   6.695  17.310  0.00  0.00    +0.000 C 
ENDROOT
BRANCH   1   7
ATOM      4  C   UNL     1       1.444   4.012  19.444  0.00  0.00    +0.000 C 
ATOM      5  S   UNL     1       2.538   5.276  20.189  0.00  0.00    +0.000 S 
ATOM      6  C   UNL     1       3.924   4.708  19.321  0.00  0.00    +0.000 C 
ATOM      7  N   UNL     1       5.101   5.205  19.479  0.00  0.00    +0.000 NA
ATOM      8  N   UNL     1       3.599   3.724  18.455  0.00  0.00    +0.000 N 
ATOM      9  C   UNL     1       2.295   3.339  18.379  0.00  0.00    +0.000 C 
ATOM     10  O   UNL     1       1.877   2.527  17.566  0.00  0.00    +0.000 OA
ATOM     11  H   UNL     1       4.316   3.349  17.853  0.00  0.00    +0.000 HD
BRANCH   4  13
ATOM     12  C   UNL     1       1.826   2.893  21.725  0.00  0.00    +0.000 C 
ATOM     13  C   UNL     1       0.982   2.966  20.460  0.00  0.00    +0.000 C 
ENDBRANCH   4  13
ENDBRANCH   1   7
BRANCH   2  14
ATOM     14  C   UNL     1       7.471   4.795  16.693  0.00  0.00    +0.000 C 
BRANCH  14  15
ATOM     15  O   UNL     1       7.482   5.550  15.488  0.00  0.00    +0.000 OA
BRANCH  15  16
ATOM     16  C   UNL     1       7.025   4.890  14.376  0.00  0.00    +0.000 A 
ATOM     17  C   UNL     1       7.761   5.104  13.207  0.00  0.00    +0.000 A 
ATOM     18  C   UNL     1       7.385   4.498  12.008  0.00  0.00    +0.000 A 
ATOM     19  C   UNL     1       6.278   3.650  11.973  0.00  0.00    +0.000 A 
ATOM     20  C   UNL     1       5.557   3.408  13.139  0.00  0.00    +0.000 A 
ATOM     21  C   UNL     1       5.929   4.025  14.340  0.00  0.00    +0.000 A 
ENDBRANCH  15  16
ENDBRANCH  14  15
ENDBRANCH   2  14
TORSDOF 5
ENDMDL
MODEL 2
REMARK VINA RESULT:      -7.7      0.694      1.352
REMARK  Name = 
REMARK  7 active torsions:
REMARK  status: ('A' for Active; 'I' for Inactive)
REMARK    1  A    between atoms: C_1  and  C_2
REMARK    2  A    between atoms: C_2  and  C_3
REMARK    3  A    between atoms: N_6  and  N_7
REMARK    4  A    between atoms: C_8  and  C_9
REMARK    5  A    between atoms: C_8  and  C_10
REMARK    6  A    between atoms: C_10  and  O_11
REMARK    7  A    between atoms: O_11  and  C_12
REMARK                            x       y       z     vdW  Elec       q    Type
REMARK                         _______ _______ _______ _____ _____    ______ ____
ROOT
ATOM      1  N   UNL     1       5.271   5.163  17.848  0.00  0.00    +0.000 NA
ATOM      2  C   UNL     1       6.566   5.139  17.982  0.00  0.00    +0.000 C 
ATOM      3  C   UNL     1       7.320   5.569  19.221  0.00  0.00    +0.000 C 
ENDROOT
BRANCH   1   7
ATOM      4  C   UNL     1       1.174   4.128  19.965  0.00  0.00    +0.000 C 
ATOM      5  S   UNL     1       2.405   5.377  20.488  0.00  0.00    +0.000 S 
ATOM      6  C   UNL     1       3.454   5.021  19.157  0.00  0.00    +0.000 C 
ATOM      7  N   UNL     1       4.601   5.585  18.998  0.00  0.00    +0.000 NA
ATOM      8  N   UNL     1       2.901   4.122  18.315  0.00  0.00    +0.000 N 
ATOM      9  C   UNL     1       1.657   3.649  18.606  0.00  0.00    +0.000 C 
ATOM     10  O   UNL     1       1.027   2.907  17.866  0.00  0.00    +0.000 OA
ATOM     11  H   UNL     1       3.397   3.875  17.472  0.00  0.00    +0.000 HD
BRANCH   4  13
ATOM     12  C   UNL     1       2.349   2.738  21.779  0.00  0.00    +0.000 C 
ATOM     13  C   UNL     1       1.104   2.938  20.926  0.00  0.00    +0.000 C 
ENDBRANCH   4  13
ENDBRANCH   1   7
BRANCH   2  14
ATOM     14  C   UNL     1       7.401   4.687  16.786  0.00  0.00    +0.000 C 
BRANCH  14  15
ATOM     15  O   UNL     1       7.215   5.580  15.695  0.00  0.00    +0.000 OA
BRANCH  15  16
ATOM     16  C   UNL     1       6.992   4.985  14.479  0.00  0.00    +0.000 A 
ATOM     17  C   UNL     1       5.867   4.156  14.416  0.00  0.00    +0.000 A 
ATOM     18  C   UNL     1       5.544   3.485  13.236  0.00  0.00    +0.000 A 
ATOM     19  C   UNL     1       6.332   3.656  12.098  0.00  0.00    +0.000 A 
ATOM     20  C   UNL     1       7.436   4.503  12.144  0.00  0.00    +0.000 A 
ATOM     21  C   UNL     1       7.766   5.169  13.332  0.00  0.00    +0.000 A 
ENDBRANCH  15  16
ENDBRANCH  14  15
ENDBRANCH   2  14
TORSDOF 5
ENDMDL
MODEL 3
REMARK VINA RESULT:      -6.9      6.117      8.103
REMARK  Name = 
REMARK  7 active torsions:
REMARK  status: ('A' for Active; 'I' for Inactive)
REMARK    1  A    between atoms: C_1  and  C_2
REMARK    2  A    between atoms: C_2  and  C_3
REMARK    3  A    between atoms: N_6  and  N_7
REMARK    4  A    between atoms: C_8  and  C_9
REMARK    5  A    between atoms: C_8  and  C_10
REMARK    6  A    between atoms: C_10  and  O_11
REMARK    7  A    between atoms: O_11  and  C_12
REMARK                            x       y       z     vdW  Elec       q    Type
REMARK                         _______ _______ _______ _____ _____    ______ ____
ROOT
ATOM      1  N   UNL     1       1.184   9.521  18.523  0.00  0.00    +0.000 NA
ATOM      2  C   UNL     1       1.515   8.648  19.431  0.00  0.00    +0.000 C 
ATOM      3  C   UNL     1       1.127   8.723  20.891  0.00  0.00    +0.000 C 
ENDROOT
BRANCH   1   7
ATOM      4  C   UNL     1      -3.029  11.337  17.381  0.00  0.00    +0.000 C 
ATOM      5  S   UNL     1      -1.898  11.909  18.702  0.00  0.00    +0.000 S 
ATOM      6  C   UNL     1      -0.717  10.698  18.331  0.00  0.00    +0.000 C 
ATOM      7  N   UNL     1       0.367  10.545  19.008  0.00  0.00    +0.000 NA
ATOM      8  N   UNL     1      -1.068   9.981  17.241  0.00  0.00    +0.000 N 
ATOM      9  C   UNL     1      -2.233  10.295  16.611  0.00  0.00    +0.000 C 
ATOM     10  O   UNL     1      -2.598   9.775  15.566  0.00  0.00    +0.000 OA
ATOM     11  H   UNL     1      -0.431   9.279  16.896  0.00  0.00    +0.000 HD
BRANCH   4  13
ATOM     12  C   UNL     1      -5.165  11.620  18.781  0.00  0.00    +0.000 C 
ATOM     13  C   UNL     1      -4.300  10.693  17.939  0.00  0.00    +0.000 C 
ENDBRANCH   4  13
ENDBRANCH   1   7
BRANCH   2  14
ATOM     14  C   UNL     1       2.404   7.481  19.010  0.00  0.00    +0.000 C 
BRANCH  14  15
ATOM     15  O   UNL     1       2.397   6.473  20.013  0.00  0.00    +0.000 OA
BRANCH  15  16
ATOM     16  C   UNL     1       1.959   5.239  19.605  0.00  0.00    +0.000 A 
ATOM     17  C   UNL     1       1.438   4.424  20.615  0.00  0.00    +0.000 A 
ATOM     18  C   UNL     1       0.973   3.141  20.324  0.00  0.00    +0.000 A 
ATOM     19  C   UNL     1       1.004   2.669  19.013  0.00  0.00    +0.000 A 
ATOM     20  C   UNL     1       1.493   3.485  17.996  0.00  0.00    +0.000 A 
ATOM     21  C   UNL     1       1.969   4.769  18.290  0.00  0.00    +0.000 A 
ENDBRANCH  15  16
ENDBRANCH  14  15
ENDBRANCH   2  14
TORSDOF 5
ENDMDL
MODEL 4
REMARK VINA RESULT:      -6.8      1.124      1.414
REMARK  Name = 
REMARK  7 active torsions:
REMARK  status: ('A' for Active; 'I' for Inactive)
REMARK    1  A    between atoms: C_1  and  C_2
REMARK    2  A    between atoms: C_2  and  C_3
REMARK    3  A    between atoms: N_6  and  N_7
REMARK    4  A    between atoms: C_8  and  C_9
REMARK    5  A    between atoms: C_8  and  C_10
REMARK    6  A    between atoms: C_10  and  O_11
REMARK    7  A    between atoms: O_11  and  C_12
REMARK                            x       y       z     vdW  Elec       q    Type
REMARK                         _______ _______ _______ _____ _____    ______ ____
ROOT
ATOM      1  N   UNL     1       5.101   6.354  18.054  0.00  0.00    +0.000 NA
ATOM      2  C   UNL     1       6.190   5.847  17.548  0.00  0.00    +0.000 C 
ATOM      3  C   UNL     1       6.998   4.730  18.169  0.00  0.00    +0.000 C 
ENDROOT
BRANCH   1   7
ATOM      4  C   UNL     1       1.514   3.563  19.352  0.00  0.00    +0.000 C 
ATOM      5  S   UNL     1       2.850   4.216  20.418  0.00  0.00    +0.000 S 
ATOM      6  C   UNL     1       3.593   5.069  19.107  0.00  0.00    +0.000 C 
ATOM      7  N   UNL     1       4.693   5.728  19.234  0.00  0.00    +0.000 NA
ATOM      8  N   UNL     1       2.860   4.978  17.977  0.00  0.00    +0.000 N 
ATOM      9  C   UNL     1       1.696   4.273  18.020  0.00  0.00    +0.000 C 
ATOM     10  O   UNL     1       0.912   4.207  17.084  0.00  0.00    +0.000 OA
ATOM     11  H   UNL     1       3.166   5.480  17.157  0.00  0.00    +0.000 HD
BRANCH   4  13
ATOM     12  C   UNL     1       2.971   1.580  18.612  0.00  0.00    +0.000 C 
ATOM     13  C   UNL     1       1.623   2.051  19.138  0.00  0.00    +0.000 C 
ENDBRANCH   4  13
ENDBRANCH   1   7
BRANCH   2  14
ATOM     14  C   UNL     1       6.726   6.452  16.253  0.00  0.00    +0.000 C 
BRANCH  14  15
ATOM     15  O   UNL     1       7.612   5.541  15.617  0.00  0.00    +0.000 OA
BRANCH  15  16
ATOM     16  C   UNL     1       7.114   4.917  14.502  0.00  0.00    +0.000 A 
ATOM     17  C   UNL     1       7.806   5.171  13.314  0.00  0.00    +0.000 A 
ATOM     18  C   UNL     1       7.386   4.603  12.111  0.00  0.00    +0.000 A 
ATOM     19  C   UNL     1       6.280   3.754  12.089  0.00  0.00    +0.000 A 
ATOM     20  C   UNL     1       5.604   3.471  13.273  0.00  0.00    +0.000 A 
ATOM     21  C   UNL     1       6.020   4.050  14.479  0.00  0.00    +0.000 A 
ENDBRANCH  15  16
ENDBRANCH  14  15
ENDBRANCH   2  14
TORSDOF 5
ENDMDL
MODEL 5
REMARK VINA RESULT:      -6.8      1.112      1.158
REMARK  Name = 
REMARK  7 active torsions:
REMARK  status: ('A' for Active; 'I' for Inactive)
REMARK    1  A    between atoms: C_1  and  C_2
REMARK    2  A    between atoms: C_2  and  C_3
REMARK    3  A    between atoms: N_6  and  N_7
REMARK    4  A    between atoms: C_8  and  C_9
REMARK    5  A    between atoms: C_8  and  C_10
REMARK    6  A    between atoms: C_10  and  O_11
REMARK    7  A    between atoms: O_11  and  C_12
REMARK                            x       y       z     vdW  Elec       q    Type
REMARK                         _______ _______ _______ _____ _____    ______ ____
ROOT
ATOM      1  N   UNL     1       5.424   5.706  18.210  0.00  0.00    +0.000 NA
ATOM      2  C   UNL     1       5.747   6.254  17.074  0.00  0.00    +0.000 C 
ATOM      3  C   UNL     1       4.781   6.940  16.134  0.00  0.00    +0.000 C 
ENDROOT
BRANCH   1   7
ATOM      4  C   UNL     1       1.838   2.791  19.205  0.00  0.00    +0.000 C 
ATOM      5  S   UNL     1       1.778   4.615  19.078  0.00  0.00    +0.000 S 
ATOM      6  C   UNL     1       3.463   4.727  18.694  0.00  0.00    +0.000 C 
ATOM      7  N   UNL     1       4.072   5.850  18.532  0.00  0.00    +0.000 NA
ATOM      8  N   UNL     1       4.023   3.506  18.559  0.00  0.00    +0.000 N 
ATOM      9  C   UNL     1       3.230   2.412  18.724  0.00  0.00    +0.000 C 
ATOM     10  O   UNL     1       3.611   1.266  18.532  0.00  0.00    +0.000 OA
ATOM     11  H   UNL     1       4.992   3.443  18.283  0.00  0.00    +0.000 HD
BRANCH   4  13
ATOM     12  C   UNL     1       2.045   3.301  21.714  0.00  0.00    +0.000 C 
ATOM     13  C   UNL     1       1.647   2.298  20.641  0.00  0.00    +0.000 C 
ENDBRANCH   4  13
ENDBRANCH   1   7
BRANCH   2  14
ATOM     14  C   UNL     1       7.203   6.161  16.624  0.00  0.00    +0.000 C 
BRANCH  14  15
ATOM     15  O   UNL     1       7.489   4.848  16.160  0.00  0.00    +0.000 OA
BRANCH  15  16
ATOM     16  C   UNL     1       7.145   4.597  14.856  0.00  0.00    +0.000 A 
ATOM     17  C   UNL     1       7.922   5.249  13.895  0.00  0.00    +0.000 A 
ATOM     18  C   UNL     1       7.659   5.083  12.535  0.00  0.00    +0.000 A 
ATOM     19  C   UNL     1       6.628   4.240  12.122  0.00  0.00    +0.000 A 
ATOM     20  C   UNL     1       5.868   3.562  13.073  0.00  0.00    +0.000 A 
ATOM     21  C   UNL     1       6.125   3.738  14.438  0.00  0.00    +0.000 A 
ENDBRANCH  15  16
ENDBRANCH  14  15
ENDBRANCH   2  14
TORSDOF 5
ENDMDL
MODEL 6
REMARK VINA RESULT:      -6.8      0.789      1.406
REMARK  Name = 
REMARK  7 active torsions:
REMARK  status: ('A' for Active; 'I' for Inactive)
REMARK    1  A    between atoms: C_1  and  C_2
REMARK    2  A    between atoms: C_2  and  C_3
REMARK    3  A    between atoms: N_6  and  N_7
REMARK    4  A    between atoms: C_8  and  C_9
REMARK    5  A    between atoms: C_8  and  C_10
REMARK    6  A    between atoms: C_10  and  O_11
REMARK    7  A    between atoms: O_11  and  C_12
REMARK                            x       y       z     vdW  Elec       q    Type
REMARK                         _______ _______ _______ _____ _____    ______ ____
ROOT
ATOM      1  N   UNL     1       6.077   4.058  18.300  0.00  0.00    +0.000 NA
ATOM      2  C   UNL     1       6.853   4.976  17.798  0.00  0.00    +0.000 C 
ATOM      3  C   UNL     1       6.955   6.398  18.301  0.00  0.00    +0.000 C 
ENDROOT
BRANCH   1   7
ATOM      4  C   UNL     1       1.507   4.480  19.433  0.00  0.00    +0.000 C 
ATOM      5  S   UNL     1       2.950   4.952  20.456  0.00  0.00    +0.000 S 
ATOM      6  C   UNL     1       4.079   4.452  19.243  0.00  0.00    +0.000 C 
ATOM      7  N   UNL     1       5.355   4.490  19.415  0.00  0.00    +0.000 NA
ATOM      8  N   UNL     1       3.452   4.061  18.112  0.00  0.00    +0.000 N 
ATOM      9  C   UNL     1       2.092   4.118  18.078  0.00  0.00    +0.000 C 
ATOM     10  O   UNL     1       1.432   3.879  17.077  0.00  0.00    +0.000 OA
ATOM     11  H   UNL     1       4.009   3.797  17.314  0.00  0.00    +0.000 HD
BRANCH   4  13
ATOM     12  C   UNL     1       0.895   1.997  19.178  0.00  0.00    +0.000 C 
ATOM     13  C   UNL     1       0.759   3.271  20.000  0.00  0.00    +0.000 C 
ENDBRANCH   4  13
ENDBRANCH   1   7
BRANCH   2  14
ATOM     14  C   UNL     1       7.695   4.611  16.577  0.00  0.00    +0.000 C 
BRANCH  14  15
ATOM     15  O   UNL     1       7.412   5.500  15.504  0.00  0.00    +0.000 OA
BRANCH  15  16
ATOM     16  C   UNL     1       7.061   4.902  14.321  0.00  0.00    +0.000 A 
ATOM     17  C   UNL     1       5.902   4.121  14.366  0.00  0.00    +0.000 A 
ATOM     18  C   UNL     1       5.451   3.451  13.228  0.00  0.00    +0.000 A 
ATOM     19  C   UNL     1       6.144   3.576  12.025  0.00  0.00    +0.000 A 
ATOM     20  C   UNL     1       7.282   4.378  11.963  0.00  0.00    +0.000 A 
ATOM     21  C   UNL     1       7.740   5.041  13.109  0.00  0.00    +0.000 A 
ENDBRANCH  15  16
ENDBRANCH  14  15
ENDBRANCH   2  14
TORSDOF 5
ENDMDL
MODEL 7
REMARK VINA RESULT:      -6.8      1.342      1.475
REMARK  Name = 
REMARK  7 active torsions:
REMARK  status: ('A' for Active; 'I' for Inactive)
REMARK    1  A    between atoms: C_1  and  C_2
REMARK    2  A    between atoms: C_2  and  C_3
REMARK    3  A    between atoms: N_6  and  N_7
REMARK    4  A    between atoms: C_8  and  C_9
REMARK    5  A    between atoms: C_8  and  C_10
REMARK    6  A    between atoms: C_10  and  O_11
REMARK    7  A    between atoms: O_11  and  C_12
REMARK                            x       y       z     vdW  Elec       q    Type
REMARK                         _______ _______ _______ _____ _____    ______ ____
ROOT
ATOM      1  N   UNL     1       3.955   6.447  17.692  0.00  0.00    +0.000 NA
ATOM      2  C   UNL     1       5.181   6.007  17.644  0.00  0.00    +0.000 C 
ATOM      3  C   UNL     1       6.009   5.610  18.845  0.00  0.00    +0.000 C 
ENDROOT
BRANCH   1   7
ATOM      4  C   UNL     1       0.937   3.801  20.189  0.00  0.00    +0.000 C 
ATOM      5  S   UNL     1       1.765   5.342  20.727  0.00  0.00    +0.000 S 
ATOM      6  C   UNL     1       2.586   5.528  19.214  0.00  0.00    +0.000 C 
ATOM      7  N   UNL     1       3.426   6.476  18.985  0.00  0.00    +0.000 NA
ATOM      8  N   UNL     1       2.205   4.587  18.323  0.00  0.00    +0.000 N 
ATOM      9  C   UNL     1       1.271   3.675  18.711  0.00  0.00    +0.000 C 
ATOM     10  O   UNL     1       0.788   2.842  17.957  0.00  0.00    +0.000 OA
ATOM     11  H   UNL     1       2.577   4.625  17.386  0.00  0.00    +0.000 HD
BRANCH   4  13
ATOM     12  C   UNL     1       2.913   2.655  21.366  0.00  0.00    +0.000 C 
ATOM     13  C   UNL     1       1.457   2.568  20.932  0.00  0.00    +0.000 C 
ENDBRANCH   4  13
ENDBRANCH   1   7
BRANCH   2  14
ATOM     14  C   UNL     1       5.858   5.928  16.278  0.00  0.00    +0.000 C 
BRANCH  14  15
ATOM     15  O   UNL     1       5.953   4.573  15.857  0.00  0.00    +0.000 OA
BRANCH  15  16
ATOM     16  C   UNL     1       6.272   4.389  14.536  0.00  0.00    +0.000 A 
ATOM     17  C   UNL     1       7.365   5.129  14.074  0.00  0.00    +0.000 A 
ATOM     18  C   UNL     1       7.777   5.036  12.744  0.00  0.00    +0.000 A 
ATOM     19  C   UNL     1       7.112   4.182  11.866  0.00  0.00    +0.000 A 
ATOM     20  C   UNL     1       6.040   3.418  12.325  0.00  0.00    +0.000 A 
ATOM     21  C   UNL     1       5.621   3.520  13.658  0.00  0.00    +0.000 A 
ENDBRANCH  15  16
ENDBRANCH  14  15
ENDBRANCH   2  14
TORSDOF 5
ENDMDL
MODEL 8
REMARK VINA RESULT:      -6.7      4.272      6.213
REMARK  Name = 
REMARK  7 active torsions:
REMARK  status: ('A' for Active; 'I' for Inactive)
REMARK    1  A    between atoms: C_1  and  C_2
REMARK    2  A    between atoms: C_2  and  C_3
REMARK    3  A    between atoms: N_6  and  N_7
REMARK    4  A    between atoms: C_8  and  C_9
REMARK    5  A    between atoms: C_8  and  C_10
REMARK    6  A    between atoms: C_10  and  O_11
REMARK    7  A    between atoms: O_11  and  C_12
REMARK                            x       y       z     vdW  Elec       q    Type
REMARK                         _______ _______ _______ _____ _____    ______ ____
ROOT
ATOM      1  N   UNL     1       6.502   7.060  16.844  0.00  0.00    +0.000 NA
ATOM      2  C   UNL     1       7.414   7.369  17.722  0.00  0.00    +0.000 C 
ATOM      3  C   UNL     1       8.050   6.398  18.692  0.00  0.00    +0.000 C 
ENDROOT
BRANCH   1   7
ATOM      4  C   UNL     1       3.099   4.354  18.699  0.00  0.00    +0.000 C 
ATOM      5  S   UNL     1       4.533   3.803  17.704  0.00  0.00    +0.000 S 
ATOM      6  C   UNL     1       5.139   5.416  17.531  0.00  0.00    +0.000 C 
ATOM      7  N   UNL     1       6.181   5.701  16.830  0.00  0.00    +0.000 NA
ATOM      8  N   UNL     1       4.407   6.300  18.242  0.00  0.00    +0.000 N 
ATOM      9  C   UNL     1       3.354   5.829  18.966  0.00  0.00    +0.000 C 
ATOM     10  O   UNL     1       2.685   6.526  19.716  0.00  0.00    +0.000 OA
ATOM     11  H   UNL     1       4.696   7.266  18.261  0.00  0.00    +0.000 HD
BRANCH   4  13
ATOM     12  C   UNL     1       0.895   3.058  18.449  0.00  0.00    +0.000 C 
ATOM     13  C   UNL     1       1.773   4.197  17.951  0.00  0.00    +0.000 C 
ENDBRANCH   4  13
ENDBRANCH   1   7
BRANCH   2  14
ATOM     14  C   UNL     1       7.846   8.829  17.820  0.00  0.00    +0.000 C 
BRANCH  14  15
ATOM     15  O   UNL     1       8.864   8.974  18.802  0.00  0.00    +0.000 OA
BRANCH  15  16
ATOM     16  C   UNL     1       9.226  10.266  19.089  0.00  0.00    +0.000 A 
ATOM     17  C   UNL     1       9.339  11.115  17.984  0.00  0.00    +0.000 A 
ATOM     18  C   UNL     1       9.715  12.449  18.147  0.00  0.00    +0.000 A 
ATOM     19  C   UNL     1       9.959  12.953  19.424  0.00  0.00    +0.000 A 
ATOM     20  C   UNL     1       9.820  12.122  20.533  0.00  0.00    +0.000 A 
ATOM     21  C   UNL     1       9.453  10.780  20.367  0.00  0.00    +0.000 A 
ENDBRANCH  15  16
ENDBRANCH  14  15
ENDBRANCH   2  14
TORSDOF 5
ENDMDL
MODEL 9
REMARK VINA RESULT:      -6.7      4.231      6.212
REMARK  Name = 
REMARK  7 active torsions:
REMARK  status: ('A' for Active; 'I' for Inactive)
REMARK    1  A    between atoms: C_1  and  C_2
REMARK    2  A    between atoms: C_2  and  C_3
REMARK    3  A    between atoms: N_6  and  N_7
REMARK    4  A    between atoms: C_8  and  C_9
REMARK    5  A    between atoms: C_8  and  C_10
REMARK    6  A    between atoms: C_10  and  O_11
REMARK    7  A    between atoms: O_11  and  C_12
REMARK                            x       y       z     vdW  Elec       q    Type
REMARK                         _______ _______ _______ _____ _____    ______ ____
ROOT
ATOM      1  N   UNL     1       6.393   6.980  16.840  0.00  0.00    +0.000 NA
ATOM      2  C   UNL     1       7.354   7.319  17.651  0.00  0.00    +0.000 C 
ATOM      3  C   UNL     1       8.057   6.381  18.606  0.00  0.00    +0.000 C 
ENDROOT
BRANCH   1   7
ATOM      4  C   UNL     1       3.009   4.321  18.794  0.00  0.00    +0.000 C 
ATOM      5  S   UNL     1       4.452   3.742  17.829  0.00  0.00    +0.000 S 
ATOM      6  C   UNL     1       5.043   5.352  17.590  0.00  0.00    +0.000 C 
ATOM      7  N   UNL     1       6.085   5.618  16.882  0.00  0.00    +0.000 NA
ATOM      8  N   UNL     1       4.299   6.258  18.260  0.00  0.00    +0.000 N 
ATOM      9  C   UNL     1       3.248   5.808  18.999  0.00  0.00    +0.000 C 
ATOM     10  O   UNL     1       2.569   6.529  19.717  0.00  0.00    +0.000 OA
ATOM     11  H   UNL     1       4.579   7.227  18.240  0.00  0.00    +0.000 HD
BRANCH   4  13
ATOM     12  C   UNL     1       0.769   3.069  18.657  0.00  0.00    +0.000 C 
ATOM     13  C   UNL     1       1.688   4.119  18.048  0.00  0.00    +0.000 C 
ENDBRANCH   4  13
ENDBRANCH   1   7
BRANCH   2  14
ATOM     14  C   UNL     1       7.777   8.786  17.684  0.00  0.00    +0.000 C 
BRANCH  14  15
ATOM     15  O   UNL     1       8.699   9.006  18.743  0.00  0.00    +0.000 OA
BRANCH  15  16
ATOM     16  C   UNL     1       9.081  10.310  18.929  0.00  0.00    +0.000 A 
ATOM     17  C   UNL     1       9.612  10.605  20.188  0.00  0.00    +0.000 A 
ATOM     18  C   UNL     1      10.024  11.901  20.501  0.00  0.00    +0.000 A 
ATOM     19  C   UNL     1       9.929  12.913  19.546  0.00  0.00    +0.000 A 
ATOM     20  C   UNL     1       9.429  12.621  18.279  0.00  0.00    +0.000 A 
ATOM     21  C   UNL     1       9.007  11.322  17.969  0.00  0.00    +0.000 A 
ENDBRANCH  15  16
ENDBRANCH  14  15
ENDBRANCH   2  14
TORSDOF 5
ENDMDL
