MODEL 1
REMARK VINA RESULT:      -6.7      0.000      0.000
REMARK  Name = 
REMARK  8 active torsions:
REMARK  status: ('A' for Active; 'I' for Inactive)
REMARK    1  A    between atoms: C_1  and  C_2
REMARK    2  A    between atoms: C_5  and  N_6
REMARK    3  A    between atoms: N_6  and  C_7
REMARK    4  A    between atoms: C_7  and  C_8
REMARK    5  A    between atoms: C_8  and  C_9
REMARK    6  A    between atoms: C_8  and  C_10
REMARK    7  A    between atoms: C_10  and  O_12
REMARK    8  A    between atoms: C_14  and  C_15
REMARK                            x       y       z     vdW  Elec       q    Type
REMARK                         _______ _______ _______ _____ _____    ______ ____
ROOT
ATOM      1  N   UNL     1       4.843   6.313  17.580  0.00  0.00    +0.000 N 
ATOM      2  H   UNL     1       4.595   7.286  17.731  0.00  0.00    +0.000 HD
ENDROOT
BRANCH   1   7
ATOM      3  C   UNL     1       0.778   2.473  18.819  0.00  0.00    +0.000 C 
ATOM      4  C   UNL     1       1.831   3.499  18.504  0.00  0.00    +0.000 A 
ATOM      5  C   UNL     1       2.614   3.345  17.356  0.00  0.00    +0.000 A 
ATOM      6  C   UNL     1       3.602   4.275  17.035  0.00  0.00    +0.000 A 
ATOM      7  C   UNL     1       3.838   5.392  17.839  0.00  0.00    +0.000 A 
ATOM      8  C   UNL     1       3.056   5.536  18.994  0.00  0.00    +0.000 A 
ATOM      9  C   UNL     1       2.056   4.608  19.338  0.00  0.00    +0.000 A 
ATOM     10  C   UNL     1       1.269   4.810  20.604  0.00  0.00    +0.000 C 
ENDBRANCH   1   7
BRANCH   1  11
ATOM     11  C   UNL     1       5.855   6.085  16.548  0.00  0.00    +0.000 C 
BRANCH  11  12
ATOM     12  C   UNL     1       7.289   6.199  17.089  0.00  0.00    +0.000 C 
ATOM     13  C   UNL     1       7.562   7.565  17.709  0.00  0.00    +0.000 C 
BRANCH  12  14
ATOM     14  C   UNL     1       7.492   5.100  18.108  0.00  0.00    +0.000 C 
ATOM     15  O   UNL     1       7.043   5.110  19.241  0.00  0.00    +0.000 OA
BRANCH  14  16
ATOM     16  O   UNL     1       8.244   4.067  17.651  0.00  0.00    +0.000 OA
ATOM     17  H   UNL     1       8.445   4.103  16.698  0.00  0.00    +0.000 HD
ENDBRANCH  14  16
ENDBRANCH  12  14
ENDBRANCH  11  12
ENDBRANCH   1  11
TORSDOF 5
ENDMDL
MODEL 2
REMARK VINA RESULT:      -6.7      0.874      1.147
REMARK  Name = 
REMARK  8 active torsions:
REMARK  status: ('A' for Active; 'I' for Inactive)
REMARK    1  A    between atoms: C_1  and  C_2
REMARK    2  A    between atoms: C_5  and  N_6
REMARK    3  A    between atoms: N_6  and  C_7
REMARK    4  A    between atoms: C_7  and  C_8
REMARK    5  A    between atoms: C_8  and  C_9
REMARK    6  A    between atoms: C_8  and  C_10
REMARK    7  A    between atoms: C_10  and  O_12
REMARK    8  A    between atoms: C_14  and  C_15
REMARK                            x       y       z     vdW  Elec       q    Type
REMARK                         _______ _______ _______ _____ _____    ______ ____
ROOT
ATOM      1  N   UNL     1       4.870   5.655  16.760  0.00  0.00    +0.000 N 
ATOM      2  H   UNL     1       5.349   5.123  16.038  0.00  0.00    +0.000 HD
ENDROOT
BRANCH   1   7
ATOM      3  C   UNL     1       0.776   2.880  19.649  0.00  0.00    +0.000 C 
ATOM      4  C   UNL     1       1.840   3.631  18.897  0.00  0.00    +0.000 A 
ATOM      5  C   UNL     1       2.387   3.066  17.740  0.00  0.00    +0.000 A 
ATOM      6  C   UNL     1       3.379   3.732  17.020  0.00  0.00    +0.000 A 
ATOM      7  C   UNL     1       3.851   4.984  17.421  0.00  0.00    +0.000 A 
ATOM      8  C   UNL     1       3.307   5.539  18.587  0.00  0.00    +0.000 A 
ATOM      9  C   UNL     1       2.309   4.884  19.331  0.00  0.00    +0.000 A 
ATOM     10  C   UNL     1       1.784   5.525  20.586  0.00  0.00    +0.000 C 
ENDBRANCH   1   7
BRANCH   1  11
ATOM     11  C   UNL     1       5.686   6.672  17.424  0.00  0.00    +0.000 C 
BRANCH  11  12
ATOM     12  C   UNL     1       7.193   6.401  17.296  0.00  0.00    +0.000 C 
ATOM     13  C   UNL     1       7.981   6.968  18.472  0.00  0.00    +0.000 C 
BRANCH  12  14
ATOM     14  C   UNL     1       7.390   4.904  17.194  0.00  0.00    +0.000 C 
ATOM     15  O   UNL     1       7.770   4.319  16.195  0.00  0.00    +0.000 OA
BRANCH  14  16
ATOM     16  O   UNL     1       7.094   4.239  18.339  0.00  0.00    +0.000 OA
ATOM     17  H   UNL     1       7.331   3.293  18.331  0.00  0.00    +0.000 HD
ENDBRANCH  14  16
ENDBRANCH  12  14
ENDBRANCH  11  12
ENDBRANCH   1  11
TORSDOF 5
ENDMDL
MODEL 3
REMARK VINA RESULT:      -6.6      0.840      1.078
REMARK  Name = 
REMARK  8 active torsions:
REMARK  status: ('A' for Active; 'I' for Inactive)
REMARK    1  A    between atoms: C_1  and  C_2
REMARK    2  A    between atoms: C_5  and  N_6
REMARK    3  A    between atoms: N_6  and  C_7
REMARK    4  A    between atoms: C_7  and  C_8
REMARK    5  A    between atoms: C_8  and  C_9
REMARK    6  A    between atoms: C_8  and  C_10
REMARK    7  A    between atoms: C_10  and  O_12
REMARK    8  A    between atoms: C_14  and  C_15
REMARK                            x       y       z     vdW  Elec       q    Type
REMARK                         _______ _______ _______ _____ _____    ______ ____
ROOT
ATOM      1  N   UNL     1       5.130   6.036  18.522  0.00  0.00    +0.000 N 
ATOM      2  H   UNL     1       5.206   6.676  19.308  0.00  0.00    +0.000 HD
ENDROOT
BRANCH   1   7
ATOM      3  C   UNL     1       0.709   2.402  18.756  0.00  0.00    +0.000 C 
ATOM      4  C   UNL     1       1.859   3.369  18.714  0.00  0.00    +0.000 A 
ATOM      5  C   UNL     1       2.460   3.663  17.486  0.00  0.00    +0.000 A 
ATOM      6  C   UNL     1       3.532   4.552  17.410  0.00  0.00    +0.000 A 
ATOM      7  C   UNL     1       4.035   5.184  18.550  0.00  0.00    +0.000 A 
ATOM      8  C   UNL     1       3.435   4.877  19.779  0.00  0.00    +0.000 A 
ATOM      9  C   UNL     1       2.355   3.980  19.879  0.00  0.00    +0.000 A 
ATOM     10  C   UNL     1       1.772   3.677  21.232  0.00  0.00    +0.000 C 
ENDBRANCH   1   7
BRANCH   1  11
ATOM     11  C   UNL     1       5.698   6.526  17.266  0.00  0.00    +0.000 C 
BRANCH  11  12
ATOM     12  C   UNL     1       7.234   6.588  17.294  0.00  0.00    +0.000 C 
ATOM     13  C   UNL     1       7.746   7.991  17.603  0.00  0.00    +0.000 C 
BRANCH  12  14
ATOM     14  C   UNL     1       7.721   5.602  18.333  0.00  0.00    +0.000 C 
ATOM     15  O   UNL     1       7.733   4.392  18.191  0.00  0.00    +0.000 OA
BRANCH  14  16
ATOM     16  O   UNL     1       8.154   6.188  19.477  0.00  0.00    +0.000 OA
ATOM     17  H   UNL     1       8.114   7.162  19.474  0.00  0.00    +0.000 HD
ENDBRANCH  14  16
ENDBRANCH  12  14
ENDBRANCH  11  12
ENDBRANCH   1  11
TORSDOF 5
ENDMDL
MODEL 4
REMARK VINA RESULT:      -6.6      1.190      2.186
REMARK  Name = 
REMARK  8 active torsions:
REMARK  status: ('A' for Active; 'I' for Inactive)
REMARK    1  A    between atoms: C_1  and  C_2
REMARK    2  A    between atoms: C_5  and  N_6
REMARK    3  A    between atoms: N_6  and  C_7
REMARK    4  A    between atoms: C_7  and  C_8
REMARK    5  A    between atoms: C_8  and  C_9
REMARK    6  A    between atoms: C_8  and  C_10
REMARK    7  A    between atoms: C_10  and  O_12
REMARK    8  A    between atoms: C_14  and  C_15
REMARK                            x       y       z     vdW  Elec       q    Type
REMARK                         _______ _______ _______ _____ _____    ______ ____
ROOT
ATOM      1  N   UNL     1       4.841   6.224  16.687  0.00  0.00    +0.000 N 
ATOM      2  H   UNL     1       5.086   5.653  15.884  0.00  0.00    +0.000 HD
ENDROOT
BRANCH   1   7
ATOM      3  C   UNL     1       0.943   3.853  20.152  0.00  0.00    +0.000 C 
ATOM      4  C   UNL     1       1.978   4.453  19.241  0.00  0.00    +0.000 A 
ATOM      5  C   UNL     1       2.346   5.792  19.412  0.00  0.00    +0.000 A 
ATOM      6  C   UNL     1       3.300   6.382  18.583  0.00  0.00    +0.000 A 
ATOM      7  C   UNL     1       3.924   5.659  17.564  0.00  0.00    +0.000 A 
ATOM      8  C   UNL     1       3.543   4.321  17.391  0.00  0.00    +0.000 A 
ATOM      9  C   UNL     1       2.582   3.707  18.213  0.00  0.00    +0.000 A 
ATOM     10  C   UNL     1       2.202   2.274  17.959  0.00  0.00    +0.000 C 
ENDBRANCH   1   7
BRANCH   1  11
ATOM     11  C   UNL     1       5.891   7.133  17.146  0.00  0.00    +0.000 C 
BRANCH  11  12
ATOM     12  C   UNL     1       7.263   6.449  17.252  0.00  0.00    +0.000 C 
ATOM     13  C   UNL     1       7.576   6.009  18.679  0.00  0.00    +0.000 C 
BRANCH  12  14
ATOM     14  C   UNL     1       7.267   5.263  16.314  0.00  0.00    +0.000 C 
ATOM     15  O   UNL     1       7.432   5.329  15.109  0.00  0.00    +0.000 OA
BRANCH  14  16
ATOM     16  O   UNL     1       7.059   4.077  16.939  0.00  0.00    +0.000 OA
ATOM     17  H   UNL     1       6.122   3.816  17.014  0.00  0.00    +0.000 HD
ENDBRANCH  14  16
ENDBRANCH  12  14
ENDBRANCH  11  12
ENDBRANCH   1  11
TORSDOF 5
ENDMDL
MODEL 5
REMARK VINA RESULT:      -6.5      1.541      1.807
REMARK  Name = 
REMARK  8 active torsions:
REMARK  status: ('A' for Active; 'I' for Inactive)
REMARK    1  A    between atoms: C_1  and  C_2
REMARK    2  A    between atoms: C_5  and  N_6
REMARK    3  A    between atoms: N_6  and  C_7
REMARK    4  A    between atoms: C_7  and  C_8
REMARK    5  A    between atoms: C_8  and  C_9
REMARK    6  A    between atoms: C_8  and  C_10
REMARK    7  A    between atoms: C_10  and  O_12
REMARK    8  A    between atoms: C_14  and  C_15
REMARK                            x       y       z     vdW  Elec       q    Type
REMARK                         _______ _______ _______ _____ _____    ______ ____
ROOT
ATOM      1  N   UNL     1       6.079   4.126  18.583  0.00  0.00    +0.000 N 
ATOM      2  H   UNL     1       6.706   3.399  18.917  0.00  0.00    +0.000 HD
ENDROOT
BRANCH   1   7
ATOM      3  C   UNL     1       0.538   2.688  18.769  0.00  0.00    +0.000 C 
ATOM      4  C   UNL     1       1.987   3.087  18.731  0.00  0.00    +0.000 A 
ATOM      5  C   UNL     1       2.788   2.654  17.670  0.00  0.00    +0.000 A 
ATOM      6  C   UNL     1       4.137   3.002  17.605  0.00  0.00    +0.000 A 
ATOM      7  C   UNL     1       4.730   3.799  18.586  0.00  0.00    +0.000 A 
ATOM      8  C   UNL     1       3.925   4.221  19.653  0.00  0.00    +0.000 A 
ATOM      9  C   UNL     1       2.563   3.879  19.740  0.00  0.00    +0.000 A 
ATOM     10  C   UNL     1       1.760   4.346  20.924  0.00  0.00    +0.000 C 
ENDBRANCH   1   7
BRANCH   1  11
ATOM     11  C   UNL     1       6.544   5.495  18.801  0.00  0.00    +0.000 C 
BRANCH  11  12
ATOM     12  C   UNL     1       6.613   6.313  17.501  0.00  0.00    +0.000 C 
ATOM     13  C   UNL     1       7.572   7.493  17.615  0.00  0.00    +0.000 C 
BRANCH  12  14
ATOM     14  C   UNL     1       7.040   5.382  16.388  0.00  0.00    +0.000 C 
ATOM     15  O   UNL     1       7.897   4.522  16.490  0.00  0.00    +0.000 OA
BRANCH  14  16
ATOM     16  O   UNL     1       6.377   5.590  15.223  0.00  0.00    +0.000 OA
ATOM     17  H   UNL     1       6.351   6.520  14.931  0.00  0.00    +0.000 HD
ENDBRANCH  14  16
ENDBRANCH  12  14
ENDBRANCH  11  12
ENDBRANCH   1  11
TORSDOF 5
ENDMDL
MODEL 6
REMARK VINA RESULT:      -6.4      2.265      5.373
REMARK  Name = 
REMARK  8 active torsions:
REMARK  status: ('A' for Active; 'I' for Inactive)
REMARK    1  A    between atoms: C_1  and  C_2
REMARK    2  A    between atoms: C_5  and  N_6
REMARK    3  A    between atoms: N_6  and  C_7
REMARK    4  A    between atoms: C_7  and  C_8
REMARK    5  A    between atoms: C_8  and  C_9
REMARK    6  A    between atoms: C_8  and  C_10
REMARK    7  A    between atoms: C_10  and  O_12
REMARK    8  A    between atoms: C_14  and  C_15
REMARK                            x       y       z     vdW  Elec       q    Type
REMARK                         _______ _______ _______ _____ _____    ______ ____
ROOT
ATOM      1  N   UNL     1       4.610   3.302  17.099  0.00  0.00    +0.000 N 
ATOM      2  H   UNL     1       4.893   2.637  16.385  0.00  0.00    +0.000 HD
ENDROOT
BRANCH   1   7
ATOM      3  C   UNL     1       7.680   8.115  17.570  0.00  0.00    +0.000 C 
ATOM      4  C   UNL     1       6.895   6.838  17.453  0.00  0.00    +0.000 A 
ATOM      5  C   UNL     1       5.909   6.729  16.467  0.00  0.00    +0.000 A 
ATOM      6  C   UNL     1       5.158   5.561  16.333  0.00  0.00    +0.000 A 
ATOM      7  C   UNL     1       5.369   4.462  17.169  0.00  0.00    +0.000 A 
ATOM      8  C   UNL     1       6.350   4.582  18.162  0.00  0.00    +0.000 A 
ATOM      9  C   UNL     1       7.117   5.751  18.317  0.00  0.00    +0.000 A 
ATOM     10  C   UNL     1       8.139   5.822  19.419  0.00  0.00    +0.000 C 
ENDBRANCH   1   7
BRANCH   1  11
ATOM     11  C   UNL     1       3.185   3.288  17.431  0.00  0.00    +0.000 C 
BRANCH  11  12
ATOM     12  C   UNL     1       2.917   2.833  18.875  0.00  0.00    +0.000 C 
ATOM     13  C   UNL     1       1.566   2.140  19.017  0.00  0.00    +0.000 C 
BRANCH  12  14
ATOM     14  C   UNL     1       4.039   1.906  19.287  0.00  0.00    +0.000 C 
ATOM     15  O   UNL     1       4.825   2.124  20.193  0.00  0.00    +0.000 OA
BRANCH  14  16
ATOM     16  O   UNL     1       4.110   0.775  18.541  0.00  0.00    +0.000 OA
ATOM     17  H   UNL     1       3.324   0.202  18.597  0.00  0.00    +0.000 HD
ENDBRANCH  14  16
ENDBRANCH  12  14
ENDBRANCH  11  12
ENDBRANCH   1  11
TORSDOF 5
ENDMDL
MODEL 7
REMARK VINA RESULT:      -6.4      1.533      1.856
REMARK  Name = 
REMARK  8 active torsions:
REMARK  status: ('A' for Active; 'I' for Inactive)
REMARK    1  A    between atoms: C_1  and  C_2
REMARK    2  A    between atoms: C_5  and  N_6
REMARK    3  A    between atoms: N_6  and  C_7
REMARK    4  A    between atoms: C_7  and  C_8
REMARK    5  A    between atoms: C_8  and  C_9
REMARK    6  A    between atoms: C_8  and  C_10
REMARK    7  A    between atoms: C_10  and  O_12
REMARK    8  A    between atoms: C_14  and  C_15
REMARK                            x       y       z     vdW  Elec       q    Type
REMARK                         _______ _______ _______ _____ _____    ______ ____
ROOT
ATOM      1  N   UNL     1       5.485   3.664  17.043  0.00  0.00    +0.000 N 
ATOM      2  H   UNL     1       6.245   3.140  17.467  0.00  0.00    +0.000 HD
ENDROOT
BRANCH   1   7
ATOM      3  C   UNL     1       0.670   3.765  20.144  0.00  0.00    +0.000 C 
ATOM      4  C   UNL     1       1.947   3.741  19.351  0.00  0.00    +0.000 A 
ATOM      5  C   UNL     1       1.970   4.308  18.072  0.00  0.00    +0.000 A 
ATOM      6  C   UNL     1       3.136   4.299  17.308  0.00  0.00    +0.000 A 
ATOM      7  C   UNL     1       4.319   3.736  17.792  0.00  0.00    +0.000 A 
ATOM      8  C   UNL     1       4.287   3.160  19.069  0.00  0.00    +0.000 A 
ATOM      9  C   UNL     1       3.121   3.154  19.857  0.00  0.00    +0.000 A 
ATOM     10  C   UNL     1       3.149   2.499  21.210  0.00  0.00    +0.000 C 
ENDBRANCH   1   7
BRANCH   1  11
ATOM     11  C   UNL     1       5.900   4.746  16.151  0.00  0.00    +0.000 C 
BRANCH  11  12
ATOM     12  C   UNL     1       6.955   5.667  16.785  0.00  0.00    +0.000 C 
ATOM     13  C   UNL     1       6.348   6.972  17.289  0.00  0.00    +0.000 C 
BRANCH  12  14
ATOM     14  C   UNL     1       7.612   4.911  17.919  0.00  0.00    +0.000 C 
ATOM     15  O   UNL     1       8.454   4.041  17.779  0.00  0.00    +0.000 OA
BRANCH  14  16
ATOM     16  O   UNL     1       7.173   5.284  19.146  0.00  0.00    +0.000 OA
ATOM     17  H   UNL     1       7.670   6.020  19.549  0.00  0.00    +0.000 HD
ENDBRANCH  14  16
ENDBRANCH  12  14
ENDBRANCH  11  12
ENDBRANCH   1  11
TORSDOF 5
ENDMDL
MODEL 8
REMARK VINA RESULT:      -6.4      1.679      1.967
REMARK  Name = 
REMARK  8 active torsions:
REMARK  status: ('A' for Active; 'I' for Inactive)
REMARK    1  A    between atoms: C_1  and  C_2
REMARK    2  A    between atoms: C_5  and  N_6
REMARK    3  A    between atoms: N_6  and  C_7
REMARK    4  A    between atoms: C_7  and  C_8
REMARK    5  A    between atoms: C_8  and  C_9
REMARK    6  A    between atoms: C_8  and  C_10
REMARK    7  A    between atoms: C_10  and  O_12
REMARK    8  A    between atoms: C_14  and  C_15
REMARK                            x       y       z     vdW  Elec       q    Type
REMARK                         _______ _______ _______ _____ _____    ______ ____
ROOT
ATOM      1  N   UNL     1       5.866   3.977  19.191  0.00  0.00    +0.000 N 
ATOM      2  H   UNL     1       6.329   3.652  20.035  0.00  0.00    +0.000 HD
ENDROOT
BRANCH   1   7
ATOM      3  C   UNL     1       0.413   2.273  18.764  0.00  0.00    +0.000 C 
ATOM      4  C   UNL     1       1.837   2.744  18.880  0.00  0.00    +0.000 A 
ATOM      5  C   UNL     1       2.832   2.104  18.134  0.00  0.00    +0.000 A 
ATOM      6  C   UNL     1       4.163   2.511  18.219  0.00  0.00    +0.000 A 
ATOM      7  C   UNL     1       4.546   3.573  19.042  0.00  0.00    +0.000 A 
ATOM      8  C   UNL     1       3.546   4.204  19.795  0.00  0.00    +0.000 A 
ATOM      9  C   UNL     1       2.198   3.807  19.726  0.00  0.00    +0.000 A 
ATOM     10  C   UNL     1       1.178   4.511  20.578  0.00  0.00    +0.000 C 
ENDBRANCH   1   7
BRANCH   1  11
ATOM     11  C   UNL     1       6.348   5.256  18.672  0.00  0.00    +0.000 C 
BRANCH  11  12
ATOM     12  C   UNL     1       6.013   5.457  17.185  0.00  0.00    +0.000 C 
ATOM     13  C   UNL     1       5.636   6.901  16.871  0.00  0.00    +0.000 C 
BRANCH  12  14
ATOM     14  C   UNL     1       7.217   5.031  16.374  0.00  0.00    +0.000 C 
ATOM     15  O   UNL     1       7.481   5.436  15.256  0.00  0.00    +0.000 OA
BRANCH  14  16
ATOM     16  O   UNL     1       8.005   4.127  17.008  0.00  0.00    +0.000 OA
ATOM     17  H   UNL     1       8.897   4.453  17.232  0.00  0.00    +0.000 HD
ENDBRANCH  14  16
ENDBRANCH  12  14
ENDBRANCH  11  12
ENDBRANCH   1  11
TORSDOF 5
ENDMDL
MODEL 9
REMARK VINA RESULT:      -6.4      1.756      2.218
REMARK  Name = 
REMARK  8 active torsions:
REMARK  status: ('A' for Active; 'I' for Inactive)
REMARK    1  A    between atoms: C_1  and  C_2
REMARK    2  A    between atoms: C_5  and  N_6
REMARK    3  A    between atoms: N_6  and  C_7
REMARK    4  A    between atoms: C_7  and  C_8
REMARK    5  A    between atoms: C_8  and  C_9
REMARK    6  A    between atoms: C_8  and  C_10
REMARK    7  A    between atoms: C_10  and  O_12
REMARK    8  A    between atoms: C_14  and  C_15
REMARK                            x       y       z     vdW  Elec       q    Type
REMARK                         _______ _______ _______ _____ _____    ______ ____
ROOT
ATOM      1  N   UNL     1       4.705   4.845  17.180  0.00  0.00    +0.000 N 
ATOM      2  H   UNL     1       4.643   5.851  17.058  0.00  0.00    +0.000 HD
ENDROOT
BRANCH   1   7
ATOM      3  C   UNL     1       1.619   2.801  21.552  0.00  0.00    +0.000 C 
ATOM      4  C   UNL     1       2.410   3.354  20.400  0.00  0.00    +0.000 A 
ATOM      5  C   UNL     1       3.234   2.497  19.663  0.00  0.00    +0.000 A 
ATOM      6  C   UNL     1       3.986   2.977  18.590  0.00  0.00    +0.000 A 
ATOM      7  C   UNL     1       3.936   4.320  18.210  0.00  0.00    +0.000 A 
ATOM      8  C   UNL     1       3.117   5.175  18.959  0.00  0.00    +0.000 A 
ATOM      9  C   UNL     1       2.352   4.714  20.047  0.00  0.00    +0.000 A 
ATOM     10  C   UNL     1       1.511   5.690  20.823  0.00  0.00    +0.000 C 
ENDBRANCH   1   7
BRANCH   1  11
ATOM     11  C   UNL     1       4.987   4.087  15.961  0.00  0.00    +0.000 C 
BRANCH  11  12
ATOM     12  C   UNL     1       6.481   4.079  15.600  0.00  0.00    +0.000 C 
ATOM     13  C   UNL     1       6.734   4.612  14.194  0.00  0.00    +0.000 C 
BRANCH  12  14
ATOM     14  C   UNL     1       7.213   4.913  16.627  0.00  0.00    +0.000 C 
ATOM     15  O   UNL     1       7.478   6.096  16.503  0.00  0.00    +0.000 OA
BRANCH  14  16
ATOM     16  O   UNL     1       7.572   4.218  17.735  0.00  0.00    +0.000 OA
ATOM     17  H   UNL     1       6.913   4.232  18.454  0.00  0.00    +0.000 HD
ENDBRANCH  14  16
ENDBRANCH  12  14
ENDBRANCH  11  12
ENDBRANCH   1  11
TORSDOF 5
ENDMDL
