MODEL 1
REMARK VINA RESULT:      -8.2      0.000      0.000
REMARK  Name = 
REMARK  5 active torsions:
REMARK  status: ('A' for Active; 'I' for Inactive)
REMARK    1  A    between atoms: C_1  and  O_2
REMARK    2  A    between atoms: O_2  and  C_3
REMARK    3  A    between atoms: C_3  and  C_5
REMARK    4  A    between atoms: C_8  and  C_9
REMARK    5  A    between atoms: C_11  and  C_12
REMARK                            x       y       z     vdW  Elec       q    Type
REMARK                         _______ _______ _______ _____ _____    ______ ____
ROOT
ATOM      1  C   UNL     1       3.182   5.543  18.329  0.00  0.00    +0.000 A 
ATOM      2  C   UNL     1       2.922   6.864  18.749  0.00  0.00    +0.000 A 
ATOM      3  C   UNL     1       2.097   7.113  19.834  0.00  0.00    +0.000 A 
ATOM      4  C   UNL     1       1.744   8.513  20.237  0.00  0.00    +0.000 C 
ATOM      5  N   UNL     1       1.575   6.122  20.576  0.00  0.00    +0.000 NA
ATOM      6  C   UNL     1       1.810   4.855  20.218  0.00  0.00    +0.000 A 
ATOM      7  C   UNL     1       1.295   3.868  21.048  0.00  0.00    +0.000 A 
ATOM      8  C   UNL     1       1.447   2.511  20.770  0.00  0.00    +0.000 A 
ATOM      9  C   UNL     1       2.073   2.128  19.597  0.00  0.00    +0.000 A 
ATOM     10  C   UNL     1       2.590   3.104  18.744  0.00  0.00    +0.000 A 
ATOM     11  C   UNL     1       2.548   4.489  19.065  0.00  0.00    +0.000 A 
ENDROOT
BRANCH   1  15
ATOM     12  C   UNL     1       6.021   5.068  15.151  0.00  0.00    +0.000 A 
ATOM     13  C   UNL     1       5.414   3.929  15.656  0.00  0.00    +0.000 A 
ATOM     14  C   UNL     1       4.498   4.071  16.703  0.00  0.00    +0.000 A 
ATOM     15  C   UNL     1       4.136   5.337  17.195  0.00  0.00    +0.000 A 
ATOM     16  C   UNL     1       4.807   6.407  16.589  0.00  0.00    +0.000 A 
ATOM     17  N   UNL     1       5.735   6.311  15.606  0.00  0.00    +0.000 NA
BRANCH  12  18
ATOM     18  C   UNL     1       7.058   4.931  14.078  0.00  0.00    +0.000 C 
ATOM     19  O   UNL     1       8.038   5.650  13.987  0.00  0.00    +0.000 OA
BRANCH  18  21
ATOM     20  C   UNL     1       7.114   4.128  11.877  0.00  0.00    +0.000 C 
ATOM     21  O   UNL     1       6.717   3.928  13.231  0.00  0.00    +0.000 OA
ENDBRANCH  18  21
ENDBRANCH  12  18
ENDBRANCH   1  15
TORSDOF 3
ENDMDL
MODEL 2
REMARK VINA RESULT:      -8.2      4.019      6.839
REMARK  Name = 
REMARK  5 active torsions:
REMARK  status: ('A' for Active; 'I' for Inactive)
REMARK    1  A    between atoms: C_1  and  O_2
REMARK    2  A    between atoms: O_2  and  C_3
REMARK    3  A    between atoms: C_3  and  C_5
REMARK    4  A    between atoms: C_8  and  C_9
REMARK    5  A    between atoms: C_11  and  C_12
REMARK                            x       y       z     vdW  Elec       q    Type
REMARK                         _______ _______ _______ _____ _____    ______ ____
ROOT
ATOM      1  C   UNL     1       2.991   6.080  18.103  0.00  0.00    +0.000 A 
ATOM      2  C   UNL     1       4.119   6.255  17.274  0.00  0.00    +0.000 A 
ATOM      3  C   UNL     1       4.756   5.165  16.706  0.00  0.00    +0.000 A 
ATOM      4  C   UNL     1       6.006   5.331  15.895  0.00  0.00    +0.000 C 
ATOM      5  N   UNL     1       4.293   3.911  16.850  0.00  0.00    +0.000 NA
ATOM      6  C   UNL     1       3.216   3.705  17.616  0.00  0.00    +0.000 A 
ATOM      7  C   UNL     1       2.744   2.401  17.688  0.00  0.00    +0.000 A 
ATOM      8  C   UNL     1       1.649   2.052  18.474  0.00  0.00    +0.000 A 
ATOM      9  C   UNL     1       1.048   3.017  19.263  0.00  0.00    +0.000 A 
ATOM     10  C   UNL     1       1.513   4.332  19.213  0.00  0.00    +0.000 A 
ATOM     11  C   UNL     1       2.554   4.734  18.331  0.00  0.00    +0.000 A 
ENDROOT
BRANCH   1  15
ATOM     12  C   UNL     1       1.132   9.576  19.748  0.00  0.00    +0.000 A 
ATOM     13  C   UNL     1       1.347   9.537  18.379  0.00  0.00    +0.000 A 
ATOM     14  C   UNL     1       1.967   8.408  17.835  0.00  0.00    +0.000 A 
ATOM     15  C   UNL     1       2.304   7.300  18.630  0.00  0.00    +0.000 A 
ATOM     16  C   UNL     1       2.019   7.457  19.993  0.00  0.00    +0.000 A 
ATOM     17  N   UNL     1       1.465   8.551  20.569  0.00  0.00    +0.000 NA
BRANCH  12  18
ATOM     18  C   UNL     1       0.535  10.806  20.361  0.00  0.00    +0.000 C 
ATOM     19  O   UNL     1       0.030  11.708  19.716  0.00  0.00    +0.000 OA
BRANCH  18  21
ATOM     20  C   UNL     1      -0.521  10.996  22.445  0.00  0.00    +0.000 C 
ATOM     21  O   UNL     1       0.678  10.766  21.710  0.00  0.00    +0.000 OA
ENDBRANCH  18  21
ENDBRANCH  12  18
ENDBRANCH   1  15
TORSDOF 3
ENDMDL
MODEL 3
REMARK VINA RESULT:      -8.1      4.213      7.003
REMARK  Name = 
REMARK  5 active torsions:
REMARK  status: ('A' for Active; 'I' for Inactive)
REMARK    1  A    between atoms: C_1  and  O_2
REMARK    2  A    between atoms: O_2  and  C_3
REMARK    3  A    between atoms: C_3  and  C_5
REMARK    4  A    between atoms: C_8  and  C_9
REMARK    5  A    between atoms: C_11  and  C_12
REMARK                            x       y       z     vdW  Elec       q    Type
REMARK                         _______ _______ _______ _____ _____    ______ ____
ROOT
ATOM      1  C   UNL     1       2.858   6.189  18.440  0.00  0.00    +0.000 A 
ATOM      2  C   UNL     1       3.928   6.440  17.555  0.00  0.00    +0.000 A 
ATOM      3  C   UNL     1       4.530   5.404  16.860  0.00  0.00    +0.000 A 
ATOM      4  C   UNL     1       5.722   5.646  15.984  0.00  0.00    +0.000 C 
ATOM      5  N   UNL     1       4.083   4.139  16.935  0.00  0.00    +0.000 NA
ATOM      6  C   UNL     1       3.061   3.862  17.753  0.00  0.00    +0.000 A 
ATOM      7  C   UNL     1       2.601   2.552  17.752  0.00  0.00    +0.000 A 
ATOM      8  C   UNL     1       1.562   2.131  18.579  0.00  0.00    +0.000 A 
ATOM      9  C   UNL     1       1.011   3.025  19.480  0.00  0.00    +0.000 A 
ATOM     10  C   UNL     1       1.466   4.344  19.504  0.00  0.00    +0.000 A 
ATOM     11  C   UNL     1       2.444   4.825  18.589  0.00  0.00    +0.000 A 
ENDROOT
BRANCH   1  15
ATOM     12  C   UNL     1       0.877   9.550  20.218  0.00  0.00    +0.000 A 
ATOM     13  C   UNL     1       1.203   8.480  21.036  0.00  0.00    +0.000 A 
ATOM     14  C   UNL     1       1.835   7.372  20.463  0.00  0.00    +0.000 A 
ATOM     15  C   UNL     1       2.204   7.357  19.108  0.00  0.00    +0.000 A 
ATOM     16  C   UNL     1       1.835   8.505  18.394  0.00  0.00    +0.000 A 
ATOM     17  N   UNL     1       1.180   9.579  18.898  0.00  0.00    +0.000 NA
BRANCH  12  18
ATOM     18  C   UNL     1       0.136  10.716  20.797  0.00  0.00    +0.000 C 
ATOM     19  O   UNL     1      -0.542  11.484  20.136  0.00  0.00    +0.000 OA
BRANCH  18  21
ATOM     20  C   UNL     1      -0.807  10.753  22.942  0.00  0.00    +0.000 C 
ATOM     21  O   UNL     1       0.365  10.793  22.131  0.00  0.00    +0.000 OA
ENDBRANCH  18  21
ENDBRANCH  12  18
ENDBRANCH   1  15
TORSDOF 3
ENDMDL
MODEL 4
REMARK VINA RESULT:      -8.0      3.478      6.885
REMARK  Name = 
REMARK  5 active torsions:
REMARK  status: ('A' for Active; 'I' for Inactive)
REMARK    1  A    between atoms: C_1  and  O_2
REMARK    2  A    between atoms: O_2  and  C_3
REMARK    3  A    between atoms: C_3  and  C_5
REMARK    4  A    between atoms: C_8  and  C_9
REMARK    5  A    between atoms: C_11  and  C_12
REMARK                            x       y       z     vdW  Elec       q    Type
REMARK                         _______ _______ _______ _____ _____    ______ ____
ROOT
ATOM      1  C   UNL     1       5.466   5.072  17.015  0.00  0.00    +0.000 A 
ATOM      2  C   UNL     1       6.166   6.021  17.788  0.00  0.00    +0.000 A 
ATOM      3  C   UNL     1       7.301   6.641  17.291  0.00  0.00    +0.000 A 
ATOM      4  C   UNL     1       8.103   7.586  18.134  0.00  0.00    +0.000 C 
ATOM      5  N   UNL     1       7.740   6.430  16.038  0.00  0.00    +0.000 NA
ATOM      6  C   UNL     1       7.093   5.548  15.268  0.00  0.00    +0.000 A 
ATOM      7  C   UNL     1       7.551   5.407  13.965  0.00  0.00    +0.000 A 
ATOM      8  C   UNL     1       6.982   4.501  13.073  0.00  0.00    +0.000 A 
ATOM      9  C   UNL     1       5.971   3.664  13.512  0.00  0.00    +0.000 A 
ATOM     10  C   UNL     1       5.502   3.783  14.821  0.00  0.00    +0.000 A 
ATOM     11  C   UNL     1       5.989   4.779  15.713  0.00  0.00    +0.000 A 
ENDROOT
BRANCH   1  15
ATOM     12  C   UNL     1       1.957   3.327  18.756  0.00  0.00    +0.000 A 
ATOM     13  C   UNL     1       1.880   4.638  18.312  0.00  0.00    +0.000 A 
ATOM     14  C   UNL     1       3.023   5.222  17.757  0.00  0.00    +0.000 A 
ATOM     15  C   UNL     1       4.209   4.489  17.579  0.00  0.00    +0.000 A 
ATOM     16  C   UNL     1       4.152   3.172  18.052  0.00  0.00    +0.000 A 
ATOM     17  N   UNL     1       3.083   2.582  18.640  0.00  0.00    +0.000 NA
BRANCH  12  18
ATOM     18  C   UNL     1       0.766   2.707  19.419  0.00  0.00    +0.000 C 
ATOM     19  O   UNL     1       0.030   1.901  18.875  0.00  0.00    +0.000 OA
BRANCH  18  21
ATOM     20  C   UNL     1       1.556   2.692  21.626  0.00  0.00    +0.000 C 
ATOM     21  O   UNL     1       0.625   3.202  20.674  0.00  0.00    +0.000 OA
ENDBRANCH  18  21
ENDBRANCH  12  18
ENDBRANCH   1  15
TORSDOF 3
ENDMDL
MODEL 5
REMARK VINA RESULT:      -8.0      0.638      1.055
REMARK  Name = 
REMARK  5 active torsions:
REMARK  status: ('A' for Active; 'I' for Inactive)
REMARK    1  A    between atoms: C_1  and  O_2
REMARK    2  A    between atoms: O_2  and  C_3
REMARK    3  A    between atoms: C_3  and  C_5
REMARK    4  A    between atoms: C_8  and  C_9
REMARK    5  A    between atoms: C_11  and  C_12
REMARK                            x       y       z     vdW  Elec       q    Type
REMARK                         _______ _______ _______ _____ _____    ______ ____
ROOT
ATOM      1  C   UNL     1       3.175   5.542  18.476  0.00  0.00    +0.000 A 
ATOM      2  C   UNL     1       2.890   6.834  18.966  0.00  0.00    +0.000 A 
ATOM      3  C   UNL     1       2.020   7.012  20.029  0.00  0.00    +0.000 A 
ATOM      4  C   UNL     1       1.642   8.383  20.503  0.00  0.00    +0.000 C 
ATOM      5  N   UNL     1       1.473   5.974  20.686  0.00  0.00    +0.000 NA
ATOM      6  C   UNL     1       1.731   4.733  20.261  0.00  0.00    +0.000 A 
ATOM      7  C   UNL     1       1.188   3.694  21.006  0.00  0.00    +0.000 A 
ATOM      8  C   UNL     1       1.359   2.358  20.651  0.00  0.00    +0.000 A 
ATOM      9  C   UNL     1       2.034   2.051  19.483  0.00  0.00    +0.000 A 
ATOM     10  C   UNL     1       2.580   3.080  18.714  0.00  0.00    +0.000 A 
ATOM     11  C   UNL     1       2.517   4.442  19.118  0.00  0.00    +0.000 A 
ENDROOT
BRANCH   1  15
ATOM     12  C   UNL     1       5.961   5.021  15.259  0.00  0.00    +0.000 A 
ATOM     13  C   UNL     1       5.507   6.303  15.524  0.00  0.00    +0.000 A 
ATOM     14  C   UNL     1       4.586   6.482  16.561  0.00  0.00    +0.000 A 
ATOM     15  C   UNL     1       4.175   5.410  17.371  0.00  0.00    +0.000 A 
ATOM     16  C   UNL     1       4.719   4.170  17.011  0.00  0.00    +0.000 A 
ATOM     17  N   UNL     1       5.576   3.945  15.985  0.00  0.00    +0.000 NA
BRANCH  12  18
ATOM     18  C   UNL     1       6.892   4.797  14.106  0.00  0.00    +0.000 C 
ATOM     19  O   UNL     1       7.856   5.504  13.866  0.00  0.00    +0.000 OA
BRANCH  18  21
ATOM     20  C   UNL     1       6.861   3.761  12.005  0.00  0.00    +0.000 C 
ATOM     21  O   UNL     1       6.478   3.732  13.377  0.00  0.00    +0.000 OA
ENDBRANCH  18  21
ENDBRANCH  12  18
ENDBRANCH   1  15
TORSDOF 3
ENDMDL
MODEL 6
REMARK VINA RESULT:      -8.0      4.212      7.288
REMARK  Name = 
REMARK  5 active torsions:
REMARK  status: ('A' for Active; 'I' for Inactive)
REMARK    1  A    between atoms: C_1  and  O_2
REMARK    2  A    between atoms: O_2  and  C_3
REMARK    3  A    between atoms: C_3  and  C_5
REMARK    4  A    between atoms: C_8  and  C_9
REMARK    5  A    between atoms: C_11  and  C_12
REMARK                            x       y       z     vdW  Elec       q    Type
REMARK                         _______ _______ _______ _____ _____    ______ ____
ROOT
ATOM      1  C   UNL     1       3.135   5.939  18.092  0.00  0.00    +0.000 A 
ATOM      2  C   UNL     1       2.447   4.708  18.118  0.00  0.00    +0.000 A 
ATOM      3  C   UNL     1       3.077   3.537  17.732  0.00  0.00    +0.000 A 
ATOM      4  C   UNL     1       2.332   2.237  17.674  0.00  0.00    +0.000 C 
ATOM      5  N   UNL     1       4.377   3.503  17.393  0.00  0.00    +0.000 NA
ATOM      6  C   UNL     1       5.068   4.648  17.369  0.00  0.00    +0.000 A 
ATOM      7  C   UNL     1       6.420   4.552  17.066  0.00  0.00    +0.000 A 
ATOM      8  C   UNL     1       7.242   5.674  16.982  0.00  0.00    +0.000 A 
ATOM      9  C   UNL     1       6.687   6.931  17.139  0.00  0.00    +0.000 A 
ATOM     10  C   UNL     1       5.328   7.050  17.434  0.00  0.00    +0.000 A 
ATOM     11  C   UNL     1       4.495   5.915  17.639  0.00  0.00    +0.000 A 
ENDROOT
BRANCH   1  15
ATOM     12  C   UNL     1       1.197   9.434  19.647  0.00  0.00    +0.000 A 
ATOM     13  C   UNL     1       1.459   9.387  18.286  0.00  0.00    +0.000 A 
ATOM     14  C   UNL     1       2.105   8.258  17.772  0.00  0.00    +0.000 A 
ATOM     15  C   UNL     1       2.423   7.159  18.586  0.00  0.00    +0.000 A 
ATOM     16  C   UNL     1       2.091   7.323  19.937  0.00  0.00    +0.000 A 
ATOM     17  N   UNL     1       1.509   8.417  20.486  0.00  0.00    +0.000 NA
BRANCH  12  18
ATOM     18  C   UNL     1       0.571  10.663  20.230  0.00  0.00    +0.000 C 
ATOM     19  O   UNL     1       0.003  11.515  19.568  0.00  0.00    +0.000 OA
BRANCH  18  21
ATOM     20  C   UNL     1      -0.418  10.866  22.345  0.00  0.00    +0.000 C 
ATOM     21  O   UNL     1       0.766  10.689  21.572  0.00  0.00    +0.000 OA
ENDBRANCH  18  21
ENDBRANCH  12  18
ENDBRANCH   1  15
TORSDOF 3
ENDMDL
MODEL 7
REMARK VINA RESULT:      -7.9      4.159      6.373
REMARK  Name = 
REMARK  5 active torsions:
REMARK  status: ('A' for Active; 'I' for Inactive)
REMARK    1  A    between atoms: C_1  and  O_2
REMARK    2  A    between atoms: O_2  and  C_3
REMARK    3  A    between atoms: C_3  and  C_5
REMARK    4  A    between atoms: C_8  and  C_9
REMARK    5  A    between atoms: C_11  and  C_12
REMARK                            x       y       z     vdW  Elec       q    Type
REMARK                         _______ _______ _______ _____ _____    ______ ____
ROOT
ATOM      1  C   UNL     1       3.218   6.031  19.037  0.00  0.00    +0.000 A 
ATOM      2  C   UNL     1       4.529   6.020  18.516  0.00  0.00    +0.000 A 
ATOM      3  C   UNL     1       5.267   4.847  18.480  0.00  0.00    +0.000 A 
ATOM      4  C   UNL     1       6.690   4.839  18.009  0.00  0.00    +0.000 C 
ATOM      5  N   UNL     1       4.750   3.667  18.862  0.00  0.00    +0.000 NA
ATOM      6  C   UNL     1       3.505   3.634  19.348  0.00  0.00    +0.000 A 
ATOM      7  C   UNL     1       2.998   2.384  19.676  0.00  0.00    +0.000 A 
ATOM      8  C   UNL     1       1.725   2.218  20.218  0.00  0.00    +0.000 A 
ATOM      9  C   UNL     1       0.962   3.337  20.503  0.00  0.00    +0.000 A 
ATOM     10  C   UNL     1       1.456   4.604  20.190  0.00  0.00    +0.000 A 
ATOM     11  C   UNL     1       2.703   4.788  19.530  0.00  0.00    +0.000 A 
ENDROOT
BRANCH   1  15
ATOM     12  C   UNL     1       1.084   9.750  19.034  0.00  0.00    +0.000 A 
ATOM     13  C   UNL     1       1.618   9.306  17.834  0.00  0.00    +0.000 A 
ATOM     14  C   UNL     1       2.329   8.102  17.828  0.00  0.00    +0.000 A 
ATOM     15  C   UNL     1       2.448   7.313  18.984  0.00  0.00    +0.000 A 
ATOM     16  C   UNL     1       1.850   7.863  20.125  0.00  0.00    +0.000 A 
ATOM     17  N   UNL     1       1.194   9.048  20.187  0.00  0.00    +0.000 NA
BRANCH  12  18
ATOM     18  C   UNL     1       0.381  11.072  19.078  0.00  0.00    +0.000 C 
ATOM     19  O   UNL     1       0.921  12.136  18.830  0.00  0.00    +0.000 OA
BRANCH  18  21
ATOM     20  C   UNL     1      -1.820  10.636  18.400  0.00  0.00    +0.000 C 
ATOM     21  O   UNL     1      -0.908  10.898  19.463  0.00  0.00    +0.000 OA
ENDBRANCH  18  21
ENDBRANCH  12  18
ENDBRANCH   1  15
TORSDOF 3
ENDMDL
MODEL 8
REMARK VINA RESULT:      -7.9      4.186      6.410
REMARK  Name = 
REMARK  5 active torsions:
REMARK  status: ('A' for Active; 'I' for Inactive)
REMARK    1  A    between atoms: C_1  and  O_2
REMARK    2  A    between atoms: O_2  and  C_3
REMARK    3  A    between atoms: C_3  and  C_5
REMARK    4  A    between atoms: C_8  and  C_9
REMARK    5  A    between atoms: C_11  and  C_12
REMARK                            x       y       z     vdW  Elec       q    Type
REMARK                         _______ _______ _______ _____ _____    ______ ____
ROOT
ATOM      1  C   UNL     1       3.219   5.908  18.800  0.00  0.00    +0.000 A 
ATOM      2  C   UNL     1       4.562   5.960  18.373  0.00  0.00    +0.000 A 
ATOM      3  C   UNL     1       5.301   4.799  18.219  0.00  0.00    +0.000 A 
ATOM      4  C   UNL     1       6.754   4.845  17.850  0.00  0.00    +0.000 C 
ATOM      5  N   UNL     1       4.761   3.580  18.392  0.00  0.00    +0.000 NA
ATOM      6  C   UNL     1       3.485   3.489  18.783  0.00  0.00    +0.000 A 
ATOM      7  C   UNL     1       2.958   2.209  18.893  0.00  0.00    +0.000 A 
ATOM      8  C   UNL     1       1.652   1.979  19.318  0.00  0.00    +0.000 A 
ATOM      9  C   UNL     1       0.870   3.052  19.708  0.00  0.00    +0.000 A 
ATOM     10  C   UNL     1       1.383   4.346  19.614  0.00  0.00    +0.000 A 
ATOM     11  C   UNL     1       2.672   4.612  19.074  0.00  0.00    +0.000 A 
ENDROOT
BRANCH   1  15
ATOM     12  C   UNL     1       1.105   9.620  19.176  0.00  0.00    +0.000 A 
ATOM     13  C   UNL     1       1.569   9.260  17.920  0.00  0.00    +0.000 A 
ATOM     14  C   UNL     1       2.273   8.059  17.790  0.00  0.00    +0.000 A 
ATOM     15  C   UNL     1       2.453   7.191  18.880  0.00  0.00    +0.000 A 
ATOM     16  C   UNL     1       1.922   7.661  20.088  0.00  0.00    +0.000 A 
ATOM     17  N   UNL     1       1.276   8.839  20.269  0.00  0.00    +0.000 NA
BRANCH  12  18
ATOM     18  C   UNL     1       0.411  10.936  19.351  0.00  0.00    +0.000 C 
ATOM     19  O   UNL     1      -0.618  11.243  18.774  0.00  0.00    +0.000 OA
BRANCH  18  21
ATOM     20  C   UNL     1       1.881  12.747  19.581  0.00  0.00    +0.000 C 
ATOM     21  O   UNL     1       1.116  11.720  20.205  0.00  0.00    +0.000 OA
ENDBRANCH  18  21
ENDBRANCH  12  18
ENDBRANCH   1  15
TORSDOF 3
ENDMDL
MODEL 9
REMARK VINA RESULT:      -7.9      4.113      6.715
REMARK  Name = 
REMARK  5 active torsions:
REMARK  status: ('A' for Active; 'I' for Inactive)
REMARK    1  A    between atoms: C_1  and  O_2
REMARK    2  A    between atoms: O_2  and  C_3
REMARK    3  A    between atoms: C_3  and  C_5
REMARK    4  A    between atoms: C_8  and  C_9
REMARK    5  A    between atoms: C_11  and  C_12
REMARK                            x       y       z     vdW  Elec       q    Type
REMARK                         _______ _______ _______ _____ _____    ______ ____
ROOT
ATOM      1  C   UNL     1       3.020   6.241  18.135  0.00  0.00    +0.000 A 
ATOM      2  C   UNL     1       4.136   6.428  17.292  0.00  0.00    +0.000 A 
ATOM      3  C   UNL     1       4.765   5.345  16.700  0.00  0.00    +0.000 A 
ATOM      4  C   UNL     1       6.003   5.522  15.873  0.00  0.00    +0.000 C 
ATOM      5  N   UNL     1       4.305   4.089  16.835  0.00  0.00    +0.000 NA
ATOM      6  C   UNL     1       3.240   3.873  17.615  0.00  0.00    +0.000 A 
ATOM      7  C   UNL     1       2.770   2.568  17.678  0.00  0.00    +0.000 A 
ATOM      8  C   UNL     1       1.686   2.207  18.476  0.00  0.00    +0.000 A 
ATOM      9  C   UNL     1       1.097   3.162  19.285  0.00  0.00    +0.000 A 
ATOM     10  C   UNL     1       1.560   4.478  19.245  0.00  0.00    +0.000 A 
ATOM     11  C   UNL     1       2.588   4.892  18.352  0.00  0.00    +0.000 A 
ENDROOT
BRANCH   1  15
ATOM     12  C   UNL     1       0.970   9.717  19.583  0.00  0.00    +0.000 A 
ATOM     13  C   UNL     1       1.301   8.729  20.498  0.00  0.00    +0.000 A 
ATOM     14  C   UNL     1       1.956   7.584  20.033  0.00  0.00    +0.000 A 
ATOM     15  C   UNL     1       2.341   7.454  18.688  0.00  0.00    +0.000 A 
ATOM     16  C   UNL     1       1.964   8.527  17.871  0.00  0.00    +0.000 A 
ATOM     17  N   UNL     1       1.288   9.632  18.269  0.00  0.00    +0.000 NA
BRANCH  12  18
ATOM     18  C   UNL     1       0.205  10.919  20.048  0.00  0.00    +0.000 C 
ATOM     19  O   UNL     1       0.014  11.190  21.221  0.00  0.00    +0.000 OA
BRANCH  18  21
ATOM     20  C   UNL     1      -1.671  11.785  18.941  0.00  0.00    +0.000 C 
ATOM     21  O   UNL     1      -0.256  11.614  18.979  0.00  0.00    +0.000 OA
ENDBRANCH  18  21
ENDBRANCH  12  18
ENDBRANCH   1  15
TORSDOF 3
ENDMDL
