MODEL 1
REMARK VINA RESULT:      -7.8      0.000      0.000
REMARK  Name = 
REMARK  6 active torsions:
REMARK  status: ('A' for Active; 'I' for Inactive)
REMARK    1  A    between atoms: C_1  and  N_2
REMARK    2  A    between atoms: N_2  and  C_3
REMARK    3  A    between atoms: N_2  and  C_12
REMARK    4  A    between atoms: C_3  and  C_4
REMARK    5  A    between atoms: C_5  and  C_6
REMARK    6  A    between atoms: C_12  and  C_13
REMARK                            x       y       z     vdW  Elec       q    Type
REMARK                         _______ _______ _______ _____ _____    ______ ____
ROOT
ATOM      1  C   UNL     1       7.504   4.579  17.514  0.00  0.00    +0.000 C 
ATOM      2  N   UNL     1       6.284   4.603  16.694  0.00  0.00    +0.000 NA
ENDROOT
BRANCH   2   3
ATOM      3  C   UNL     1       6.520   4.016  15.358  0.00  0.00    +0.000 C 
BRANCH   3   4
ATOM      4  C   UNL     1       7.012   5.013  14.342  0.00  0.00    +0.000 C 
ATOM      5  C   UNL     1       7.098   4.828  13.013  0.00  0.00    +0.000 C 
BRANCH   5   6
ATOM      6  C   UNL     1       6.629   3.642  12.299  0.00  0.00    +0.000 A 
ATOM      7  C   UNL     1       5.253   3.463  12.109  0.00  0.00    +0.000 A 
ATOM      8  C   UNL     1       4.779   2.355  11.407  0.00  0.00    +0.000 A 
ATOM      9  C   UNL     1       5.676   1.424  10.887  0.00  0.00    +0.000 A 
ATOM     10  C   UNL     1       7.049   1.598  11.073  0.00  0.00    +0.000 A 
ATOM     11  C   UNL     1       7.525   2.703  11.780  0.00  0.00    +0.000 A 
ENDBRANCH   5   6
ENDBRANCH   3   4
ENDBRANCH   2   3
BRANCH   2  12
ATOM     12  C   UNL     1       5.184   3.861  17.368  0.00  0.00    +0.000 C 
BRANCH  12  13
ATOM     13  C   UNL     1       4.070   4.772  17.873  0.00  0.00    +0.000 A 
ATOM     14  C   UNL     1       4.144   6.135  17.514  0.00  0.00    +0.000 A 
ATOM     15  C   UNL     1       3.284   7.070  18.074  0.00  0.00    +0.000 A 
ATOM     16  C   UNL     1       2.366   6.670  19.039  0.00  0.00    +0.000 A 
ATOM     17  C   UNL     1       2.255   5.323  19.413  0.00  0.00    +0.000 A 
ATOM     18  C   UNL     1       1.356   4.955  20.428  0.00  0.00    +0.000 A 
ATOM     19  C   UNL     1       1.188   3.620  20.790  0.00  0.00    +0.000 A 
ATOM     20  C   UNL     1       1.887   2.634  20.111  0.00  0.00    +0.000 A 
ATOM     21  C   UNL     1       2.811   2.988  19.125  0.00  0.00    +0.000 A 
ATOM     22  C   UNL     1       3.060   4.339  18.782  0.00  0.00    +0.000 A 
ENDBRANCH  12  13
ENDBRANCH   2  12
TORSDOF 5
ENDMDL
MODEL 2
REMARK VINA RESULT:      -7.5      2.277      6.823
REMARK  Name = 
REMARK  6 active torsions:
REMARK  status: ('A' for Active; 'I' for Inactive)
REMARK    1  A    between atoms: C_1  and  N_2
REMARK    2  A    between atoms: N_2  and  C_3
REMARK    3  A    between atoms: N_2  and  C_12
REMARK    4  A    between atoms: C_3  and  C_4
REMARK    5  A    between atoms: C_5  and  C_6
REMARK    6  A    between atoms: C_12  and  C_13
REMARK                            x       y       z     vdW  Elec       q    Type
REMARK                         _______ _______ _______ _____ _____    ______ ____
ROOT
ATOM      1  C   UNL     1       2.698   8.175  17.993  0.00  0.00    +0.000 C 
ATOM      2  N   UNL     1       2.900   6.940  18.764  0.00  0.00    +0.000 NA
ENDROOT
BRANCH   2   3
ATOM      3  C   UNL     1       1.706   6.606  19.571  0.00  0.00    +0.000 C 
BRANCH   3   4
ATOM      4  C   UNL     1       2.036   6.024  20.920  0.00  0.00    +0.000 C 
ATOM      5  C   UNL     1       2.185   4.721  21.216  0.00  0.00    +0.000 C 
BRANCH   5   6
ATOM      6  C   UNL     1       2.148   3.630  20.245  0.00  0.00    +0.000 A 
ATOM      7  C   UNL     1       0.926   3.286  19.655  0.00  0.00    +0.000 A 
ATOM      8  C   UNL     1       0.867   2.268  18.704  0.00  0.00    +0.000 A 
ATOM      9  C   UNL     1       2.028   1.592  18.334  0.00  0.00    +0.000 A 
ATOM     10  C   UNL     1       3.250   1.931  18.919  0.00  0.00    +0.000 A 
ATOM     11  C   UNL     1       3.310   2.947  19.875  0.00  0.00    +0.000 A 
ENDBRANCH   5   6
ENDBRANCH   3   4
ENDBRANCH   2   3
BRANCH   2  12
ATOM     12  C   UNL     1       3.214   5.801  17.859  0.00  0.00    +0.000 C 
BRANCH  12  13
ATOM     13  C   UNL     1       4.691   5.422  17.866  0.00  0.00    +0.000 A 
ATOM     14  C   UNL     1       5.401   5.630  19.067  0.00  0.00    +0.000 A 
ATOM     15  C   UNL     1       6.781   5.489  19.115  0.00  0.00    +0.000 A 
ATOM     16  C   UNL     1       7.484   5.185  17.955  0.00  0.00    +0.000 A 
ATOM     17  C   UNL     1       6.812   4.959  16.744  0.00  0.00    +0.000 A 
ATOM     18  C   UNL     1       7.550   4.706  15.576  0.00  0.00    +0.000 A 
ATOM     19  C   UNL     1       6.912   4.431  14.369  0.00  0.00    +0.000 A 
ATOM     20  C   UNL     1       5.528   4.365  14.326  0.00  0.00    +0.000 A 
ATOM     21  C   UNL     1       4.780   4.651  15.471  0.00  0.00    +0.000 A 
ATOM     22  C   UNL     1       5.394   5.004  16.697  0.00  0.00    +0.000 A 
ENDBRANCH  12  13
ENDBRANCH   2  12
TORSDOF 5
ENDMDL
MODEL 3
REMARK VINA RESULT:      -7.5      2.783      7.027
REMARK  Name = 
REMARK  6 active torsions:
REMARK  status: ('A' for Active; 'I' for Inactive)
REMARK    1  A    between atoms: C_1  and  N_2
REMARK    2  A    between atoms: N_2  and  C_3
REMARK    3  A    between atoms: N_2  and  C_12
REMARK    4  A    between atoms: C_3  and  C_4
REMARK    5  A    between atoms: C_5  and  C_6
REMARK    6  A    between atoms: C_12  and  C_13
REMARK                            x       y       z     vdW  Elec       q    Type
REMARK                         _______ _______ _______ _____ _____    ______ ____
ROOT
ATOM      1  C   UNL     1       2.058   1.728  18.205  0.00  0.00    +0.000 C 
ATOM      2  N   UNL     1       2.656   2.926  17.598  0.00  0.00    +0.000 NA
ENDROOT
BRANCH   2   3
ATOM      3  C   UNL     1       2.031   4.162  18.116  0.00  0.00    +0.000 C 
BRANCH   3   4
ATOM      4  C   UNL     1       2.348   4.436  19.562  0.00  0.00    +0.000 C 
ATOM      5  C   UNL     1       2.533   5.641  20.128  0.00  0.00    +0.000 C 
BRANCH   5   6
ATOM      6  C   UNL     1       2.359   6.923  19.449  0.00  0.00    +0.000 A 
ATOM      7  C   UNL     1       2.961   7.117  18.200  0.00  0.00    +0.000 A 
ATOM      8  C   UNL     1       2.789   8.319  17.516  0.00  0.00    +0.000 A 
ATOM      9  C   UNL     1       2.011   9.333  18.073  0.00  0.00    +0.000 A 
ATOM     10  C   UNL     1       1.408   9.144  19.319  0.00  0.00    +0.000 A 
ATOM     11  C   UNL     1       1.584   7.943  20.008  0.00  0.00    +0.000 A 
ENDBRANCH   5   6
ENDBRANCH   3   4
ENDBRANCH   2   3
BRANCH   2  12
ATOM     12  C   UNL     1       4.121   2.971  17.858  0.00  0.00    +0.000 C 
BRANCH  12  13
ATOM     13  C   UNL     1       4.827   4.092  17.105  0.00  0.00    +0.000 A 
ATOM     14  C   UNL     1       4.586   4.186  15.718  0.00  0.00    +0.000 A 
ATOM     15  C   UNL     1       5.320   5.053  14.921  0.00  0.00    +0.000 A 
ATOM     16  C   UNL     1       6.343   5.807  15.484  0.00  0.00    +0.000 A 
ATOM     17  C   UNL     1       6.606   5.750  16.861  0.00  0.00    +0.000 A 
ATOM     18  C   UNL     1       7.679   6.482  17.395  0.00  0.00    +0.000 A 
ATOM     19  C   UNL     1       7.937   6.484  18.763  0.00  0.00    +0.000 A 
ATOM     20  C   UNL     1       7.099   5.787  19.619  0.00  0.00    +0.000 A 
ATOM     21  C   UNL     1       6.050   5.024  19.098  0.00  0.00    +0.000 A 
ATOM     22  C   UNL     1       5.803   4.942  17.707  0.00  0.00    +0.000 A 
ENDBRANCH  12  13
ENDBRANCH   2  12
TORSDOF 5
ENDMDL
MODEL 4
REMARK VINA RESULT:      -7.5      3.587      5.609
REMARK  Name = 
REMARK  6 active torsions:
REMARK  status: ('A' for Active; 'I' for Inactive)
REMARK    1  A    between atoms: C_1  and  N_2
REMARK    2  A    between atoms: N_2  and  C_3
REMARK    3  A    between atoms: N_2  and  C_12
REMARK    4  A    between atoms: C_3  and  C_4
REMARK    5  A    between atoms: C_5  and  C_6
REMARK    6  A    between atoms: C_12  and  C_13
REMARK                            x       y       z     vdW  Elec       q    Type
REMARK                         _______ _______ _______ _____ _____    ______ ____
ROOT
ATOM      1  C   UNL     1       1.060   4.456  20.442  0.00  0.00    +0.000 C 
ATOM      2  N   UNL     1       2.299   4.699  19.689  0.00  0.00    +0.000 NA
ENDROOT
BRANCH   2   3
ATOM      3  C   UNL     1       2.045   4.748  18.233  0.00  0.00    +0.000 C 
BRANCH   3   4
ATOM      4  C   UNL     1       2.675   3.609  17.475  0.00  0.00    +0.000 C 
ATOM      5  C   UNL     1       3.938   3.551  17.019  0.00  0.00    +0.000 C 
BRANCH   5   6
ATOM      6  C   UNL     1       4.968   4.558  17.268  0.00  0.00    +0.000 A 
ATOM      7  C   UNL     1       5.088   5.638  16.387  0.00  0.00    +0.000 A 
ATOM      8  C   UNL     1       6.043   6.629  16.616  0.00  0.00    +0.000 A 
ATOM      9  C   UNL     1       6.877   6.548  17.729  0.00  0.00    +0.000 A 
ATOM     10  C   UNL     1       6.761   5.472  18.612  0.00  0.00    +0.000 A 
ATOM     11  C   UNL     1       5.810   4.477  18.381  0.00  0.00    +0.000 A 
ENDBRANCH   5   6
ENDBRANCH   3   4
ENDBRANCH   2   3
BRANCH   2  12
ATOM     12  C   UNL     1       2.932   5.976  20.119  0.00  0.00    +0.000 C 
BRANCH  12  13
ATOM     13  C   UNL     1       2.313   7.202  19.459  0.00  0.00    +0.000 A 
ATOM     14  C   UNL     1       2.718   7.494  18.139  0.00  0.00    +0.000 A 
ATOM     15  C   UNL     1       2.351   8.684  17.525  0.00  0.00    +0.000 A 
ATOM     16  C   UNL     1       1.615   9.627  18.233  0.00  0.00    +0.000 A 
ATOM     17  C   UNL     1       1.184   9.369  19.543  0.00  0.00    +0.000 A 
ATOM     18  C   UNL     1       0.488  10.359  20.254  0.00  0.00    +0.000 A 
ATOM     19  C   UNL     1       0.006  10.117  21.538  0.00  0.00    +0.000 A 
ATOM     20  C   UNL     1       0.179   8.866  22.109  0.00  0.00    +0.000 A 
ATOM     21  C   UNL     1       0.901   7.883  21.429  0.00  0.00    +0.000 A 
ATOM     22  C   UNL     1       1.467   8.118  20.153  0.00  0.00    +0.000 A 
ENDBRANCH  12  13
ENDBRANCH   2  12
TORSDOF 5
ENDMDL
MODEL 5
REMARK VINA RESULT:      -7.5      3.574      5.619
REMARK  Name = 
REMARK  6 active torsions:
REMARK  status: ('A' for Active; 'I' for Inactive)
REMARK    1  A    between atoms: C_1  and  N_2
REMARK    2  A    between atoms: N_2  and  C_3
REMARK    3  A    between atoms: N_2  and  C_12
REMARK    4  A    between atoms: C_3  and  C_4
REMARK    5  A    between atoms: C_5  and  C_6
REMARK    6  A    between atoms: C_12  and  C_13
REMARK                            x       y       z     vdW  Elec       q    Type
REMARK                         _______ _______ _______ _____ _____    ______ ____
ROOT
ATOM      1  C   UNL     1       1.160   4.419  20.435  0.00  0.00    +0.000 C 
ATOM      2  N   UNL     1       2.363   4.705  19.641  0.00  0.00    +0.000 NA
ENDROOT
BRANCH   2   3
ATOM      3  C   UNL     1       2.053   4.776  18.196  0.00  0.00    +0.000 C 
BRANCH   3   4
ATOM      4  C   UNL     1       2.694   3.678  17.389  0.00  0.00    +0.000 C 
ATOM      5  C   UNL     1       3.959   3.650  16.936  0.00  0.00    +0.000 C 
BRANCH   5   6
ATOM      6  C   UNL     1       4.980   4.652  17.235  0.00  0.00    +0.000 A 
ATOM      7  C   UNL     1       5.769   4.498  18.380  0.00  0.00    +0.000 A 
ATOM      8  C   UNL     1       6.769   5.424  18.675  0.00  0.00    +0.000 A 
ATOM      9  C   UNL     1       6.990   6.505  17.824  0.00  0.00    +0.000 A 
ATOM     10  C   UNL     1       6.205   6.664  16.679  0.00  0.00    +0.000 A 
ATOM     11  C   UNL     1       5.200   5.741  16.386  0.00  0.00    +0.000 A 
ENDBRANCH   5   6
ENDBRANCH   3   4
ENDBRANCH   2   3
BRANCH   2  12
ATOM     12  C   UNL     1       2.985   5.987  20.072  0.00  0.00    +0.000 C 
BRANCH  12  13
ATOM     13  C   UNL     1       2.345   7.209  19.423  0.00  0.00    +0.000 A 
ATOM     14  C   UNL     1       2.746   7.521  18.107  0.00  0.00    +0.000 A 
ATOM     15  C   UNL     1       2.360   8.711  17.504  0.00  0.00    +0.000 A 
ATOM     16  C   UNL     1       1.607   9.634  18.222  0.00  0.00    +0.000 A 
ATOM     17  C   UNL     1       1.180   9.355  19.528  0.00  0.00    +0.000 A 
ATOM     18  C   UNL     1       0.466  10.326  20.249  0.00  0.00    +0.000 A 
ATOM     19  C   UNL     1      -0.013  10.063  21.530  0.00  0.00    +0.000 A 
ATOM     20  C   UNL     1       0.181   8.810  22.089  0.00  0.00    +0.000 A 
ATOM     21  C   UNL     1       0.921   7.846  21.399  0.00  0.00    +0.000 A 
ATOM     22  C   UNL     1       1.483   8.104  20.126  0.00  0.00    +0.000 A 
ENDBRANCH  12  13
ENDBRANCH   2  12
TORSDOF 5
ENDMDL
MODEL 6
REMARK VINA RESULT:      -7.4      2.912      7.051
REMARK  Name = 
REMARK  6 active torsions:
REMARK  status: ('A' for Active; 'I' for Inactive)
REMARK    1  A    between atoms: C_1  and  N_2
REMARK    2  A    between atoms: N_2  and  C_3
REMARK    3  A    between atoms: N_2  and  C_12
REMARK    4  A    between atoms: C_3  and  C_4
REMARK    5  A    between atoms: C_5  and  C_6
REMARK    6  A    between atoms: C_12  and  C_13
REMARK                            x       y       z     vdW  Elec       q    Type
REMARK                         _______ _______ _______ _____ _____    ______ ____
ROOT
ATOM      1  C   UNL     1       2.207   1.764  19.517  0.00  0.00    +0.000 C 
ATOM      2  N   UNL     1       2.664   2.809  18.590  0.00  0.00    +0.000 NA
ENDROOT
BRANCH   2   3
ATOM      3  C   UNL     1       1.952   4.085  18.821  0.00  0.00    +0.000 C 
BRANCH   3   4
ATOM      4  C   UNL     1       2.136   4.633  20.212  0.00  0.00    +0.000 C 
ATOM      5  C   UNL     1       2.303   5.923  20.549  0.00  0.00    +0.000 C 
BRANCH   5   6
ATOM      6  C   UNL     1       2.236   7.049  19.620  0.00  0.00    +0.000 A 
ATOM      7  C   UNL     1       1.476   8.172  19.967  0.00  0.00    +0.000 A 
ATOM      8  C   UNL     1       1.418   9.272  19.113  0.00  0.00    +0.000 A 
ATOM      9  C   UNL     1       2.122   9.259  17.910  0.00  0.00    +0.000 A 
ATOM     10  C   UNL     1       2.882   8.141  17.559  0.00  0.00    +0.000 A 
ATOM     11  C   UNL     1       2.937   7.036  18.411  0.00  0.00    +0.000 A 
ENDBRANCH   5   6
ENDBRANCH   3   4
ENDBRANCH   2   3
BRANCH   2  12
ATOM     12  C   UNL     1       4.129   3.033  18.731  0.00  0.00    +0.000 C 
BRANCH  12  13
ATOM     13  C   UNL     1       4.682   4.030  17.719  0.00  0.00    +0.000 A 
ATOM     14  C   UNL     1       4.215   3.923  16.392  0.00  0.00    +0.000 A 
ATOM     15  C   UNL     1       4.793   4.662  15.368  0.00  0.00    +0.000 A 
ATOM     16  C   UNL     1       5.880   5.485  15.642  0.00  0.00    +0.000 A 
ATOM     17  C   UNL     1       6.365   5.626  16.950  0.00  0.00    +0.000 A 
ATOM     18  C   UNL     1       7.497   6.422  17.190  0.00  0.00    +0.000 A 
ATOM     19  C   UNL     1       7.975   6.621  18.483  0.00  0.00    +0.000 A 
ATOM     20  C   UNL     1       7.301   6.059  19.556  0.00  0.00    +0.000 A 
ATOM     21  C   UNL     1       6.195   5.235  19.330  0.00  0.00    +0.000 A 
ATOM     22  C   UNL     1       5.726   4.953  18.024  0.00  0.00    +0.000 A 
ENDBRANCH  12  13
ENDBRANCH   2  12
TORSDOF 5
ENDMDL
MODEL 7
REMARK VINA RESULT:      -7.4      2.589      4.931
REMARK  Name = 
REMARK  6 active torsions:
REMARK  status: ('A' for Active; 'I' for Inactive)
REMARK    1  A    between atoms: C_1  and  N_2
REMARK    2  A    between atoms: N_2  and  C_3
REMARK    3  A    between atoms: N_2  and  C_12
REMARK    4  A    between atoms: C_3  and  C_4
REMARK    5  A    between atoms: C_5  and  C_6
REMARK    6  A    between atoms: C_12  and  C_13
REMARK                            x       y       z     vdW  Elec       q    Type
REMARK                         _______ _______ _______ _____ _____    ______ ____
ROOT
ATOM      1  C   UNL     1       2.566   2.811  17.396  0.00  0.00    +0.000 C 
ATOM      2  N   UNL     1       4.019   2.918  17.197  0.00  0.00    +0.000 NA
ENDROOT
BRANCH   2   3
ATOM      3  C   UNL     1       4.361   4.067  16.330  0.00  0.00    +0.000 C 
BRANCH   3   4
ATOM      4  C   UNL     1       5.569   3.826  15.463  0.00  0.00    +0.000 C 
ATOM      5  C   UNL     1       6.781   4.390  15.602  0.00  0.00    +0.000 C 
BRANCH   5   6
ATOM      6  C   UNL     1       7.174   5.276  16.696  0.00  0.00    +0.000 A 
ATOM      7  C   UNL     1       7.617   4.714  17.899  0.00  0.00    +0.000 A 
ATOM      8  C   UNL     1       8.025   5.535  18.949  0.00  0.00    +0.000 A 
ATOM      9  C   UNL     1       7.998   6.921  18.802  0.00  0.00    +0.000 A 
ATOM     10  C   UNL     1       7.557   7.486  17.603  0.00  0.00    +0.000 A 
ATOM     11  C   UNL     1       7.143   6.666  16.552  0.00  0.00    +0.000 A 
ENDBRANCH   5   6
ENDBRANCH   3   4
ENDBRANCH   2   3
BRANCH   2  12
ATOM     12  C   UNL     1       4.719   3.063  18.502  0.00  0.00    +0.000 C 
BRANCH  12  13
ATOM     13  C   UNL     1       3.790   3.489  19.634  0.00  0.00    +0.000 A 
ATOM     14  C   UNL     1       3.344   2.479  20.512  0.00  0.00    +0.000 A 
ATOM     15  C   UNL     1       2.358   2.736  21.456  0.00  0.00    +0.000 A 
ATOM     16  C   UNL     1       1.765   3.992  21.507  0.00  0.00    +0.000 A 
ATOM     17  C   UNL     1       2.189   5.025  20.659  0.00  0.00    +0.000 A 
ATOM     18  C   UNL     1       1.537   6.268  20.696  0.00  0.00    +0.000 A 
ATOM     19  C   UNL     1       1.965   7.328  19.900  0.00  0.00    +0.000 A 
ATOM     20  C   UNL     1       3.078   7.169  19.089  0.00  0.00    +0.000 A 
ATOM     21  C   UNL     1       3.714   5.927  19.014  0.00  0.00    +0.000 A 
ATOM     22  C   UNL     1       3.262   4.808  19.755  0.00  0.00    +0.000 A 
ENDBRANCH  12  13
ENDBRANCH   2  12
TORSDOF 5
ENDMDL
MODEL 8
REMARK VINA RESULT:      -7.4      1.627      3.118
REMARK  Name = 
REMARK  6 active torsions:
REMARK  status: ('A' for Active; 'I' for Inactive)
REMARK    1  A    between atoms: C_1  and  N_2
REMARK    2  A    between atoms: N_2  and  C_3
REMARK    3  A    between atoms: N_2  and  C_12
REMARK    4  A    between atoms: C_3  and  C_4
REMARK    5  A    between atoms: C_5  and  C_6
REMARK    6  A    between atoms: C_12  and  C_13
REMARK                            x       y       z     vdW  Elec       q    Type
REMARK                         _______ _______ _______ _____ _____    ______ ____
ROOT
ATOM      1  C   UNL     1       3.485   7.552  17.444  0.00  0.00    +0.000 C 
ATOM      2  N   UNL     1       4.335   6.378  17.196  0.00  0.00    +0.000 NA
ENDROOT
BRANCH   2   3
ATOM      3  C   UNL     1       5.667   6.773  16.691  0.00  0.00    +0.000 C 
BRANCH   3   4
ATOM      4  C   UNL     1       6.769   5.832  17.102  0.00  0.00    +0.000 C 
ATOM      5  C   UNL     1       7.335   4.880  16.341  0.00  0.00    +0.000 C 
BRANCH   5   6
ATOM      6  C   UNL     1       7.044   4.652  14.927  0.00  0.00    +0.000 A 
ATOM      7  C   UNL     1       7.820   5.302  13.960  0.00  0.00    +0.000 A 
ATOM      8  C   UNL     1       7.583   5.082  12.604  0.00  0.00    +0.000 A 
ATOM      9  C   UNL     1       6.573   4.207  12.206  0.00  0.00    +0.000 A 
ATOM     10  C   UNL     1       5.796   3.556  13.167  0.00  0.00    +0.000 A 
ATOM     11  C   UNL     1       6.028   3.780  14.525  0.00  0.00    +0.000 A 
ENDBRANCH   5   6
ENDBRANCH   3   4
ENDBRANCH   2   3
BRANCH   2  12
ATOM     12  C   UNL     1       4.499   5.577  18.440  0.00  0.00    +0.000 C 
BRANCH  12  13
ATOM     13  C   UNL     1       3.751   4.249  18.398  0.00  0.00    +0.000 A 
ATOM     14  C   UNL     1       3.718   3.569  17.163  0.00  0.00    +0.000 A 
ATOM     15  C   UNL     1       2.913   2.453  16.982  0.00  0.00    +0.000 A 
ATOM     16  C   UNL     1       2.088   2.024  18.015  0.00  0.00    +0.000 A 
ATOM     17  C   UNL     1       2.100   2.667  19.261  0.00  0.00    +0.000 A 
ATOM     18  C   UNL     1       1.218   2.247  20.270  0.00  0.00    +0.000 A 
ATOM     19  C   UNL     1       1.238   2.833  21.533  0.00  0.00    +0.000 A 
ATOM     20  C   UNL     1       2.171   3.820  21.814  0.00  0.00    +0.000 A 
ATOM     21  C   UNL     1       3.030   4.274  20.810  0.00  0.00    +0.000 A 
ATOM     22  C   UNL     1       2.987   3.750  19.496  0.00  0.00    +0.000 A 
ENDBRANCH  12  13
ENDBRANCH   2  12
TORSDOF 5
ENDMDL
MODEL 9
REMARK VINA RESULT:      -7.3      2.421      7.875
REMARK  Name = 
REMARK  6 active torsions:
REMARK  status: ('A' for Active; 'I' for Inactive)
REMARK    1  A    between atoms: C_1  and  N_2
REMARK    2  A    between atoms: N_2  and  C_3
REMARK    3  A    between atoms: N_2  and  C_12
REMARK    4  A    between atoms: C_3  and  C_4
REMARK    5  A    between atoms: C_5  and  C_6
REMARK    6  A    between atoms: C_12  and  C_13
REMARK                            x       y       z     vdW  Elec       q    Type
REMARK                         _______ _______ _______ _____ _____    ______ ____
ROOT
ATOM      1  C   UNL     1       1.386   4.096  17.826  0.00  0.00    +0.000 C 
ATOM      2  N   UNL     1       2.658   4.827  17.910  0.00  0.00    +0.000 NA
ENDROOT
BRANCH   2   3
ATOM      3  C   UNL     1       2.493   6.120  18.608  0.00  0.00    +0.000 C 
BRANCH   3   4
ATOM      4  C   UNL     1       2.984   7.301  17.812  0.00  0.00    +0.000 C 
ATOM      5  C   UNL     1       2.509   8.557  17.864  0.00  0.00    +0.000 C 
BRANCH   5   6
ATOM      6  C   UNL     1       1.480   9.027  18.790  0.00  0.00    +0.000 A 
ATOM      7  C   UNL     1       0.478   9.882  18.316  0.00  0.00    +0.000 A 
ATOM      8  C   UNL     1      -0.532  10.323  19.169  0.00  0.00    +0.000 A 
ATOM      9  C   UNL     1      -0.550   9.908  20.500  0.00  0.00    +0.000 A 
ATOM     10  C   UNL     1       0.447   9.055  20.978  0.00  0.00    +0.000 A 
ATOM     11  C   UNL     1       1.462   8.617  20.127  0.00  0.00    +0.000 A 
ENDBRANCH   5   6
ENDBRANCH   3   4
ENDBRANCH   2   3
BRANCH   2  12
ATOM     12  C   UNL     1       3.685   4.016  18.618  0.00  0.00    +0.000 C 
BRANCH  12  13
ATOM     13  C   UNL     1       5.112   4.459  18.314  0.00  0.00    +0.000 A 
ATOM     14  C   UNL     1       5.853   5.011  19.379  0.00  0.00    +0.000 A 
ATOM     15  C   UNL     1       7.088   5.608  19.159  0.00  0.00    +0.000 A 
ATOM     16  C   UNL     1       7.582   5.709  17.863  0.00  0.00    +0.000 A 
ATOM     17  C   UNL     1       6.879   5.163  16.779  0.00  0.00    +0.000 A 
ATOM     18  C   UNL     1       7.375   5.325  15.475  0.00  0.00    +0.000 A 
ATOM     19  C   UNL     1       6.726   4.755  14.383  0.00  0.00    +0.000 A 
ATOM     20  C   UNL     1       5.596   3.979  14.588  0.00  0.00    +0.000 A 
ATOM     21  C   UNL     1       5.070   3.839  15.874  0.00  0.00    +0.000 A 
ATOM     22  C   UNL     1       5.663   4.464  16.998  0.00  0.00    +0.000 A 
ENDBRANCH  12  13
ENDBRANCH   2  12
TORSDOF 5
ENDMDL
