MODEL 1
REMARK VINA RESULT:      -7.7      0.000      0.000
REMARK  Name = 
REMARK  4 active torsions:
REMARK  status: ('A' for Active; 'I' for Inactive)
REMARK    1  A    between atoms: C_1  and  O_2
REMARK    2  A    between atoms: O_2  and  C_3
REMARK    3  A    between atoms: C_7  and  C_8
REMARK    4  A    between atoms: C_11  and  C_12
REMARK                            x       y       z     vdW  Elec       q    Type
REMARK                         _______ _______ _______ _____ _____    ______ ____
ROOT
ATOM      1  C   UNL     1       6.736   4.545  15.840  0.00  0.00    +0.000 A 
ATOM      2  N   UNL     1       7.639   4.697  16.785  0.00  0.00    +0.000 NA
ATOM      3  N   UNL     1       6.964   4.574  17.985  0.00  0.00    +0.000 NA
ATOM      4  C   UNL     1       5.692   4.346  17.702  0.00  0.00    +0.000 A 
ATOM      5  O   UNL     1       5.481   4.340  16.346  0.00  0.00    +0.000 OA
ENDROOT
BRANCH   4   6
ATOM      6  C   UNL     1       4.667   4.062  18.672  0.00  0.00    +0.000 A 
ATOM      7  S   UNL     1       4.899   2.827  19.827  0.00  0.00    +0.000 S 
ATOM      8  C   UNL     1       3.316   2.995  20.465  0.00  0.00    +0.000 A 
ATOM      9  C   UNL     1       2.748   2.237  21.506  0.00  0.00    +0.000 A 
ATOM     10  C   UNL     1       1.425   2.474  21.876  0.00  0.00    +0.000 A 
ATOM     11  C   UNL     1       0.680   3.449  21.230  0.00  0.00    +0.000 A 
ATOM     12  C   UNL     1       1.256   4.219  20.213  0.00  0.00    +0.000 A 
ATOM     13  C   UNL     1       2.603   4.004  19.813  0.00  0.00    +0.000 A 
ATOM     14  C   UNL     1       3.424   4.652  18.817  0.00  0.00    +0.000 A 
ATOM     15 CL   UNL     1       2.834   5.999  17.916  0.00  0.00    +0.000 Cl
ENDBRANCH   4   6
BRANCH   1  20
ATOM     16  C   UNL     1       6.234   3.538  12.243  0.00  0.00    +0.000 A 
ATOM     17  C   UNL     1       7.150   4.373  11.604  0.00  0.00    +0.000 A 
ATOM     18  C   UNL     1       7.918   5.278  12.341  0.00  0.00    +0.000 A 
ATOM     19  C   UNL     1       7.773   5.350  13.729  0.00  0.00    +0.000 A 
ATOM     20  C   UNL     1       6.865   4.512  14.389  0.00  0.00    +0.000 A 
ATOM     21  C   UNL     1       6.097   3.614  13.630  0.00  0.00    +0.000 A 
BRANCH  16  23
ATOM     22  C   UNL     1       4.172   3.036  11.177  0.00  0.00    +0.000 C 
ATOM     23  O   UNL     1       5.534   2.695  11.425  0.00  0.00    +0.000 OA
ENDBRANCH  16  23
ENDBRANCH   1  20
TORSDOF 3
ENDMDL
MODEL 2
REMARK VINA RESULT:      -7.6      5.137      6.652
REMARK  Name = 
REMARK  4 active torsions:
REMARK  status: ('A' for Active; 'I' for Inactive)
REMARK    1  A    between atoms: C_1  and  O_2
REMARK    2  A    between atoms: O_2  and  C_3
REMARK    3  A    between atoms: C_7  and  C_8
REMARK    4  A    between atoms: C_11  and  C_12
REMARK                            x       y       z     vdW  Elec       q    Type
REMARK                         _______ _______ _______ _____ _____    ______ ____
ROOT
ATOM      1  C   UNL     1       3.237   6.006  19.062  0.00  0.00    +0.000 A 
ATOM      2  N   UNL     1       2.563   5.285  19.931  0.00  0.00    +0.000 NA
ATOM      3  N   UNL     1       1.736   6.165  20.604  0.00  0.00    +0.000 NA
ATOM      4  C   UNL     1       1.949   7.369  20.101  0.00  0.00    +0.000 A 
ATOM      5  O   UNL     1       2.915   7.335  19.127  0.00  0.00    +0.000 OA
ENDROOT
BRANCH   4   6
ATOM      6  C   UNL     1       1.216   8.556  20.460  0.00  0.00    +0.000 A 
ATOM      7  S   UNL     1       0.929   8.922  22.101  0.00  0.00    +0.000 S 
ATOM      8  C   UNL     1      -0.041  10.286  21.726  0.00  0.00    +0.000 A 
ATOM      9  C   UNL     1      -0.686  11.132  22.647  0.00  0.00    +0.000 A 
ATOM     10  C   UNL     1      -1.478  12.177  22.171  0.00  0.00    +0.000 A 
ATOM     11  C   UNL     1      -1.621  12.383  20.807  0.00  0.00    +0.000 A 
ATOM     12  C   UNL     1      -0.956  11.555  19.895  0.00  0.00    +0.000 A 
ATOM     13  C   UNL     1      -0.141  10.482  20.347  0.00  0.00    +0.000 A 
ATOM     14  C   UNL     1       0.645   9.504  19.630  0.00  0.00    +0.000 A 
ATOM     15 CL   UNL     1       0.782   9.560  17.912  0.00  0.00    +0.000 Cl
ENDBRANCH   4   6
BRANCH   1  20
ATOM     16  C   UNL     1       6.294   6.046  16.858  0.00  0.00    +0.000 A 
ATOM     17  C   UNL     1       6.040   4.949  16.035  0.00  0.00    +0.000 A 
ATOM     18  C   UNL     1       4.885   4.184  16.210  0.00  0.00    +0.000 A 
ATOM     19  C   UNL     1       3.971   4.517  17.213  0.00  0.00    +0.000 A 
ATOM     20  C   UNL     1       4.203   5.621  18.042  0.00  0.00    +0.000 A 
ATOM     21  C   UNL     1       5.374   6.374  17.855  0.00  0.00    +0.000 A 
BRANCH  16  23
ATOM     22  C   UNL     1       7.771   7.798  17.479  0.00  0.00    +0.000 C 
ATOM     23  O   UNL     1       7.455   6.721  16.600  0.00  0.00    +0.000 OA
ENDBRANCH  16  23
ENDBRANCH   1  20
TORSDOF 3
ENDMDL
MODEL 3
REMARK VINA RESULT:      -7.5      5.954      7.759
REMARK  Name = 
REMARK  4 active torsions:
REMARK  status: ('A' for Active; 'I' for Inactive)
REMARK    1  A    between atoms: C_1  and  O_2
REMARK    2  A    between atoms: O_2  and  C_3
REMARK    3  A    between atoms: C_7  and  C_8
REMARK    4  A    between atoms: C_11  and  C_12
REMARK                            x       y       z     vdW  Elec       q    Type
REMARK                         _______ _______ _______ _____ _____    ______ ____
ROOT
ATOM      1  C   UNL     1       2.579   7.429  18.178  0.00  0.00    +0.000 A 
ATOM      2  N   UNL     1       2.689   8.315  17.212  0.00  0.00    +0.000 NA
ATOM      3  N   UNL     1       2.025   9.446  17.648  0.00  0.00    +0.000 NA
ATOM      4  C   UNL     1       1.557   9.187  18.858  0.00  0.00    +0.000 A 
ATOM      5  O   UNL     1       1.859   7.905  19.241  0.00  0.00    +0.000 OA
ENDROOT
BRANCH   4   6
ATOM      6  C   UNL     1       0.885  10.138  19.706  0.00  0.00    +0.000 A 
ATOM      7  S   UNL     1       1.042  11.811  19.410  0.00  0.00    +0.000 S 
ATOM      8  C   UNL     1       0.149  12.240  20.809  0.00  0.00    +0.000 A 
ATOM      9  C   UNL     1      -0.133  13.544  21.255  0.00  0.00    +0.000 A 
ATOM     10  C   UNL     1      -0.839  13.718  22.445  0.00  0.00    +0.000 A 
ATOM     11  C   UNL     1      -1.264  12.619  23.176  0.00  0.00    +0.000 A 
ATOM     12  C   UNL     1      -1.006  11.323  22.715  0.00  0.00    +0.000 A 
ATOM     13  C   UNL     1      -0.290  11.111  21.505  0.00  0.00    +0.000 A 
ATOM     14  C   UNL     1       0.096   9.900  20.817  0.00  0.00    +0.000 A 
ATOM     15 CL   UNL     1      -0.389   8.352  21.400  0.00  0.00    +0.000 Cl
ENDBRANCH   4   6
BRANCH   1  20
ATOM     16  C   UNL     1       5.050   4.621  18.637  0.00  0.00    +0.000 A 
ATOM     17  C   UNL     1       4.218   3.511  18.497  0.00  0.00    +0.000 A 
ATOM     18  C   UNL     1       2.849   3.676  18.275  0.00  0.00    +0.000 A 
ATOM     19  C   UNL     1       2.304   4.959  18.186  0.00  0.00    +0.000 A 
ATOM     20  C   UNL     1       3.126   6.087  18.312  0.00  0.00    +0.000 A 
ATOM     21  C   UNL     1       4.499   5.900  18.543  0.00  0.00    +0.000 A 
BRANCH  16  23
ATOM     22  C   UNL     1       7.289   4.810  17.868  0.00  0.00    +0.000 C 
ATOM     23  O   UNL     1       6.372   4.344  18.855  0.00  0.00    +0.000 OA
ENDBRANCH  16  23
ENDBRANCH   1  20
TORSDOF 3
ENDMDL
MODEL 4
REMARK VINA RESULT:      -7.5      2.967      3.583
REMARK  Name = 
REMARK  4 active torsions:
REMARK  status: ('A' for Active; 'I' for Inactive)
REMARK    1  A    between atoms: C_1  and  O_2
REMARK    2  A    between atoms: O_2  and  C_3
REMARK    3  A    between atoms: C_7  and  C_8
REMARK    4  A    between atoms: C_11  and  C_12
REMARK                            x       y       z     vdW  Elec       q    Type
REMARK                         _______ _______ _______ _____ _____    ______ ____
ROOT
ATOM      1  C   UNL     1       5.416   4.708  16.145  0.00  0.00    +0.000 A 
ATOM      2  N   UNL     1       5.498   3.938  17.209  0.00  0.00    +0.000 NA
ATOM      3  N   UNL     1       4.735   4.550  18.186  0.00  0.00    +0.000 NA
ATOM      4  C   UNL     1       4.226   5.651  17.659  0.00  0.00    +0.000 A 
ATOM      5  O   UNL     1       4.645   5.818  16.363  0.00  0.00    +0.000 OA
ENDROOT
BRANCH   4   6
ATOM      6  C   UNL     1       3.293   6.528  18.317  0.00  0.00    +0.000 A 
ATOM      7  S   UNL     1       2.863   8.015  17.599  0.00  0.00    +0.000 S 
ATOM      8  C   UNL     1       1.912   8.498  18.943  0.00  0.00    +0.000 A 
ATOM      9  C   UNL     1       1.214   9.712  19.081  0.00  0.00    +0.000 A 
ATOM     10  C   UNL     1       0.521   9.966  20.264  0.00  0.00    +0.000 A 
ATOM     11  C   UNL     1       0.515   9.031  21.289  0.00  0.00    +0.000 A 
ATOM     12  C   UNL     1       1.188   7.813  21.136  0.00  0.00    +0.000 A 
ATOM     13  C   UNL     1       1.902   7.522  19.942  0.00  0.00    +0.000 A 
ATOM     14  C   UNL     1       2.660   6.361  19.535  0.00  0.00    +0.000 A 
ATOM     15 CL   UNL     1       2.747   4.960  20.537  0.00  0.00    +0.000 Cl
ENDBRANCH   4   6
BRANCH   1  20
ATOM     16  C   UNL     1       5.837   3.505  12.598  0.00  0.00    +0.000 A 
ATOM     17  C   UNL     1       7.017   4.154  12.238  0.00  0.00    +0.000 A 
ATOM     18  C   UNL     1       7.666   4.999  13.140  0.00  0.00    +0.000 A 
ATOM     19  C   UNL     1       7.135   5.197  14.418  0.00  0.00    +0.000 A 
ATOM     20  C   UNL     1       5.956   4.545  14.802  0.00  0.00    +0.000 A 
ATOM     21  C   UNL     1       5.315   3.705  13.877  0.00  0.00    +0.000 A 
BRANCH  16  23
ATOM     22  C   UNL     1       4.015   3.105  11.129  0.00  0.00    +0.000 C 
ATOM     23  O   UNL     1       5.286   2.705  11.636  0.00  0.00    +0.000 OA
ENDBRANCH  16  23
ENDBRANCH   1  20
TORSDOF 3
ENDMDL
MODEL 5
REMARK VINA RESULT:      -7.3      5.976      7.634
REMARK  Name = 
REMARK  4 active torsions:
REMARK  status: ('A' for Active; 'I' for Inactive)
REMARK    1  A    between atoms: C_1  and  O_2
REMARK    2  A    between atoms: O_2  and  C_3
REMARK    3  A    between atoms: C_7  and  C_8
REMARK    4  A    between atoms: C_11  and  C_12
REMARK                            x       y       z     vdW  Elec       q    Type
REMARK                         _______ _______ _______ _____ _____    ______ ____
ROOT
ATOM      1  C   UNL     1       2.540   7.628  17.994  0.00  0.00    +0.000 A 
ATOM      2  N   UNL     1       2.873   8.709  17.323  0.00  0.00    +0.000 NA
ATOM      3  N   UNL     1       2.090   9.731  17.828  0.00  0.00    +0.000 NA
ATOM      4  C   UNL     1       1.332   9.215  18.781  0.00  0.00    +0.000 A 
ATOM      5  O   UNL     1       1.558   7.869  18.917  0.00  0.00    +0.000 OA
ENDROOT
BRANCH   4   6
ATOM      6  C   UNL     1       0.441   9.966  19.626  0.00  0.00    +0.000 A 
ATOM      7  S   UNL     1      -0.639  11.097  18.943  0.00  0.00    +0.000 S 
ATOM      8  C   UNL     1      -1.199  11.631  20.473  0.00  0.00    +0.000 A 
ATOM      9  C   UNL     1      -2.154  12.637  20.710  0.00  0.00    +0.000 A 
ATOM     10  C   UNL     1      -2.466  12.982  22.025  0.00  0.00    +0.000 A 
ATOM     11  C   UNL     1      -1.846  12.337  23.085  0.00  0.00    +0.000 A 
ATOM     12  C   UNL     1      -0.917  11.319  22.845  0.00  0.00    +0.000 A 
ATOM     13  C   UNL     1      -0.578  10.942  21.517  0.00  0.00    +0.000 A 
ATOM     14  C   UNL     1       0.326   9.938  21.005  0.00  0.00    +0.000 A 
ATOM     15 CL   UNL     1       1.166   8.871  22.068  0.00  0.00    +0.000 Cl
ENDBRANCH   4   6
BRANCH   1  20
ATOM     16  C   UNL     1       2.679   3.866  17.807  0.00  0.00    +0.000 A 
ATOM     17  C   UNL     1       4.050   3.646  17.930  0.00  0.00    +0.000 A 
ATOM     18  C   UNL     1       4.932   4.721  18.052  0.00  0.00    +0.000 A 
ATOM     19  C   UNL     1       4.443   6.030  18.057  0.00  0.00    +0.000 A 
ATOM     20  C   UNL     1       3.067   6.271  17.946  0.00  0.00    +0.000 A 
ATOM     21  C   UNL     1       2.197   5.176  17.816  0.00  0.00    +0.000 A 
BRANCH  16  23
ATOM     22  C   UNL     1       1.517   2.111  18.907  0.00  0.00    +0.000 C 
ATOM     23  O   UNL     1       1.908   2.742  17.690  0.00  0.00    +0.000 OA
ENDBRANCH  16  23
ENDBRANCH   1  20
TORSDOF 3
ENDMDL
MODEL 6
REMARK VINA RESULT:      -7.3      6.140      8.079
REMARK  Name = 
REMARK  4 active torsions:
REMARK  status: ('A' for Active; 'I' for Inactive)
REMARK    1  A    between atoms: C_1  and  O_2
REMARK    2  A    between atoms: O_2  and  C_3
REMARK    3  A    between atoms: C_7  and  C_8
REMARK    4  A    between atoms: C_11  and  C_12
REMARK                            x       y       z     vdW  Elec       q    Type
REMARK                         _______ _______ _______ _____ _____    ______ ____
ROOT
ATOM      1  C   UNL     1       2.573   7.587  18.323  0.00  0.00    +0.000 A 
ATOM      2  N   UNL     1       2.613   8.438  17.321  0.00  0.00    +0.000 NA
ATOM      3  N   UNL     1       1.907   9.553  17.733  0.00  0.00    +0.000 NA
ATOM      4  C   UNL     1       1.485   9.320  18.964  0.00  0.00    +0.000 A 
ATOM      5  O   UNL     1       1.860   8.070  19.387  0.00  0.00    +0.000 OA
ENDROOT
BRANCH   4   6
ATOM      6  C   UNL     1       0.792  10.271  19.794  0.00  0.00    +0.000 A 
ATOM      7  S   UNL     1       0.871  11.938  19.438  0.00  0.00    +0.000 S 
ATOM      8  C   UNL     1      -0.009  12.378  20.842  0.00  0.00    +0.000 A 
ATOM      9  C   UNL     1      -0.337  13.684  21.250  0.00  0.00    +0.000 A 
ATOM     10  C   UNL     1      -1.024  13.870  22.449  0.00  0.00    +0.000 A 
ATOM     11  C   UNL     1      -1.386  12.780  23.226  0.00  0.00    +0.000 A 
ATOM     12  C   UNL     1      -1.082  11.481  22.804  0.00  0.00    +0.000 A 
ATOM     13  C   UNL     1      -0.384  11.256  21.586  0.00  0.00    +0.000 A 
ATOM     14  C   UNL     1       0.038  10.040  20.931  0.00  0.00    +0.000 A 
ATOM     15 CL   UNL     1      -0.367   8.494  21.578  0.00  0.00    +0.000 Cl
ENDBRANCH   4   6
BRANCH   1  20
ATOM     16  C   UNL     1       3.188   4.074  19.539  0.00  0.00    +0.000 A 
ATOM     17  C   UNL     1       4.391   3.779  18.899  0.00  0.00    +0.000 A 
ATOM     18  C   UNL     1       4.992   4.715  18.055  0.00  0.00    +0.000 A 
ATOM     19  C   UNL     1       4.391   5.959  17.850  0.00  0.00    +0.000 A 
ATOM     20  C   UNL     1       3.188   6.278  18.493  0.00  0.00    +0.000 A 
ATOM     21  C   UNL     1       2.595   5.320  19.332  0.00  0.00    +0.000 A 
BRANCH  16  23
ATOM     22  C   UNL     1       1.490   3.388  21.051  0.00  0.00    +0.000 C 
ATOM     23  O   UNL     1       2.687   3.083  20.340  0.00  0.00    +0.000 OA
ENDBRANCH  16  23
ENDBRANCH   1  20
TORSDOF 3
ENDMDL
MODEL 7
REMARK VINA RESULT:      -7.3      4.691      6.024
REMARK  Name = 
REMARK  4 active torsions:
REMARK  status: ('A' for Active; 'I' for Inactive)
REMARK    1  A    between atoms: C_1  and  O_2
REMARK    2  A    between atoms: O_2  and  C_3
REMARK    3  A    between atoms: C_7  and  C_8
REMARK    4  A    between atoms: C_11  and  C_12
REMARK                            x       y       z     vdW  Elec       q    Type
REMARK                         _______ _______ _______ _____ _____    ______ ____
ROOT
ATOM      1  C   UNL     1       3.819   5.629  19.184  0.00  0.00    +0.000 A 
ATOM      2  N   UNL     1       2.904   4.884  19.765  0.00  0.00    +0.000 NA
ATOM      3  N   UNL     1       1.953   5.757  20.259  0.00  0.00    +0.000 NA
ATOM      4  C   UNL     1       2.339   6.982  19.944  0.00  0.00    +0.000 A 
ATOM      5  O   UNL     1       3.537   6.966  19.276  0.00  0.00    +0.000 OA
ENDROOT
BRANCH   4   6
ATOM      6  C   UNL     1       1.577   8.179  20.191  0.00  0.00    +0.000 A 
ATOM      7  S   UNL     1       1.047   8.546  21.772  0.00  0.00    +0.000 S 
ATOM      8  C   UNL     1       0.165   9.924  21.258  0.00  0.00    +0.000 A 
ATOM      9  C   UNL     1      -0.601  10.778  22.073  0.00  0.00    +0.000 A 
ATOM     10  C   UNL     1      -1.296  11.835  21.485  0.00  0.00    +0.000 A 
ATOM     11  C   UNL     1      -1.226  12.045  20.116  0.00  0.00    +0.000 A 
ATOM     12  C   UNL     1      -0.441  11.210  19.313  0.00  0.00    +0.000 A 
ATOM     13  C   UNL     1       0.280  10.125  19.881  0.00  0.00    +0.000 A 
ATOM     14  C   UNL     1       1.153   9.137  19.288  0.00  0.00    +0.000 A 
ATOM     15 CL   UNL     1       1.551   9.193  17.612  0.00  0.00    +0.000 Cl
ENDBRANCH   4   6
BRANCH   1  20
ATOM     16  C   UNL     1       6.050   4.199  16.504  0.00  0.00    +0.000 A 
ATOM     17  C   UNL     1       7.309   4.491  17.025  0.00  0.00    +0.000 A 
ATOM     18  C   UNL     1       7.434   5.171  18.238  0.00  0.00    +0.000 A 
ATOM     19  C   UNL     1       6.291   5.562  18.942  0.00  0.00    +0.000 A 
ATOM     20  C   UNL     1       5.017   5.268  18.439  0.00  0.00    +0.000 A 
ATOM     21  C   UNL     1       4.913   4.590  17.214  0.00  0.00    +0.000 A 
BRANCH  16  23
ATOM     22  C   UNL     1       6.077   4.340  14.133  0.00  0.00    +0.000 C 
ATOM     23  O   UNL     1       6.045   3.534  15.309  0.00  0.00    +0.000 OA
ENDBRANCH  16  23
ENDBRANCH   1  20
TORSDOF 3
ENDMDL
MODEL 8
REMARK VINA RESULT:      -7.2      5.915      7.630
REMARK  Name = 
REMARK  4 active torsions:
REMARK  status: ('A' for Active; 'I' for Inactive)
REMARK    1  A    between atoms: C_1  and  O_2
REMARK    2  A    between atoms: O_2  and  C_3
REMARK    3  A    between atoms: C_7  and  C_8
REMARK    4  A    between atoms: C_11  and  C_12
REMARK                            x       y       z     vdW  Elec       q    Type
REMARK                         _______ _______ _______ _____ _____    ______ ____
ROOT
ATOM      1  C   UNL     1       2.569   7.486  18.126  0.00  0.00    +0.000 A 
ATOM      2  N   UNL     1       2.653   8.466  17.253  0.00  0.00    +0.000 NA
ATOM      3  N   UNL     1       1.975   9.536  17.807  0.00  0.00    +0.000 NA
ATOM      4  C   UNL     1       1.524   9.149  18.989  0.00  0.00    +0.000 A 
ATOM      5  O   UNL     1       1.852   7.840  19.238  0.00  0.00    +0.000 OA
ENDROOT
BRANCH   4   6
ATOM      6  C   UNL     1       0.846   9.997  19.934  0.00  0.00    +0.000 A 
ATOM      7  S   UNL     1       0.208   9.339  21.373  0.00  0.00    +0.000 S 
ATOM      8  C   UNL     1      -0.505  10.823  21.849  0.00  0.00    +0.000 A 
ATOM      9  C   UNL     1      -1.268  11.051  23.009  0.00  0.00    +0.000 A 
ATOM     10  C   UNL     1      -1.816  12.316  23.225  0.00  0.00    +0.000 A 
ATOM     11  C   UNL     1      -1.607  13.337  22.311  0.00  0.00    +0.000 A 
ATOM     12  C   UNL     1      -0.825  13.113  21.171  0.00  0.00    +0.000 A 
ATOM     13  C   UNL     1      -0.250  11.837  20.922  0.00  0.00    +0.000 A 
ATOM     14  C   UNL     1       0.586  11.353  19.848  0.00  0.00    +0.000 A 
ATOM     15 CL   UNL     1       1.137  12.412  18.604  0.00  0.00    +0.000 Cl
ENDBRANCH   4   6
BRANCH   1  20
ATOM     16  C   UNL     1       5.086   4.688  18.314  0.00  0.00    +0.000 A 
ATOM     17  C   UNL     1       4.278   3.586  18.037  0.00  0.00    +0.000 A 
ATOM     18  C   UNL     1       2.910   3.750  17.810  0.00  0.00    +0.000 A 
ATOM     19  C   UNL     1       2.342   5.026  17.855  0.00  0.00    +0.000 A 
ATOM     20  C   UNL     1       3.140   6.147  18.120  0.00  0.00    +0.000 A 
ATOM     21  C   UNL     1       4.512   5.960  18.353  0.00  0.00    +0.000 A 
BRANCH  16  23
ATOM     22  C   UNL     1       7.231   5.507  18.922  0.00  0.00    +0.000 C 
ATOM     23  O   UNL     1       6.410   4.411  18.523  0.00  0.00    +0.000 OA
ENDBRANCH  16  23
ENDBRANCH   1  20
TORSDOF 3
ENDMDL
MODEL 9
REMARK VINA RESULT:      -7.2      4.964      8.989
REMARK  Name = 
REMARK  4 active torsions:
REMARK  status: ('A' for Active; 'I' for Inactive)
REMARK    1  A    between atoms: C_1  and  O_2
REMARK    2  A    between atoms: O_2  and  C_3
REMARK    3  A    between atoms: C_7  and  C_8
REMARK    4  A    between atoms: C_11  and  C_12
REMARK                            x       y       z     vdW  Elec       q    Type
REMARK                         _______ _______ _______ _____ _____    ______ ____
ROOT
ATOM      1  C   UNL     1       1.676   7.576  20.174  0.00  0.00    +0.000 A 
ATOM      2  N   UNL     1       1.689   6.430  20.820  0.00  0.00    +0.000 NA
ATOM      3  N   UNL     1       2.498   5.583  20.087  0.00  0.00    +0.000 NA
ATOM      4  C   UNL     1       2.938   6.264  19.041  0.00  0.00    +0.000 A 
ATOM      5  O   UNL     1       2.428   7.537  19.030  0.00  0.00    +0.000 OA
ENDROOT
BRANCH   4   6
ATOM      6  C   UNL     1       3.889   5.775  18.076  0.00  0.00    +0.000 A 
ATOM      7  S   UNL     1       5.351   6.614  17.813  0.00  0.00    +0.000 S 
ATOM      8  C   UNL     1       5.825   5.578  16.531  0.00  0.00    +0.000 A 
ATOM      9  C   UNL     1       7.001   5.680  15.765  0.00  0.00    +0.000 A 
ATOM     10  C   UNL     1       7.214   4.776  14.724  0.00  0.00    +0.000 A 
ATOM     11  C   UNL     1       6.282   3.785  14.453  0.00  0.00    +0.000 A 
ATOM     12  C   UNL     1       5.127   3.671  15.235  0.00  0.00    +0.000 A 
ATOM     13  C   UNL     1       4.880   4.575  16.304  0.00  0.00    +0.000 A 
ATOM     14  C   UNL     1       3.793   4.669  17.250  0.00  0.00    +0.000 A 
ATOM     15 CL   UNL     1       2.522   3.503  17.265  0.00  0.00    +0.000 Cl
ENDBRANCH   4   6
BRANCH   1  20
ATOM     16  C   UNL     1      -0.125  10.272  22.095  0.00  0.00    +0.000 A 
ATOM     17  C   UNL     1      -0.227  11.266  21.122  0.00  0.00    +0.000 A 
ATOM     18  C   UNL     1       0.308  11.068  19.848  0.00  0.00    +0.000 A 
ATOM     19  C   UNL     1       0.948   9.866  19.537  0.00  0.00    +0.000 A 
ATOM     20  C   UNL     1       1.051   8.851  20.497  0.00  0.00    +0.000 A 
ATOM     21  C   UNL     1       0.512   9.072  21.776  0.00  0.00    +0.000 A 
BRANCH  16  23
ATOM     22  C   UNL     1      -1.786  11.476  23.292  0.00  0.00    +0.000 C 
ATOM     23  O   UNL     1      -0.681  10.574  23.308  0.00  0.00    +0.000 OA
ENDBRANCH  16  23
ENDBRANCH   1  20
TORSDOF 3
ENDMDL
