MODEL 1
REMARK VINA RESULT:      -8.4      0.000      0.000
REMARK  Name = 
REMARK  11 active torsions:
REMARK  status: ('A' for Active; 'I' for Inactive)
REMARK    1  A    between atoms: C_1  and  S_2
REMARK    2  A    between atoms: S_2  and  C_3
REMARK    3  A    between atoms: C_6  and  C_7
REMARK    4  A    between atoms: C_7  and  C_9
REMARK    5  A    between atoms: C_15  and  N_16
REMARK    6  A    between atoms: N_16  and  S_17
REMARK    7  A    between atoms: S_17  and  C_20
REMARK    8  A    between atoms: C_23  and  C_24
REMARK    9  A    between atoms: C_24  and  C_25
REMARK   10  A    between atoms: C_24  and  C_26
REMARK   11  A    between atoms: C_24  and  C_27
REMARK                            x       y       z     vdW  Elec       q    Type
REMARK                         _______ _______ _______ _____ _____    ______ ____
ROOT
ATOM      1  C   UNL     1       3.257   5.531  17.785  0.00  0.00    +0.000 A 
ATOM      2  C   UNL     1       2.080   4.853  18.164  0.00  0.00    +0.000 A 
ATOM      3  C   UNL     1       2.030   3.462  18.206  0.00  0.00    +0.000 A 
ATOM      4 CL   UNL     1       0.598   2.677  18.743  0.00  0.00    +0.000 Cl
ATOM      5  C   UNL     1       3.127   2.712  17.817  0.00  0.00    +0.000 A 
ATOM      6  C   UNL     1       4.273   3.364  17.367  0.00  0.00    +0.000 A 
ATOM      7  C   UNL     1       4.358   4.767  17.346  0.00  0.00    +0.000 A 
ENDROOT
BRANCH   1   8
ATOM      8  C   UNL     1       3.247   7.033  17.784  0.00  0.00    +0.000 C 
ATOM      9  O   UNL     1       3.978   7.644  17.011  0.00  0.00    +0.000 OA
BRANCH   8  13
ATOM     10  C   UNL     1       0.814   9.304  20.424  0.00  0.00    +0.000 A 
ATOM     11  C   UNL     1       0.868   9.694  19.089  0.00  0.00    +0.000 A 
ATOM     12  C   UNL     1       1.584   8.909  18.178  0.00  0.00    +0.000 A 
ATOM     13  C   UNL     1       2.266   7.780  18.631  0.00  0.00    +0.000 A 
ATOM     14  C   UNL     1       2.111   7.434  19.966  0.00  0.00    +0.000 A 
ATOM     15  N   UNL     1       1.406   8.175  20.871  0.00  0.00    +0.000 NA
BRANCH  10  17
ATOM     16  C   UNL     1       0.056   9.406  23.098  0.00  0.00    +0.000 C 
ATOM     17  S   UNL     1      -0.034  10.378  21.574  0.00  0.00    +0.000 S 
ENDBRANCH  10  17
ENDBRANCH   8  13
ENDBRANCH   1   8
BRANCH   7  18
ATOM     18  N   UNL     1       5.599   5.308  16.882  0.00  0.00    +0.000 N 
ATOM     19  H   UNL     1       5.553   6.273  16.529  0.00  0.00    +0.000 HD
BRANCH  18  20
ATOM     20  S   UNL     1       6.970   5.155  17.879  0.00  0.00    +0.000 S 
ATOM     21  O   UNL     1       6.512   4.683  19.165  0.00  0.00    +0.000 OA
ATOM     22  O   UNL     1       7.991   4.461  17.130  0.00  0.00    +0.000 OA
BRANCH  20  23
ATOM     23  C   UNL     1       7.504   6.844  18.103  0.00  0.00    +0.000 A 
ATOM     24  C   UNL     1       7.059   7.839  17.232  0.00  0.00    +0.000 A 
ATOM     25  C   UNL     1       7.587   9.132  17.333  0.00  0.00    +0.000 A 
ATOM     26  C   UNL     1       8.545   9.465  18.310  0.00  0.00    +0.000 A 
ATOM     27  C   UNL     1       8.936   8.447  19.204  0.00  0.00    +0.000 A 
ATOM     28  C   UNL     1       8.420   7.151  19.108  0.00  0.00    +0.000 A 
BRANCH  26  29
ATOM     29  C   UNL     1       9.149  10.878  18.439  0.00  0.00    +0.000 C 
ATOM     30  C   UNL     1       9.260  11.370  19.900  0.00  0.00    +0.000 C 
ATOM     31  C   UNL     1      10.571  10.887  17.839  0.00  0.00    +0.000 C 
ATOM     32  C   UNL     1       8.282  11.910  17.683  0.00  0.00    +0.000 C 
ENDBRANCH  26  29
ENDBRANCH  20  23
ENDBRANCH  18  20
ENDBRANCH   7  18
TORSDOF 7
ENDMDL
MODEL 2
REMARK VINA RESULT:      -8.3      0.553      1.044
REMARK  Name = 
REMARK  11 active torsions:
REMARK  status: ('A' for Active; 'I' for Inactive)
REMARK    1  A    between atoms: C_1  and  S_2
REMARK    2  A    between atoms: S_2  and  C_3
REMARK    3  A    between atoms: C_6  and  C_7
REMARK    4  A    between atoms: C_7  and  C_9
REMARK    5  A    between atoms: C_15  and  N_16
REMARK    6  A    between atoms: N_16  and  S_17
REMARK    7  A    between atoms: S_17  and  C_20
REMARK    8  A    between atoms: C_23  and  C_24
REMARK    9  A    between atoms: C_24  and  C_25
REMARK   10  A    between atoms: C_24  and  C_26
REMARK   11  A    between atoms: C_24  and  C_27
REMARK                            x       y       z     vdW  Elec       q    Type
REMARK                         _______ _______ _______ _____ _____    ______ ____
ROOT
ATOM      1  C   UNL     1       3.264   5.477  17.796  0.00  0.00    +0.000 A 
ATOM      2  C   UNL     1       2.093   4.837  18.251  0.00  0.00    +0.000 A 
ATOM      3  C   UNL     1       2.012   3.449  18.330  0.00  0.00    +0.000 A 
ATOM      4 CL   UNL     1       0.591   2.713  18.958  0.00  0.00    +0.000 Cl
ATOM      5  C   UNL     1       3.069   2.663  17.904  0.00  0.00    +0.000 A 
ATOM      6  C   UNL     1       4.206   3.276  17.382  0.00  0.00    +0.000 A 
ATOM      7  C   UNL     1       4.323   4.675  17.321  0.00  0.00    +0.000 A 
ENDROOT
BRANCH   1   8
ATOM      8  C   UNL     1       3.289   6.977  17.759  0.00  0.00    +0.000 C 
ATOM      9  O   UNL     1       4.043   7.552  16.980  0.00  0.00    +0.000 OA
BRANCH   8  13
ATOM     10  C   UNL     1       0.880   9.352  20.329  0.00  0.00    +0.000 A 
ATOM     11  C   UNL     1       1.003   9.747  19.001  0.00  0.00    +0.000 A 
ATOM     12  C   UNL     1       1.711   8.934  18.109  0.00  0.00    +0.000 A 
ATOM     13  C   UNL     1       2.318   7.768  18.577  0.00  0.00    +0.000 A 
ATOM     14  C   UNL     1       2.097   7.422  19.903  0.00  0.00    +0.000 A 
ATOM     15  N   UNL     1       1.398   8.191  20.788  0.00  0.00    +0.000 NA
BRANCH  10  17
ATOM     16  C   UNL     1      -1.072  11.334  20.334  0.00  0.00    +0.000 C 
ATOM     17  S   UNL     1       0.047  10.460  21.457  0.00  0.00    +0.000 S 
ENDBRANCH  10  17
ENDBRANCH   8  13
ENDBRANCH   1   8
BRANCH   7  18
ATOM     18  N   UNL     1       5.551   5.174  16.783  0.00  0.00    +0.000 N 
ATOM     19  H   UNL     1       5.514   6.138  16.424  0.00  0.00    +0.000 HD
BRANCH  18  20
ATOM     20  S   UNL     1       6.972   4.987  17.701  0.00  0.00    +0.000 S 
ATOM     21  O   UNL     1       6.584   4.442  18.981  0.00  0.00    +0.000 OA
ATOM     22  O   UNL     1       7.961   4.345  16.866  0.00  0.00    +0.000 OA
BRANCH  20  23
ATOM     23  C   UNL     1       7.500   6.668  17.986  0.00  0.00    +0.000 A 
ATOM     24  C   UNL     1       7.137   7.676  17.093  0.00  0.00    +0.000 A 
ATOM     25  C   UNL     1       7.666   8.963  17.251  0.00  0.00    +0.000 A 
ATOM     26  C   UNL     1       8.543   9.277  18.308  0.00  0.00    +0.000 A 
ATOM     27  C   UNL     1       8.850   8.246  19.219  0.00  0.00    +0.000 A 
ATOM     28  C   UNL     1       8.333   6.956  19.067  0.00  0.00    +0.000 A 
BRANCH  26  29
ATOM     29  C   UNL     1       9.146  10.683  18.501  0.00  0.00    +0.000 C 
ATOM     30  C   UNL     1      10.496  10.881  17.775  0.00  0.00    +0.000 C 
ATOM     31  C   UNL     1       8.167  11.743  17.952  0.00  0.00    +0.000 C 
ATOM     32  C   UNL     1       9.398  10.965  20.000  0.00  0.00    +0.000 C 
ENDBRANCH  26  29
ENDBRANCH  20  23
ENDBRANCH  18  20
ENDBRANCH   7  18
TORSDOF 7
ENDMDL
MODEL 3
REMARK VINA RESULT:      -8.3      1.047      1.634
REMARK  Name = 
REMARK  11 active torsions:
REMARK  status: ('A' for Active; 'I' for Inactive)
REMARK    1  A    between atoms: C_1  and  S_2
REMARK    2  A    between atoms: S_2  and  C_3
REMARK    3  A    between atoms: C_6  and  C_7
REMARK    4  A    between atoms: C_7  and  C_9
REMARK    5  A    between atoms: C_15  and  N_16
REMARK    6  A    between atoms: N_16  and  S_17
REMARK    7  A    between atoms: S_17  and  C_20
REMARK    8  A    between atoms: C_23  and  C_24
REMARK    9  A    between atoms: C_24  and  C_25
REMARK   10  A    between atoms: C_24  and  C_26
REMARK   11  A    between atoms: C_24  and  C_27
REMARK                            x       y       z     vdW  Elec       q    Type
REMARK                         _______ _______ _______ _____ _____    ______ ____
ROOT
ATOM      1  C   UNL     1       3.264   5.415  18.577  0.00  0.00    +0.000 A 
ATOM      2  C   UNL     1       2.122   4.609  18.390  0.00  0.00    +0.000 A 
ATOM      3  C   UNL     1       2.111   3.271  18.774  0.00  0.00    +0.000 A 
ATOM      4 CL   UNL     1       0.674   2.345  18.594  0.00  0.00    +0.000 Cl
ATOM      5  C   UNL     1       3.251   2.686  19.297  0.00  0.00    +0.000 A 
ATOM      6  C   UNL     1       4.412   3.446  19.419  0.00  0.00    +0.000 A 
ATOM      7  C   UNL     1       4.438   4.806  19.068  0.00  0.00    +0.000 A 
ENDROOT
BRANCH   1   8
ATOM      8  C   UNL     1       3.197   6.856  18.161  0.00  0.00    +0.000 C 
ATOM      9  O   UNL     1       3.875   7.246  17.215  0.00  0.00    +0.000 OA
BRANCH   8  13
ATOM     10  C   UNL     1       0.778   9.650  20.256  0.00  0.00    +0.000 A 
ATOM     11  C   UNL     1       0.959   9.839  18.889  0.00  0.00    +0.000 A 
ATOM     12  C   UNL     1       1.671   8.883  18.156  0.00  0.00    +0.000 A 
ATOM     13  C   UNL     1       2.224   7.785  18.815  0.00  0.00    +0.000 A 
ATOM     14  C   UNL     1       1.946   7.646  20.167  0.00  0.00    +0.000 A 
ATOM     15  N   UNL     1       1.242   8.557  20.901  0.00  0.00    +0.000 NA
BRANCH  10  17
ATOM     16  C   UNL     1       0.867  12.401  20.653  0.00  0.00    +0.000 C 
ATOM     17  S   UNL     1      -0.059  10.935  21.174  0.00  0.00    +0.000 S 
ENDBRANCH  10  17
ENDBRANCH   8  13
ENDBRANCH   1   8
BRANCH   7  18
ATOM     18  N   UNL     1       5.688   5.476  19.264  0.00  0.00    +0.000 N 
ATOM     19  H   UNL     1       6.153   5.285  20.161  0.00  0.00    +0.000 HD
BRANCH  18  20
ATOM     20  S   UNL     1       6.847   5.401  18.020  0.00  0.00    +0.000 S 
ATOM     21  O   UNL     1       7.848   4.442  18.425  0.00  0.00    +0.000 OA
ATOM     22  O   UNL     1       6.145   5.288  16.763  0.00  0.00    +0.000 OA
BRANCH  20  23
ATOM     23  C   UNL     1       7.614   7.013  18.078  0.00  0.00    +0.000 A 
ATOM     24  C   UNL     1       8.518   7.321  19.095  0.00  0.00    +0.000 A 
ATOM     25  C   UNL     1       9.010   8.627  19.210  0.00  0.00    +0.000 A 
ATOM     26  C   UNL     1       8.634   9.641  18.307  0.00  0.00    +0.000 A 
ATOM     27  C   UNL     1       7.757   9.281  17.263  0.00  0.00    +0.000 A 
ATOM     28  C   UNL     1       7.254   7.983  17.143  0.00  0.00    +0.000 A 
BRANCH  26  29
ATOM     29  C   UNL     1       9.155  11.088  18.414  0.00  0.00    +0.000 C 
ATOM     30  C   UNL     1      10.557  11.286  17.796  0.00  0.00    +0.000 C 
ATOM     31  C   UNL     1       8.187  12.039  17.678  0.00  0.00    +0.000 C 
ATOM     32  C   UNL     1       9.252  11.522  19.894  0.00  0.00    +0.000 C 
ENDBRANCH  26  29
ENDBRANCH  20  23
ENDBRANCH  18  20
ENDBRANCH   7  18
TORSDOF 7
ENDMDL
MODEL 4
REMARK VINA RESULT:      -8.1      5.149      8.127
REMARK  Name = 
REMARK  11 active torsions:
REMARK  status: ('A' for Active; 'I' for Inactive)
REMARK    1  A    between atoms: C_1  and  S_2
REMARK    2  A    between atoms: S_2  and  C_3
REMARK    3  A    between atoms: C_6  and  C_7
REMARK    4  A    between atoms: C_7  and  C_9
REMARK    5  A    between atoms: C_15  and  N_16
REMARK    6  A    between atoms: N_16  and  S_17
REMARK    7  A    between atoms: S_17  and  C_20
REMARK    8  A    between atoms: C_23  and  C_24
REMARK    9  A    between atoms: C_24  and  C_25
REMARK   10  A    between atoms: C_24  and  C_26
REMARK   11  A    between atoms: C_24  and  C_27
REMARK                            x       y       z     vdW  Elec       q    Type
REMARK                         _______ _______ _______ _____ _____    ______ ____
ROOT
ATOM      1  C   UNL     1      -1.243  11.676  20.205  0.00  0.00    +0.000 A 
ATOM      2  C   UNL     1      -2.407  12.008  19.482  0.00  0.00    +0.000 A 
ATOM      3  C   UNL     1      -2.732  11.353  18.296  0.00  0.00    +0.000 A 
ATOM      4 CL   UNL     1      -4.197  11.739  17.484  0.00  0.00    +0.000 Cl
ATOM      5  C   UNL     1      -1.880  10.397  17.771  0.00  0.00    +0.000 A 
ATOM      6  C   UNL     1      -0.689  10.109  18.433  0.00  0.00    +0.000 A 
ATOM      7  C   UNL     1      -0.355  10.734  19.647  0.00  0.00    +0.000 A 
ENDROOT
BRANCH   1   8
ATOM      8  C   UNL     1      -0.967  12.406  21.487  0.00  0.00    +0.000 C 
ATOM      9  O   UNL     1       0.191  12.537  21.873  0.00  0.00    +0.000 OA
BRANCH   8  13
ATOM     10  C   UNL     1      -4.322  14.378  23.192  0.00  0.00    +0.000 A 
ATOM     11  C   UNL     1      -4.158  13.022  23.458  0.00  0.00    +0.000 A 
ATOM     12  C   UNL     1      -3.013  12.369  22.990  0.00  0.00    +0.000 A 
ATOM     13  C   UNL     1      -2.081  13.075  22.228  0.00  0.00    +0.000 A 
ATOM     14  C   UNL     1      -2.296  14.436  22.060  0.00  0.00    +0.000 A 
ATOM     15  N   UNL     1      -3.398  15.099  22.519  0.00  0.00    +0.000 NA
BRANCH  10  17
ATOM     16  C   UNL     1      -5.206  16.661  24.514  0.00  0.00    +0.000 C 
ATOM     17  S   UNL     1      -5.838  15.157  23.728  0.00  0.00    +0.000 S 
ENDBRANCH  10  17
ENDBRANCH   8  13
ENDBRANCH   1   8
BRANCH   7  18
ATOM     18  N   UNL     1       0.888  10.331  20.232  0.00  0.00    +0.000 N 
ATOM     19  H   UNL     1       1.435  11.087  20.664  0.00  0.00    +0.000 HD
BRANCH  18  20
ATOM     20  S   UNL     1       0.891   8.988  21.277  0.00  0.00    +0.000 S 
ATOM     21  O   UNL     1       1.822   9.278  22.343  0.00  0.00    +0.000 OA
ATOM     22  O   UNL     1      -0.482   8.625  21.541  0.00  0.00    +0.000 OA
BRANCH  20  23
ATOM     23  C   UNL     1       1.620   7.697  20.283  0.00  0.00    +0.000 A 
ATOM     24  C   UNL     1       1.697   6.394  20.775  0.00  0.00    +0.000 A 
ATOM     25  C   UNL     1       2.390   5.419  20.046  0.00  0.00    +0.000 A 
ATOM     26  C   UNL     1       2.995   5.713  18.808  0.00  0.00    +0.000 A 
ATOM     27  C   UNL     1       2.855   7.028  18.318  0.00  0.00    +0.000 A 
ATOM     28  C   UNL     1       2.172   8.011  19.041  0.00  0.00    +0.000 A 
BRANCH  26  29
ATOM     29  C   UNL     1       3.769   4.662  17.988  0.00  0.00    +0.000 C 
ATOM     30  C   UNL     1       4.762   3.831  18.831  0.00  0.00    +0.000 C 
ATOM     31  C   UNL     1       2.771   3.675  17.345  0.00  0.00    +0.000 C 
ATOM     32  C   UNL     1       4.589   5.343  16.869  0.00  0.00    +0.000 C 
ENDBRANCH  26  29
ENDBRANCH  20  23
ENDBRANCH  18  20
ENDBRANCH   7  18
TORSDOF 7
ENDMDL
MODEL 5
REMARK VINA RESULT:      -8.1      5.282      8.082
REMARK  Name = 
REMARK  11 active torsions:
REMARK  status: ('A' for Active; 'I' for Inactive)
REMARK    1  A    between atoms: C_1  and  S_2
REMARK    2  A    between atoms: S_2  and  C_3
REMARK    3  A    between atoms: C_6  and  C_7
REMARK    4  A    between atoms: C_7  and  C_9
REMARK    5  A    between atoms: C_15  and  N_16
REMARK    6  A    between atoms: N_16  and  S_17
REMARK    7  A    between atoms: S_17  and  C_20
REMARK    8  A    between atoms: C_23  and  C_24
REMARK    9  A    between atoms: C_24  and  C_25
REMARK   10  A    between atoms: C_24  and  C_26
REMARK   11  A    between atoms: C_24  and  C_27
REMARK                            x       y       z     vdW  Elec       q    Type
REMARK                         _______ _______ _______ _____ _____    ______ ____
ROOT
ATOM      1  C   UNL     1      -1.328  11.726  19.694  0.00  0.00    +0.000 A 
ATOM      2  C   UNL     1      -2.490  11.979  18.936  0.00  0.00    +0.000 A 
ATOM      3  C   UNL     1      -2.801  11.214  17.814  0.00  0.00    +0.000 A 
ATOM      4 CL   UNL     1      -4.264  11.510  16.961  0.00  0.00    +0.000 Cl
ATOM      5  C   UNL     1      -1.938  10.220  17.386  0.00  0.00    +0.000 A 
ATOM      6  C   UNL     1      -0.748  10.006  18.078  0.00  0.00    +0.000 A 
ATOM      7  C   UNL     1      -0.428  10.744  19.231  0.00  0.00    +0.000 A 
ENDROOT
BRANCH   1   8
ATOM      8  C   UNL     1      -1.068  12.574  20.905  0.00  0.00    +0.000 C 
ATOM      9  O   UNL     1       0.071  12.971  21.133  0.00  0.00    +0.000 OA
BRANCH   8  13
ATOM     10  C   UNL     1      -4.554  13.852  22.970  0.00  0.00    +0.000 A 
ATOM     11  C   UNL     1      -3.993  12.630  23.330  0.00  0.00    +0.000 A 
ATOM     12  C   UNL     1      -2.792  12.229  22.735  0.00  0.00    +0.000 A 
ATOM     13  C   UNL     1      -2.204  13.036  21.760  0.00  0.00    +0.000 A 
ATOM     14  C   UNL     1      -2.802  14.263  21.504  0.00  0.00    +0.000 A 
ATOM     15  N   UNL     1      -3.965  14.683  22.082  0.00  0.00    +0.000 NA
BRANCH  10  17
ATOM     16  C   UNL     1      -6.861  12.655  23.960  0.00  0.00    +0.000 C 
ATOM     17  S   UNL     1      -6.133  14.289  23.684  0.00  0.00    +0.000 S 
ENDBRANCH  10  17
ENDBRANCH   8  13
ENDBRANCH   1   8
BRANCH   7  18
ATOM     18  N   UNL     1       0.813  10.409  19.859  0.00  0.00    +0.000 N 
ATOM     19  H   UNL     1       1.359  11.208  20.209  0.00  0.00    +0.000 HD
BRANCH  18  20
ATOM     20  S   UNL     1       0.816   9.185  21.043  0.00  0.00    +0.000 S 
ATOM     21  O   UNL     1       1.674   9.630  22.115  0.00  0.00    +0.000 OA
ATOM     22  O   UNL     1      -0.553   8.787  21.275  0.00  0.00    +0.000 OA
BRANCH  20  23
ATOM     23  C   UNL     1       1.652   7.832  20.231  0.00  0.00    +0.000 A 
ATOM     24  C   UNL     1       2.242   8.024  18.981  0.00  0.00    +0.000 A 
ATOM     25  C   UNL     1       2.776   6.927  18.293  0.00  0.00    +0.000 A 
ATOM     26  C   UNL     1       2.755   5.630  18.842  0.00  0.00    +0.000 A 
ATOM     27  C   UNL     1       2.195   5.482  20.128  0.00  0.00    +0.000 A 
ATOM     28  C   UNL     1       1.653   6.568  20.820  0.00  0.00    +0.000 A 
BRANCH  26  29
ATOM     29  C   UNL     1       3.330   4.403  18.105  0.00  0.00    +0.000 C 
ATOM     30  C   UNL     1       4.176   3.480  19.010  0.00  0.00    +0.000 C 
ATOM     31  C   UNL     1       2.172   3.556  17.535  0.00  0.00    +0.000 C 
ATOM     32  C   UNL     1       4.242   4.848  16.939  0.00  0.00    +0.000 C 
ENDBRANCH  26  29
ENDBRANCH  20  23
ENDBRANCH  18  20
ENDBRANCH   7  18
TORSDOF 7
ENDMDL
MODEL 6
REMARK VINA RESULT:      -8.0      5.121      7.830
REMARK  Name = 
REMARK  11 active torsions:
REMARK  status: ('A' for Active; 'I' for Inactive)
REMARK    1  A    between atoms: C_1  and  S_2
REMARK    2  A    between atoms: S_2  and  C_3
REMARK    3  A    between atoms: C_6  and  C_7
REMARK    4  A    between atoms: C_7  and  C_9
REMARK    5  A    between atoms: C_15  and  N_16
REMARK    6  A    between atoms: N_16  and  S_17
REMARK    7  A    between atoms: S_17  and  C_20
REMARK    8  A    between atoms: C_23  and  C_24
REMARK    9  A    between atoms: C_24  and  C_25
REMARK   10  A    between atoms: C_24  and  C_26
REMARK   11  A    between atoms: C_24  and  C_27
REMARK                            x       y       z     vdW  Elec       q    Type
REMARK                         _______ _______ _______ _____ _____    ______ ____
ROOT
ATOM      1  C   UNL     1      -2.114  11.854  18.684  0.00  0.00    +0.000 A 
ATOM      2  C   UNL     1      -3.512  11.996  18.556  0.00  0.00    +0.000 A 
ATOM      3  C   UNL     1      -4.290  10.995  17.982  0.00  0.00    +0.000 A 
ATOM      4 CL   UNL     1      -5.998  11.179  17.911  0.00  0.00    +0.000 Cl
ATOM      5  C   UNL     1      -3.694   9.856  17.468  0.00  0.00    +0.000 A 
ATOM      6  C   UNL     1      -2.308   9.732  17.517  0.00  0.00    +0.000 A 
ATOM      7  C   UNL     1      -1.504  10.714  18.120  0.00  0.00    +0.000 A 
ENDROOT
BRANCH   1   8
ATOM      8  C   UNL     1      -1.340  12.964  19.334  0.00  0.00    +0.000 C 
ATOM      9  O   UNL     1      -0.553  13.627  18.666  0.00  0.00    +0.000 OA
BRANCH   8  13
ATOM     10  C   UNL     1      -2.533  14.128  23.242  0.00  0.00    +0.000 A 
ATOM     11  C   UNL     1      -2.213  12.791  23.029  0.00  0.00    +0.000 A 
ATOM     12  C   UNL     1      -1.726  12.397  21.778  0.00  0.00    +0.000 A 
ATOM     13  C   UNL     1      -1.613  13.340  20.756  0.00  0.00    +0.000 A 
ATOM     14  C   UNL     1      -1.901  14.660  21.073  0.00  0.00    +0.000 A 
ATOM     15  N   UNL     1      -2.364  15.072  22.289  0.00  0.00    +0.000 NA
BRANCH  10  17
ATOM     16  C   UNL     1      -1.863  15.482  25.577  0.00  0.00    +0.000 C 
ATOM     17  S   UNL     1      -3.237  14.578  24.822  0.00  0.00    +0.000 S 
ENDBRANCH  10  17
ENDBRANCH   8  13
ENDBRANCH   1   8
BRANCH   7  18
ATOM     18  N   UNL     1      -0.097  10.453  18.122  0.00  0.00    +0.000 N 
ATOM     19  H   UNL     1       0.483  11.163  17.655  0.00  0.00    +0.000 HD
BRANCH  18  20
ATOM     20  S   UNL     1       0.642  10.024  19.594  0.00  0.00    +0.000 S 
ATOM     21  O   UNL     1       1.467  11.139  19.998  0.00  0.00    +0.000 OA
ATOM     22  O   UNL     1      -0.374   9.472  20.459  0.00  0.00    +0.000 OA
BRANCH  20  23
ATOM     23  C   UNL     1       1.745   8.700  19.127  0.00  0.00    +0.000 A 
ATOM     24  C   UNL     1       2.382   8.724  17.886  0.00  0.00    +0.000 A 
ATOM     25  C   UNL     1       3.137   7.619  17.475  0.00  0.00    +0.000 A 
ATOM     26  C   UNL     1       3.293   6.483  18.294  0.00  0.00    +0.000 A 
ATOM     27  C   UNL     1       2.675   6.514  19.562  0.00  0.00    +0.000 A 
ATOM     28  C   UNL     1       1.914   7.609  19.980  0.00  0.00    +0.000 A 
BRANCH  26  29
ATOM     29  C   UNL     1       4.112   5.250  17.864  0.00  0.00    +0.000 C 
ATOM     30  C   UNL     1       3.248   3.998  17.597  0.00  0.00    +0.000 C 
ATOM     31  C   UNL     1       4.877   5.570  16.561  0.00  0.00    +0.000 C 
ATOM     32  C   UNL     1       5.132   4.866  18.960  0.00  0.00    +0.000 C 
ENDBRANCH  26  29
ENDBRANCH  20  23
ENDBRANCH  18  20
ENDBRANCH   7  18
TORSDOF 7
ENDMDL
MODEL 7
REMARK VINA RESULT:      -7.9      5.097      7.723
REMARK  Name = 
REMARK  11 active torsions:
REMARK  status: ('A' for Active; 'I' for Inactive)
REMARK    1  A    between atoms: C_1  and  S_2
REMARK    2  A    between atoms: S_2  and  C_3
REMARK    3  A    between atoms: C_6  and  C_7
REMARK    4  A    between atoms: C_7  and  C_9
REMARK    5  A    between atoms: C_15  and  N_16
REMARK    6  A    between atoms: N_16  and  S_17
REMARK    7  A    between atoms: S_17  and  C_20
REMARK    8  A    between atoms: C_23  and  C_24
REMARK    9  A    between atoms: C_24  and  C_25
REMARK   10  A    between atoms: C_24  and  C_26
REMARK   11  A    between atoms: C_24  and  C_27
REMARK                            x       y       z     vdW  Elec       q    Type
REMARK                         _______ _______ _______ _____ _____    ______ ____
ROOT
ATOM      1  C   UNL     1      -1.996  11.828  18.542  0.00  0.00    +0.000 A 
ATOM      2  C   UNL     1      -3.382  11.986  18.335  0.00  0.00    +0.000 A 
ATOM      3  C   UNL     1      -4.128  11.014  17.673  0.00  0.00    +0.000 A 
ATOM      4 CL   UNL     1      -5.828  11.213  17.505  0.00  0.00    +0.000 Cl
ATOM      5  C   UNL     1      -3.507   9.893  17.150  0.00  0.00    +0.000 A 
ATOM      6  C   UNL     1      -2.127   9.757  17.278  0.00  0.00    +0.000 A 
ATOM      7  C   UNL     1      -1.358  10.708  17.970  0.00  0.00    +0.000 A 
ENDROOT
BRANCH   1   8
ATOM      8  C   UNL     1      -1.259  12.905  19.284  0.00  0.00    +0.000 C 
ATOM      9  O   UNL     1      -0.414  13.575  18.698  0.00  0.00    +0.000 OA
BRANCH   8  13
ATOM     10  C   UNL     1      -2.750  13.814  23.157  0.00  0.00    +0.000 A 
ATOM     11  C   UNL     1      -2.024  12.637  22.997  0.00  0.00    +0.000 A 
ATOM     12  C   UNL     1      -1.439  12.360  21.756  0.00  0.00    +0.000 A 
ATOM     13  C   UNL     1      -1.633  13.241  20.692  0.00  0.00    +0.000 A 
ATOM     14  C   UNL     1      -2.323  14.417  20.956  0.00  0.00    +0.000 A 
ATOM     15  N   UNL     1      -2.890  14.717  22.161  0.00  0.00    +0.000 NA
BRANCH  10  17
ATOM     16  C   UNL     1      -4.457  12.536  24.942  0.00  0.00    +0.000 C 
ATOM     17  S   UNL     1      -3.556  14.091  24.728  0.00  0.00    +0.000 S 
ENDBRANCH  10  17
ENDBRANCH   8  13
ENDBRANCH   1   8
BRANCH   7  18
ATOM     18  N   UNL     1       0.046  10.437  18.047  0.00  0.00    +0.000 N 
ATOM     19  H   UNL     1       0.657  11.166  17.656  0.00  0.00    +0.000 HD
BRANCH  18  20
ATOM     20  S   UNL     1       0.688   9.926  19.539  0.00  0.00    +0.000 S 
ATOM     21  O   UNL     1       1.503  11.006  20.044  0.00  0.00    +0.000 OA
ATOM     22  O   UNL     1      -0.387   9.353  20.314  0.00  0.00    +0.000 OA
BRANCH  20  23
ATOM     23  C   UNL     1       1.798   8.606  19.076  0.00  0.00    +0.000 A 
ATOM     24  C   UNL     1       2.424   8.623  17.829  0.00  0.00    +0.000 A 
ATOM     25  C   UNL     1       3.184   7.520  17.422  0.00  0.00    +0.000 A 
ATOM     26  C   UNL     1       3.355   6.394  18.252  0.00  0.00    +0.000 A 
ATOM     27  C   UNL     1       2.748   6.432  19.524  0.00  0.00    +0.000 A 
ATOM     28  C   UNL     1       1.981   7.525  19.938  0.00  0.00    +0.000 A 
BRANCH  26  29
ATOM     29  C   UNL     1       4.181   5.163  17.827  0.00  0.00    +0.000 C 
ATOM     30  C   UNL     1       5.184   4.692  18.904  0.00  0.00    +0.000 C 
ATOM     31  C   UNL     1       3.231   3.983  17.533  0.00  0.00    +0.000 C 
ATOM     32  C   UNL     1       5.002   5.472  16.554  0.00  0.00    +0.000 C 
ENDBRANCH  26  29
ENDBRANCH  20  23
ENDBRANCH  18  20
ENDBRANCH   7  18
TORSDOF 7
ENDMDL
MODEL 8
REMARK VINA RESULT:      -7.9      5.253      8.101
REMARK  Name = 
REMARK  11 active torsions:
REMARK  status: ('A' for Active; 'I' for Inactive)
REMARK    1  A    between atoms: C_1  and  S_2
REMARK    2  A    between atoms: S_2  and  C_3
REMARK    3  A    between atoms: C_6  and  C_7
REMARK    4  A    between atoms: C_7  and  C_9
REMARK    5  A    between atoms: C_15  and  N_16
REMARK    6  A    between atoms: N_16  and  S_17
REMARK    7  A    between atoms: S_17  and  C_20
REMARK    8  A    between atoms: C_23  and  C_24
REMARK    9  A    between atoms: C_24  and  C_25
REMARK   10  A    between atoms: C_24  and  C_26
REMARK   11  A    between atoms: C_24  and  C_27
REMARK                            x       y       z     vdW  Elec       q    Type
REMARK                         _______ _______ _______ _____ _____    ______ ____
ROOT
ATOM      1  C   UNL     1      -1.440  11.599  19.733  0.00  0.00    +0.000 A 
ATOM      2  C   UNL     1      -2.561  11.813  18.904  0.00  0.00    +0.000 A 
ATOM      3  C   UNL     1      -2.753  11.070  17.743  0.00  0.00    +0.000 A 
ATOM      4 CL   UNL     1      -4.169  11.313  16.800  0.00  0.00    +0.000 Cl
ATOM      5  C   UNL     1      -1.807  10.140  17.345  0.00  0.00    +0.000 A 
ATOM      6  C   UNL     1      -0.657   9.968  18.111  0.00  0.00    +0.000 A 
ATOM      7  C   UNL     1      -0.457  10.683  19.304  0.00  0.00    +0.000 A 
ENDROOT
BRANCH   1   8
ATOM      8  C   UNL     1      -1.310  12.420  20.983  0.00  0.00    +0.000 C 
ATOM      9  O   UNL     1      -0.213  12.534  21.522  0.00  0.00    +0.000 OA
BRANCH   8  13
ATOM     10  C   UNL     1      -4.418  14.635  22.850  0.00  0.00    +0.000 A 
ATOM     11  C   UNL     1      -3.702  15.250  21.827  0.00  0.00    +0.000 A 
ATOM     12  C   UNL     1      -2.739  14.513  21.130  0.00  0.00    +0.000 A 
ATOM     13  C   UNL     1      -2.480  13.193  21.503  0.00  0.00    +0.000 A 
ATOM     14  C   UNL     1      -3.279  12.643  22.496  0.00  0.00    +0.000 A 
ATOM     15  N   UNL     1      -4.235  13.337  23.180  0.00  0.00    +0.000 NA
BRANCH  10  17
ATOM     16  C   UNL     1      -4.459  16.549  24.868  0.00  0.00    +0.000 C 
ATOM     17  S   UNL     1      -5.576  15.633  23.776  0.00  0.00    +0.000 S 
ENDBRANCH  10  17
ENDBRANCH   8  13
ENDBRANCH   1   8
BRANCH   7  18
ATOM     18  N   UNL     1       0.757  10.396  20.006  0.00  0.00    +0.000 N 
ATOM     19  H   UNL     1       1.225  11.210  20.426  0.00  0.00    +0.000 HD
BRANCH  18  20
ATOM     20  S   UNL     1       0.755   9.124  21.137  0.00  0.00    +0.000 S 
ATOM     21  O   UNL     1       1.582   9.537  22.247  0.00  0.00    +0.000 OA
ATOM     22  O   UNL     1      -0.612   8.695  21.323  0.00  0.00    +0.000 OA
BRANCH  20  23
ATOM     23  C   UNL     1       1.630   7.820  20.289  0.00  0.00    +0.000 A 
ATOM     24  C   UNL     1       2.213   8.063  19.045  0.00  0.00    +0.000 A 
ATOM     25  C   UNL     1       2.779   7.002  18.327  0.00  0.00    +0.000 A 
ATOM     26  C   UNL     1       2.799   5.691  18.840  0.00  0.00    +0.000 A 
ATOM     27  C   UNL     1       2.244   5.491  20.122  0.00  0.00    +0.000 A 
ATOM     28  C   UNL     1       1.670   6.541  20.843  0.00  0.00    +0.000 A 
BRANCH  26  29
ATOM     29  C   UNL     1       3.409   4.503  18.070  0.00  0.00    +0.000 C 
ATOM     30  C   UNL     1       4.233   3.547  18.962  0.00  0.00    +0.000 C 
ATOM     31  C   UNL     1       2.279   3.672  17.425  0.00  0.00    +0.000 C 
ATOM     32  C   UNL     1       4.356   5.006  16.957  0.00  0.00    +0.000 C 
ENDBRANCH  26  29
ENDBRANCH  20  23
ENDBRANCH  18  20
ENDBRANCH   7  18
TORSDOF 7
ENDMDL
MODEL 9
REMARK VINA RESULT:      -7.8      5.394      8.240
REMARK  Name = 
REMARK  11 active torsions:
REMARK  status: ('A' for Active; 'I' for Inactive)
REMARK    1  A    between atoms: C_1  and  S_2
REMARK    2  A    between atoms: S_2  and  C_3
REMARK    3  A    between atoms: C_6  and  C_7
REMARK    4  A    between atoms: C_7  and  C_9
REMARK    5  A    between atoms: C_15  and  N_16
REMARK    6  A    between atoms: N_16  and  S_17
REMARK    7  A    between atoms: S_17  and  C_20
REMARK    8  A    between atoms: C_23  and  C_24
REMARK    9  A    between atoms: C_24  and  C_25
REMARK   10  A    between atoms: C_24  and  C_26
REMARK   11  A    between atoms: C_24  and  C_27
REMARK                            x       y       z     vdW  Elec       q    Type
REMARK                         _______ _______ _______ _____ _____    ______ ____
ROOT
ATOM      1  C   UNL     1       0.116  12.386  20.714  0.00  0.00    +0.000 A 
ATOM      2  C   UNL     1       0.735  13.642  20.544  0.00  0.00    +0.000 A 
ATOM      3  C   UNL     1       1.643  13.866  19.513  0.00  0.00    +0.000 A 
ATOM      4 CL   UNL     1       2.320  15.432  19.298  0.00  0.00    +0.000 Cl
ATOM      5  C   UNL     1       2.003  12.834  18.664  0.00  0.00    +0.000 A 
ATOM      6  C   UNL     1       1.459  11.567  18.863  0.00  0.00    +0.000 A 
ATOM      7  C   UNL     1       0.517  11.325  19.877  0.00  0.00    +0.000 A 
ENDROOT
BRANCH   1   8
ATOM      8  C   UNL     1      -0.871  12.223  21.834  0.00  0.00    +0.000 C 
ATOM      9  O   UNL     1      -0.468  12.144  22.990  0.00  0.00    +0.000 OA
BRANCH   8  13
ATOM     10  C   UNL     1      -5.039  12.786  21.233  0.00  0.00    +0.000 A 
ATOM     11  C   UNL     1      -4.222  12.714  20.109  0.00  0.00    +0.000 A 
ATOM     12  C   UNL     1      -2.861  12.433  20.272  0.00  0.00    +0.000 A 
ATOM     13  C   UNL     1      -2.340  12.278  21.557  0.00  0.00    +0.000 A 
ATOM     14  C   UNL     1      -3.236  12.310  22.616  0.00  0.00    +0.000 A 
ATOM     15  N   UNL     1      -4.570  12.568  22.482  0.00  0.00    +0.000 NA
BRANCH  10  17
ATOM     16  C   UNL     1      -7.461  11.656  20.463  0.00  0.00    +0.000 C 
ATOM     17  S   UNL     1      -6.752  13.235  20.993  0.00  0.00    +0.000 S 
ENDBRANCH  10  17
ENDBRANCH   8  13
ENDBRANCH   1   8
BRANCH   7  18
ATOM     18  N   UNL     1       0.021   9.984  19.959  0.00  0.00    +0.000 N 
ATOM     19  H   UNL     1       0.037   9.455  19.077  0.00  0.00    +0.000 HD
BRANCH  18  20
ATOM     20  S   UNL     1       0.602   8.984  21.207  0.00  0.00    +0.000 S 
ATOM     21  O   UNL     1       1.551   9.760  21.971  0.00  0.00    +0.000 OA
ATOM     22  O   UNL     1      -0.533   8.340  21.827  0.00  0.00    +0.000 OA
BRANCH  20  23
ATOM     23  C   UNL     1       1.532   7.736  20.332  0.00  0.00    +0.000 A 
ATOM     24  C   UNL     1       2.082   8.022  19.082  0.00  0.00    +0.000 A 
ATOM     25  C   UNL     1       2.693   6.999  18.345  0.00  0.00    +0.000 A 
ATOM     26  C   UNL     1       2.789   5.685  18.844  0.00  0.00    +0.000 A 
ATOM     27  C   UNL     1       2.266   5.444  20.132  0.00  0.00    +0.000 A 
ATOM     28  C   UNL     1       1.648   6.455  20.872  0.00  0.00    +0.000 A 
BRANCH  26  29
ATOM     29  C   UNL     1       3.450   4.539  18.052  0.00  0.00    +0.000 C 
ATOM     30  C   UNL     1       4.360   3.637  18.916  0.00  0.00    +0.000 C 
ATOM     31  C   UNL     1       2.355   3.638  17.441  0.00  0.00    +0.000 C 
ATOM     32  C   UNL     1       4.327   5.102  16.912  0.00  0.00    +0.000 C 
ENDBRANCH  26  29
ENDBRANCH  20  23
ENDBRANCH  18  20
ENDBRANCH   7  18
TORSDOF 7
ENDMDL
