MODEL 1
REMARK VINA RESULT:      -8.7      0.000      0.000
REMARK  Name = 
REMARK  9 active torsions:
REMARK  status: ('A' for Active; 'I' for Inactive)
REMARK    1  A    between atoms: C_1  and  C_2
REMARK    2  A    between atoms: C_4  and  O_5
REMARK    3  A    between atoms: C_8  and  N_9
REMARK    4  A    between atoms: C_10  and  C_11
REMARK    5  A    between atoms: C_11  and  C_12
REMARK    6  A    between atoms: C_12  and  C_13
REMARK    7  A    between atoms: C_13  and  O_15
REMARK    8  A    between atoms: C_18  and  C_19
REMARK    9  A    between atoms: C_22  and  N_23
REMARK                            x       y       z     vdW  Elec       q    Type
REMARK                         _______ _______ _______ _____ _____    ______ ____
ROOT
ATOM      1  N   UNL     1       3.592   5.131  19.113  0.00  0.00    +0.000 N 
ATOM      2  C   UNL     1       3.390   3.907  19.861  0.00  0.00    +0.000 A 
ATOM      3  C   UNL     1       2.220   3.997  20.583  0.00  0.00    +0.000 A 
ATOM      4  C   UNL     1       1.729   5.287  20.458  0.00  0.00    +0.000 A 
ATOM      5  C   UNL     1       2.566   6.050  19.648  0.00  0.00    +0.000 A 
ENDROOT
BRANCH   1  12
ATOM      6  C   UNL     1       6.700   5.505  19.558  0.00  0.00    +0.000 C 
ATOM      7  C   UNL     1       6.039   5.441  18.245  0.00  0.00    +0.000 A 
ATOM      8  C   UNL     1       6.994   5.408  17.189  0.00  0.00    +0.000 A 
ATOM      9  C   UNL     1       6.611   5.321  15.876  0.00  0.00    +0.000 A 
ATOM     10  C   UNL     1       5.272   5.326  15.595  0.00  0.00    +0.000 A 
ATOM     11  C   UNL     1       4.324   5.311  16.648  0.00  0.00    +0.000 A 
ATOM     12  C   UNL     1       4.652   5.297  18.029  0.00  0.00    +0.000 A 
BRANCH   9  13
ATOM     13  O   UNL     1       7.521   5.221  14.876  0.00  0.00    +0.000 OA
ATOM     14  H   UNL     1       7.514   4.306  14.546  0.00  0.00    +0.000 HD
ENDBRANCH   9  13
ENDBRANCH   1  12
BRANCH   5  15
ATOM     15  C   UNL     1       2.235   7.511  19.449  0.00  0.00    +0.000 A 
ATOM     16  C   UNL     1       2.499   8.233  18.281  0.00  0.00    +0.000 A 
ATOM     17  C   UNL     1       1.787   9.433  18.013  0.00  0.00    +0.000 A 
ATOM     18  C   UNL     1       1.020  10.060  19.003  0.00  0.00    +0.000 A 
ATOM     19  C   UNL     1       1.053   9.519  20.288  0.00  0.00    +0.000 A 
ATOM     20  C   UNL     1       1.624   8.243  20.493  0.00  0.00    +0.000 A 
BRANCH  18  21
ATOM     21  N   UNL     1       0.231  11.210  18.700  0.00  0.00    +0.000 N 
ATOM     22  C   UNL     1       0.625  12.530  18.758  0.00  0.00    +0.000 A 
ATOM     23  C   UNL     1      -0.492  13.280  18.472  0.00  0.00    +0.000 A 
ATOM     24  N   UNL     1      -1.553  12.474  18.170  0.00  0.00    +0.000 NA
ATOM     25  C   UNL     1      -1.085  11.255  18.284  0.00  0.00    +0.000 A 
ENDBRANCH  18  21
ENDBRANCH   5  15
BRANCH   2  26
ATOM     26  C   UNL     1       4.276   2.683  19.842  0.00  0.00    +0.000 C 
BRANCH  26  27
ATOM     27  C   UNL     1       4.063   1.648  18.731  0.00  0.00    +0.000 C 
BRANCH  27  28
ATOM     28  C   UNL     1       2.690   1.851  18.120  0.00  0.00    +0.000 C 
ATOM     29  O   UNL     1       2.470   2.451  17.078  0.00  0.00    +0.000 OA
BRANCH  28  30
ATOM     30  O   UNL     1       1.698   1.287  18.845  0.00  0.00    +0.000 OA
ATOM     31  H   UNL     1       2.002   0.825  19.648  0.00  0.00    +0.000 HD
ENDBRANCH  28  30
ENDBRANCH  27  28
ENDBRANCH  26  27
ENDBRANCH   2  26
TORSDOF 8
ENDMDL
MODEL 2
REMARK VINA RESULT:      -8.1      1.518      1.792
REMARK  Name = 
REMARK  9 active torsions:
REMARK  status: ('A' for Active; 'I' for Inactive)
REMARK    1  A    between atoms: C_1  and  C_2
REMARK    2  A    between atoms: C_4  and  O_5
REMARK    3  A    between atoms: C_8  and  N_9
REMARK    4  A    between atoms: C_10  and  C_11
REMARK    5  A    between atoms: C_11  and  C_12
REMARK    6  A    between atoms: C_12  and  C_13
REMARK    7  A    between atoms: C_13  and  O_15
REMARK    8  A    between atoms: C_18  and  C_19
REMARK    9  A    between atoms: C_22  and  N_23
REMARK                            x       y       z     vdW  Elec       q    Type
REMARK                         _______ _______ _______ _____ _____    ______ ____
ROOT
ATOM      1  N   UNL     1       3.625   4.897  19.180  0.00  0.00    +0.000 N 
ATOM      2  C   UNL     1       3.464   3.706  19.988  0.00  0.00    +0.000 A 
ATOM      3  C   UNL     1       2.302   3.802  20.724  0.00  0.00    +0.000 A 
ATOM      4  C   UNL     1       1.777   5.073  20.545  0.00  0.00    +0.000 A 
ATOM      5  C   UNL     1       2.583   5.816  19.686  0.00  0.00    +0.000 A 
ENDROOT
BRANCH   1  12
ATOM      6  C   UNL     1       6.704   5.505  19.552  0.00  0.00    +0.000 C 
ATOM      7  C   UNL     1       6.041   5.287  18.257  0.00  0.00    +0.000 A 
ATOM      8  C   UNL     1       6.988   5.223  17.197  0.00  0.00    +0.000 A 
ATOM      9  C   UNL     1       6.602   4.998  15.901  0.00  0.00    +0.000 A 
ATOM     10  C   UNL     1       5.264   4.893  15.637  0.00  0.00    +0.000 A 
ATOM     11  C   UNL     1       4.327   4.909  16.699  0.00  0.00    +0.000 A 
ATOM     12  C   UNL     1       4.664   5.035  18.072  0.00  0.00    +0.000 A 
BRANCH   9  13
ATOM     13  O   UNL     1       7.511   4.870  14.902  0.00  0.00    +0.000 OA
ATOM     14  H   UNL     1       7.049   4.979  14.052  0.00  0.00    +0.000 HD
ENDBRANCH   9  13
ENDBRANCH   1  12
BRANCH   5  15
ATOM     15  C   UNL     1       2.213   7.257  19.421  0.00  0.00    +0.000 A 
ATOM     16  C   UNL     1       2.371   7.904  18.192  0.00  0.00    +0.000 A 
ATOM     17  C   UNL     1       1.619   9.076  17.907  0.00  0.00    +0.000 A 
ATOM     18  C   UNL     1       0.924   9.758  18.915  0.00  0.00    +0.000 A 
ATOM     19  C   UNL     1       1.069   9.301  20.225  0.00  0.00    +0.000 A 
ATOM     20  C   UNL     1       1.677   8.047  20.463  0.00  0.00    +0.000 A 
BRANCH  18  21
ATOM     21  N   UNL     1       0.094  10.877  18.604  0.00  0.00    +0.000 N 
ATOM     22  C   UNL     1       0.390  12.210  18.790  0.00  0.00    +0.000 A 
ATOM     23  C   UNL     1      -0.740  12.909  18.435  0.00  0.00    +0.000 A 
ATOM     24  N   UNL     1      -1.708  12.064  17.970  0.00  0.00    +0.000 NA
ATOM     25  C   UNL     1      -1.172  10.871  18.053  0.00  0.00    +0.000 A 
ENDBRANCH  18  21
ENDBRANCH   5  15
BRANCH   2  26
ATOM     26  C   UNL     1       4.380   2.504  20.014  0.00  0.00    +0.000 C 
BRANCH  26  27
ATOM     27  C   UNL     1       4.255   1.520  21.182  0.00  0.00    +0.000 C 
BRANCH  27  28
ATOM     28  C   UNL     1       5.542   0.726  21.302  0.00  0.00    +0.000 C 
ATOM     29  O   UNL     1       6.286   0.741  22.272  0.00  0.00    +0.000 OA
BRANCH  28  30
ATOM     30  O   UNL     1       5.802  -0.032  20.213  0.00  0.00    +0.000 OA
ATOM     31  H   UNL     1       5.033  -0.533  19.881  0.00  0.00    +0.000 HD
ENDBRANCH  28  30
ENDBRANCH  27  28
ENDBRANCH  26  27
ENDBRANCH   2  26
TORSDOF 8
ENDMDL
MODEL 3
REMARK VINA RESULT:      -8.1      1.960      4.465
REMARK  Name = 
REMARK  9 active torsions:
REMARK  status: ('A' for Active; 'I' for Inactive)
REMARK    1  A    between atoms: C_1  and  C_2
REMARK    2  A    between atoms: C_4  and  O_5
REMARK    3  A    between atoms: C_8  and  N_9
REMARK    4  A    between atoms: C_10  and  C_11
REMARK    5  A    between atoms: C_11  and  C_12
REMARK    6  A    between atoms: C_12  and  C_13
REMARK    7  A    between atoms: C_13  and  O_15
REMARK    8  A    between atoms: C_18  and  C_19
REMARK    9  A    between atoms: C_22  and  N_23
REMARK                            x       y       z     vdW  Elec       q    Type
REMARK                         _______ _______ _______ _____ _____    ______ ____
ROOT
ATOM      1  N   UNL     1       3.398   5.673  18.069  0.00  0.00    +0.000 N 
ATOM      2  C   UNL     1       4.321   5.416  16.983  0.00  0.00    +0.000 A 
ATOM      3  C   UNL     1       4.742   6.612  16.443  0.00  0.00    +0.000 A 
ATOM      4  C   UNL     1       4.014   7.635  17.032  0.00  0.00    +0.000 A 
ATOM      5  C   UNL     1       3.118   7.120  17.966  0.00  0.00    +0.000 A 
ENDROOT
BRANCH   1  12
ATOM      6  C   UNL     1       5.205   3.639  19.679  0.00  0.00    +0.000 C 
ATOM      7  C   UNL     1       3.739   3.715  19.769  0.00  0.00    +0.000 A 
ATOM      8  C   UNL     1       3.242   2.864  20.796  0.00  0.00    +0.000 A 
ATOM      9  C   UNL     1       1.903   2.790  21.083  0.00  0.00    +0.000 A 
ATOM     10  C   UNL     1       1.039   3.517  20.311  0.00  0.00    +0.000 A 
ATOM     11  C   UNL     1       1.539   4.399  19.322  0.00  0.00    +0.000 A 
ATOM     12  C   UNL     1       2.916   4.602  19.042  0.00  0.00    +0.000 A 
BRANCH   9  13
ATOM     13  O   UNL     1       1.437   2.030  22.105  0.00  0.00    +0.000 OA
ATOM     14  H   UNL     1       1.998   2.188  22.884  0.00  0.00    +0.000 HD
ENDBRANCH   9  13
ENDBRANCH   1  12
BRANCH   5  15
ATOM     15  C   UNL     1       2.182   8.077  18.666  0.00  0.00    +0.000 A 
ATOM     16  C   UNL     1       1.724   7.923  19.978  0.00  0.00    +0.000 A 
ATOM     17  C   UNL     1       1.224   9.046  20.691  0.00  0.00    +0.000 A 
ATOM     18  C   UNL     1       0.925  10.249  20.036  0.00  0.00    +0.000 A 
ATOM     19  C   UNL     1       1.047  10.278  18.647  0.00  0.00    +0.000 A 
ATOM     20  C   UNL     1       1.701   9.217  17.981  0.00  0.00    +0.000 A 
BRANCH  18  21
ATOM     21  N   UNL     1       0.516  11.401  20.773  0.00  0.00    +0.000 N 
ATOM     22  C   UNL     1       0.874  12.711  20.537  0.00  0.00    +0.000 A 
ATOM     23  C   UNL     1       0.317  13.453  21.552  0.00  0.00    +0.000 A 
ATOM     24  N   UNL     1      -0.432  12.662  22.377  0.00  0.00    +0.000 NA
ATOM     25  C   UNL     1      -0.319  11.458  21.871  0.00  0.00    +0.000 A 
ENDBRANCH  18  21
ENDBRANCH   5  15
BRANCH   2  26
ATOM     26  C   UNL     1       4.807   4.063  16.514  0.00  0.00    +0.000 C 
BRANCH  26  27
ATOM     27  C   UNL     1       5.735   4.007  15.295  0.00  0.00    +0.000 C 
BRANCH  27  28
ATOM     28  C   UNL     1       7.097   4.553  15.682  0.00  0.00    +0.000 C 
ATOM     29  O   UNL     1       7.698   4.270  16.708  0.00  0.00    +0.000 OA
BRANCH  28  30
ATOM     30  O   UNL     1       7.610   5.399  14.761  0.00  0.00    +0.000 OA
ATOM     31  H   UNL     1       7.551   6.341  15.006  0.00  0.00    +0.000 HD
ENDBRANCH  28  30
ENDBRANCH  27  28
ENDBRANCH  26  27
ENDBRANCH   2  26
TORSDOF 8
ENDMDL
MODEL 4
REMARK VINA RESULT:      -8.0      1.995      4.587
REMARK  Name = 
REMARK  9 active torsions:
REMARK  status: ('A' for Active; 'I' for Inactive)
REMARK    1  A    between atoms: C_1  and  C_2
REMARK    2  A    between atoms: C_4  and  O_5
REMARK    3  A    between atoms: C_8  and  N_9
REMARK    4  A    between atoms: C_10  and  C_11
REMARK    5  A    between atoms: C_11  and  C_12
REMARK    6  A    between atoms: C_12  and  C_13
REMARK    7  A    between atoms: C_13  and  O_15
REMARK    8  A    between atoms: C_18  and  C_19
REMARK    9  A    between atoms: C_22  and  N_23
REMARK                            x       y       z     vdW  Elec       q    Type
REMARK                         _______ _______ _______ _____ _____    ______ ____
ROOT
ATOM      1  N   UNL     1       2.952   6.034  18.505  0.00  0.00    +0.000 N 
ATOM      2  C   UNL     1       3.948   5.714  17.503  0.00  0.00    +0.000 A 
ATOM      3  C   UNL     1       4.427   6.878  16.942  0.00  0.00    +0.000 A 
ATOM      4  C   UNL     1       3.675   7.937  17.428  0.00  0.00    +0.000 A 
ATOM      5  C   UNL     1       2.706   7.479  18.316  0.00  0.00    +0.000 A 
ENDROOT
BRANCH   1  12
ATOM      6  C   UNL     1       0.965   3.670  17.831  0.00  0.00    +0.000 C 
ATOM      7  C   UNL     1       1.512   3.954  19.167  0.00  0.00    +0.000 A 
ATOM      8  C   UNL     1       1.163   2.932  20.094  0.00  0.00    +0.000 A 
ATOM      9  C   UNL     1       1.585   2.970  21.398  0.00  0.00    +0.000 A 
ATOM     10  C   UNL     1       2.311   4.054  21.808  0.00  0.00    +0.000 A 
ATOM     11  C   UNL     1       2.698   5.045  20.873  0.00  0.00    +0.000 A 
ATOM     12  C   UNL     1       2.382   5.017  19.489  0.00  0.00    +0.000 A 
BRANCH   9  13
ATOM     13  O   UNL     1       1.308   1.963  22.263  0.00  0.00    +0.000 OA
ATOM     14  H   UNL     1       1.960   1.253  22.126  0.00  0.00    +0.000 HD
ENDBRANCH   9  13
ENDBRANCH   1  12
BRANCH   5  15
ATOM     15  C   UNL     1       1.737   8.481  18.900  0.00  0.00    +0.000 A 
ATOM     16  C   UNL     1       1.348   8.520  20.242  0.00  0.00    +0.000 A 
ATOM     17  C   UNL     1       0.803   9.713  20.788  0.00  0.00    +0.000 A 
ATOM     18  C   UNL     1       0.395  10.770  19.964  0.00  0.00    +0.000 A 
ATOM     19  C   UNL     1       0.454  10.575  18.584  0.00  0.00    +0.000 A 
ATOM     20  C   UNL     1       1.150   9.460  18.066  0.00  0.00    +0.000 A 
BRANCH  18  21
ATOM     21  N   UNL     1      -0.060  12.002  20.524  0.00  0.00    +0.000 N 
ATOM     22  C   UNL     1      -0.419  12.239  21.833  0.00  0.00    +0.000 A 
ATOM     23  C   UNL     1      -0.876  13.535  21.879  0.00  0.00    +0.000 A 
ATOM     24  N   UNL     1      -0.752  14.137  20.659  0.00  0.00    +0.000 NA
ATOM     25  C   UNL     1      -0.237  13.214  19.886  0.00  0.00    +0.000 A 
ENDBRANCH  18  21
ENDBRANCH   5  15
BRANCH   2  26
ATOM     26  C   UNL     1       4.444   4.334  17.134  0.00  0.00    +0.000 C 
BRANCH  26  27
ATOM     27  C   UNL     1       5.426   4.204  15.965  0.00  0.00    +0.000 C 
BRANCH  27  28
ATOM     28  C   UNL     1       6.843   4.333  16.491  0.00  0.00    +0.000 C 
ATOM     29  O   UNL     1       7.812   4.660  15.821  0.00  0.00    +0.000 OA
BRANCH  28  30
ATOM     30  O   UNL     1       6.946   4.056  17.810  0.00  0.00    +0.000 OA
ATOM     31  H   UNL     1       7.504   3.283  18.015  0.00  0.00    +0.000 HD
ENDBRANCH  28  30
ENDBRANCH  27  28
ENDBRANCH  26  27
ENDBRANCH   2  26
TORSDOF 8
ENDMDL
MODEL 5
REMARK VINA RESULT:      -8.0      2.352      4.591
REMARK  Name = 
REMARK  9 active torsions:
REMARK  status: ('A' for Active; 'I' for Inactive)
REMARK    1  A    between atoms: C_1  and  C_2
REMARK    2  A    between atoms: C_4  and  O_5
REMARK    3  A    between atoms: C_8  and  N_9
REMARK    4  A    between atoms: C_10  and  C_11
REMARK    5  A    between atoms: C_11  and  C_12
REMARK    6  A    between atoms: C_12  and  C_13
REMARK    7  A    between atoms: C_13  and  O_15
REMARK    8  A    between atoms: C_18  and  C_19
REMARK    9  A    between atoms: C_22  and  N_23
REMARK                            x       y       z     vdW  Elec       q    Type
REMARK                         _______ _______ _______ _____ _____    ______ ____
ROOT
ATOM      1  N   UNL     1       2.729   6.211  18.676  0.00  0.00    +0.000 N 
ATOM      2  C   UNL     1       3.644   6.023  17.568  0.00  0.00    +0.000 A 
ATOM      3  C   UNL     1       4.038   7.252  17.084  0.00  0.00    +0.000 A 
ATOM      4  C   UNL     1       3.300   8.232  17.730  0.00  0.00    +0.000 A 
ATOM      5  C   UNL     1       2.424   7.657  18.647  0.00  0.00    +0.000 A 
ENDROOT
BRANCH   1  12
ATOM      6  C   UNL     1       0.983   3.701  17.875  0.00  0.00    +0.000 C 
ATOM      7  C   UNL     1       1.514   3.960  19.222  0.00  0.00    +0.000 A 
ATOM      8  C   UNL     1       1.281   2.856  20.090  0.00  0.00    +0.000 A 
ATOM      9  C   UNL     1       1.712   2.861  21.390  0.00  0.00    +0.000 A 
ATOM     10  C   UNL     1       2.331   3.988  21.859  0.00  0.00    +0.000 A 
ATOM     11  C   UNL     1       2.604   5.065  20.982  0.00  0.00    +0.000 A 
ATOM     12  C   UNL     1       2.277   5.086  19.601  0.00  0.00    +0.000 A 
BRANCH   9  13
ATOM     13  O   UNL     1       1.549   1.782  22.196  0.00  0.00    +0.000 OA
ATOM     14  H   UNL     1       0.622   1.492  22.136  0.00  0.00    +0.000 HD
ENDBRANCH   9  13
ENDBRANCH   1  12
BRANCH   5  15
ATOM     15  C   UNL     1       1.480   8.562  19.402  0.00  0.00    +0.000 A 
ATOM     16  C   UNL     1       1.084   8.367  20.730  0.00  0.00    +0.000 A 
ATOM     17  C   UNL     1       0.570   9.457  21.483  0.00  0.00    +0.000 A 
ATOM     18  C   UNL     1       0.195  10.657  20.864  0.00  0.00    +0.000 A 
ATOM     19  C   UNL     1       0.257  10.715  19.472  0.00  0.00    +0.000 A 
ATOM     20  C   UNL     1       0.924   9.693  18.760  0.00  0.00    +0.000 A 
BRANCH  18  21
ATOM     21  N   UNL     1      -0.229  11.779  21.638  0.00  0.00    +0.000 N 
ATOM     22  C   UNL     1       0.070  13.106  21.415  0.00  0.00    +0.000 A 
ATOM     23  C   UNL     1      -0.475  13.806  22.465  0.00  0.00    +0.000 A 
ATOM     24  N   UNL     1      -1.162  12.972  23.301  0.00  0.00    +0.000 NA
ATOM     25  C   UNL     1      -1.024  11.783  22.768  0.00  0.00    +0.000 A 
ENDBRANCH  18  21
ENDBRANCH   5  15
BRANCH   2  26
ATOM     26  C   UNL     1       4.147   4.704  17.028  0.00  0.00    +0.000 C 
BRANCH  26  27
ATOM     27  C   UNL     1       5.600   4.309  17.311  0.00  0.00    +0.000 C 
BRANCH  27  28
ATOM     28  C   UNL     1       5.809   4.226  18.811  0.00  0.00    +0.000 C 
ATOM     29  O   UNL     1       6.425   5.043  19.479  0.00  0.00    +0.000 OA
BRANCH  28  30
ATOM     30  O   UNL     1       5.229   3.138  19.367  0.00  0.00    +0.000 OA
ATOM     31  H   UNL     1       5.589   2.288  19.055  0.00  0.00    +0.000 HD
ENDBRANCH  28  30
ENDBRANCH  27  28
ENDBRANCH  26  27
ENDBRANCH   2  26
TORSDOF 8
ENDMDL
MODEL 6
REMARK VINA RESULT:      -7.9      1.897      2.484
REMARK  Name = 
REMARK  9 active torsions:
REMARK  status: ('A' for Active; 'I' for Inactive)
REMARK    1  A    between atoms: C_1  and  C_2
REMARK    2  A    between atoms: C_4  and  O_5
REMARK    3  A    between atoms: C_8  and  N_9
REMARK    4  A    between atoms: C_10  and  C_11
REMARK    5  A    between atoms: C_11  and  C_12
REMARK    6  A    between atoms: C_12  and  C_13
REMARK    7  A    between atoms: C_13  and  O_15
REMARK    8  A    between atoms: C_18  and  C_19
REMARK    9  A    between atoms: C_22  and  N_23
REMARK                            x       y       z     vdW  Elec       q    Type
REMARK                         _______ _______ _______ _____ _____    ______ ____
ROOT
ATOM      1  N   UNL     1       3.540   5.167  18.077  0.00  0.00    +0.000 N 
ATOM      2  C   UNL     1       3.090   3.842  17.701  0.00  0.00    +0.000 A 
ATOM      3  C   UNL     1       1.739   3.875  17.430  0.00  0.00    +0.000 A 
ATOM      4  C   UNL     1       1.258   5.133  17.760  0.00  0.00    +0.000 A 
ATOM      5  C   UNL     1       2.289   5.936  18.242  0.00  0.00    +0.000 A 
ENDROOT
BRANCH   1  12
ATOM      6  C   UNL     1       5.273   6.773  15.977  0.00  0.00    +0.000 C 
ATOM      7  C   UNL     1       5.762   6.291  17.278  0.00  0.00    +0.000 A 
ATOM      8  C   UNL     1       7.072   6.777  17.548  0.00  0.00    +0.000 A 
ATOM      9  C   UNL     1       7.723   6.479  18.717  0.00  0.00    +0.000 A 
ATOM     10  C   UNL     1       7.099   5.646  19.605  0.00  0.00    +0.000 A 
ATOM     11  C   UNL     1       5.777   5.202  19.357  0.00  0.00    +0.000 A 
ATOM     12  C   UNL     1       5.008   5.555  18.217  0.00  0.00    +0.000 A 
BRANCH   9  13
ATOM     13  O   UNL     1       8.943   6.997  19.002  0.00  0.00    +0.000 OA
ATOM     14  H   UNL     1       8.860   7.558  19.793  0.00  0.00    +0.000 HD
ENDBRANCH   9  13
ENDBRANCH   1  12
BRANCH   5  15
ATOM     15  C   UNL     1       1.948   7.327  18.723  0.00  0.00    +0.000 A 
ATOM     16  C   UNL     1       1.792   8.440  17.890  0.00  0.00    +0.000 A 
ATOM     17  C   UNL     1       1.064   9.571  18.348  0.00  0.00    +0.000 A 
ATOM     18  C   UNL     1       0.725   9.720  19.699  0.00  0.00    +0.000 A 
ATOM     19  C   UNL     1       1.205   8.767  20.596  0.00  0.00    +0.000 A 
ATOM     20  C   UNL     1       1.777   7.571  20.105  0.00  0.00    +0.000 A 
BRANCH  18  21
ATOM     21  N   UNL     1      -0.089  10.809  20.133  0.00  0.00    +0.000 N 
ATOM     22  C   UNL     1      -0.332  11.201  21.433  0.00  0.00    +0.000 A 
ATOM     23  C   UNL     1      -1.242  12.229  21.362  0.00  0.00    +0.000 A 
ATOM     24  N   UNL     1      -1.525  12.539  20.062  0.00  0.00    +0.000 NA
ATOM     25  C   UNL     1      -0.804  11.702  19.359  0.00  0.00    +0.000 A 
ENDBRANCH  18  21
ENDBRANCH   5  15
BRANCH   2  26
ATOM     26  C   UNL     1       3.945   2.603  17.572  0.00  0.00    +0.000 C 
BRANCH  26  27
ATOM     27  C   UNL     1       3.725   1.460  18.569  0.00  0.00    +0.000 C 
BRANCH  27  28
ATOM     28  C   UNL     1       4.052   1.950  19.967  0.00  0.00    +0.000 C 
ATOM     29  O   UNL     1       3.286   2.573  20.687  0.00  0.00    +0.000 OA
BRANCH  28  30
ATOM     30  O   UNL     1       5.302   1.621  20.365  0.00  0.00    +0.000 OA
ATOM     31  H   UNL     1       6.011   1.990  19.806  0.00  0.00    +0.000 HD
ENDBRANCH  28  30
ENDBRANCH  27  28
ENDBRANCH  26  27
ENDBRANCH   2  26
TORSDOF 8
ENDMDL
MODEL 7
REMARK VINA RESULT:      -7.8      2.006      4.478
REMARK  Name = 
REMARK  9 active torsions:
REMARK  status: ('A' for Active; 'I' for Inactive)
REMARK    1  A    between atoms: C_1  and  C_2
REMARK    2  A    between atoms: C_4  and  O_5
REMARK    3  A    between atoms: C_8  and  N_9
REMARK    4  A    between atoms: C_10  and  C_11
REMARK    5  A    between atoms: C_11  and  C_12
REMARK    6  A    between atoms: C_12  and  C_13
REMARK    7  A    between atoms: C_13  and  O_15
REMARK    8  A    between atoms: C_18  and  C_19
REMARK    9  A    between atoms: C_22  and  N_23
REMARK                            x       y       z     vdW  Elec       q    Type
REMARK                         _______ _______ _______ _____ _____    ______ ____
ROOT
ATOM      1  N   UNL     1       3.281   6.043  18.214  0.00  0.00    +0.000 N 
ATOM      2  C   UNL     1       4.269   5.606  17.249  0.00  0.00    +0.000 A 
ATOM      3  C   UNL     1       4.854   6.705  16.659  0.00  0.00    +0.000 A 
ATOM      4  C   UNL     1       4.181   7.839  17.087  0.00  0.00    +0.000 A 
ATOM      5  C   UNL     1       3.158   7.495  17.967  0.00  0.00    +0.000 A 
ENDROOT
BRANCH   1  12
ATOM      6  C   UNL     1       1.084   3.860  17.584  0.00  0.00    +0.000 C 
ATOM      7  C   UNL     1       1.644   4.128  18.917  0.00  0.00    +0.000 A 
ATOM      8  C   UNL     1       1.191   3.172  19.869  0.00  0.00    +0.000 A 
ATOM      9  C   UNL     1       1.604   3.206  21.175  0.00  0.00    +0.000 A 
ATOM     10  C   UNL     1       2.427   4.228  21.563  0.00  0.00    +0.000 A 
ATOM     11  C   UNL     1       2.914   5.151  20.605  0.00  0.00    +0.000 A 
ATOM     12  C   UNL     1       2.609   5.113  19.219  0.00  0.00    +0.000 A 
BRANCH   9  13
ATOM     13  O   UNL     1       1.225   2.255  22.064  0.00  0.00    +0.000 OA
ATOM     14  H   UNL     1       0.829   1.515  21.572  0.00  0.00    +0.000 HD
ENDBRANCH   9  13
ENDBRANCH   1  12
BRANCH   5  15
ATOM     15  C   UNL     1       2.261   8.593  18.490  0.00  0.00    +0.000 A 
ATOM     16  C   UNL     1       2.073   9.830  17.866  0.00  0.00    +0.000 A 
ATOM     17  C   UNL     1       0.922  10.607  18.165  0.00  0.00    +0.000 A 
ATOM     18  C   UNL     1       0.103  10.302  19.260  0.00  0.00    +0.000 A 
ATOM     19  C   UNL     1       0.506   9.266  20.102  0.00  0.00    +0.000 A 
ATOM     20  C   UNL     1       1.551   8.404  19.698  0.00  0.00    +0.000 A 
BRANCH  18  21
ATOM     21  N   UNL     1      -1.104  11.027  19.496  0.00  0.00    +0.000 N 
ATOM     22  C   UNL     1      -2.194  11.125  18.658  0.00  0.00    +0.000 A 
ATOM     23  C   UNL     1      -3.068  11.998  19.262  0.00  0.00    +0.000 A 
ATOM     24  N   UNL     1      -2.592  12.398  20.479  0.00  0.00    +0.000 NA
ATOM     25  C   UNL     1      -1.443  11.781  20.602  0.00  0.00    +0.000 A 
ENDBRANCH  18  21
ENDBRANCH   5  15
BRANCH   2  26
ATOM     26  C   UNL     1       4.659   4.178  16.942  0.00  0.00    +0.000 C 
BRANCH  26  27
ATOM     27  C   UNL     1       5.539   3.912  15.716  0.00  0.00    +0.000 C 
BRANCH  27  28
ATOM     28  C   UNL     1       6.937   4.435  15.986  0.00  0.00    +0.000 C 
ATOM     29  O   UNL     1       7.571   5.159  15.233  0.00  0.00    +0.000 OA
BRANCH  28  30
ATOM     30  O   UNL     1       7.436   4.026  17.175  0.00  0.00    +0.000 OA
ATOM     31  H   UNL     1       8.284   4.442  17.418  0.00  0.00    +0.000 HD
ENDBRANCH  28  30
ENDBRANCH  27  28
ENDBRANCH  26  27
ENDBRANCH   2  26
TORSDOF 8
ENDMDL
MODEL 8
REMARK VINA RESULT:      -7.8      1.839      4.572
REMARK  Name = 
REMARK  9 active torsions:
REMARK  status: ('A' for Active; 'I' for Inactive)
REMARK    1  A    between atoms: C_1  and  C_2
REMARK    2  A    between atoms: C_4  and  O_5
REMARK    3  A    between atoms: C_8  and  N_9
REMARK    4  A    between atoms: C_10  and  C_11
REMARK    5  A    between atoms: C_11  and  C_12
REMARK    6  A    between atoms: C_12  and  C_13
REMARK    7  A    between atoms: C_13  and  O_15
REMARK    8  A    between atoms: C_18  and  C_19
REMARK    9  A    between atoms: C_22  and  N_23
REMARK                            x       y       z     vdW  Elec       q    Type
REMARK                         _______ _______ _______ _____ _____    ______ ____
ROOT
ATOM      1  N   UNL     1       3.700   5.664  17.521  0.00  0.00    +0.000 N 
ATOM      2  C   UNL     1       4.801   5.728  16.581  0.00  0.00    +0.000 A 
ATOM      3  C   UNL     1       5.289   7.016  16.532  0.00  0.00    +0.000 A 
ATOM      4  C   UNL     1       4.454   7.828  17.286  0.00  0.00    +0.000 A 
ATOM      5  C   UNL     1       3.419   7.079  17.840  0.00  0.00    +0.000 A 
ENDROOT
BRANCH   1  12
ATOM      6  C   UNL     1       5.072   3.480  19.348  0.00  0.00    +0.000 C 
ATOM      7  C   UNL     1       3.695   3.404  18.838  0.00  0.00    +0.000 A 
ATOM      8  C   UNL     1       2.996   2.300  19.402  0.00  0.00    +0.000 A 
ATOM      9  C   UNL     1       1.686   2.044  19.093  0.00  0.00    +0.000 A 
ATOM     10  C   UNL     1       1.072   2.852  18.174  0.00  0.00    +0.000 A 
ATOM     11  C   UNL     1       1.753   3.978  17.651  0.00  0.00    +0.000 A 
ATOM     12  C   UNL     1       3.074   4.359  18.004  0.00  0.00    +0.000 A 
BRANCH   9  13
ATOM     13  O   UNL     1       1.002   1.032  19.681  0.00  0.00    +0.000 OA
ATOM     14  H   UNL     1       0.247   1.412  20.164  0.00  0.00    +0.000 HD
ENDBRANCH   9  13
ENDBRANCH   1  12
BRANCH   5  15
ATOM     15  C   UNL     1       2.360   7.801  18.641  0.00  0.00    +0.000 A 
ATOM     16  C   UNL     1       1.929   7.418  19.915  0.00  0.00    +0.000 A 
ATOM     17  C   UNL     1       1.280   8.361  20.757  0.00  0.00    +0.000 A 
ATOM     18  C   UNL     1       0.819   9.586  20.257  0.00  0.00    +0.000 A 
ATOM     19  C   UNL     1       0.934   9.811  18.886  0.00  0.00    +0.000 A 
ATOM     20  C   UNL     1       1.727   8.943  18.100  0.00  0.00    +0.000 A 
BRANCH  18  21
ATOM     21  N   UNL     1       0.256  10.567  21.128  0.00  0.00    +0.000 N 
ATOM     22  C   UNL     1       0.068  11.907  20.863  0.00  0.00    +0.000 A 
ATOM     23  C   UNL     1      -0.413  12.466  22.023  0.00  0.00    +0.000 A 
ATOM     24  N   UNL     1      -0.596  11.511  22.983  0.00  0.00    +0.000 NA
ATOM     25  C   UNL     1      -0.221  10.393  22.413  0.00  0.00    +0.000 A 
ENDBRANCH  18  21
ENDBRANCH   5  15
BRANCH   2  26
ATOM     26  C   UNL     1       5.382   4.577  15.793  0.00  0.00    +0.000 C 
BRANCH  26  27
ATOM     27  C   UNL     1       6.887   4.578  15.507  0.00  0.00    +0.000 C 
BRANCH  27  28
ATOM     28  C   UNL     1       7.108   4.708  14.012  0.00  0.00    +0.000 C 
ATOM     29  O   UNL     1       6.527   4.054  13.159  0.00  0.00    +0.000 OA
BRANCH  28  30
ATOM     30  O   UNL     1       8.027   5.647  13.692  0.00  0.00    +0.000 OA
ATOM     31  H   UNL     1       7.722   6.299  13.034  0.00  0.00    +0.000 HD
ENDBRANCH  28  30
ENDBRANCH  27  28
ENDBRANCH  26  27
ENDBRANCH   2  26
TORSDOF 8
ENDMDL
MODEL 9
REMARK VINA RESULT:      -7.8      1.721      2.271
REMARK  Name = 
REMARK  9 active torsions:
REMARK  status: ('A' for Active; 'I' for Inactive)
REMARK    1  A    between atoms: C_1  and  C_2
REMARK    2  A    between atoms: C_4  and  O_5
REMARK    3  A    between atoms: C_8  and  N_9
REMARK    4  A    between atoms: C_10  and  C_11
REMARK    5  A    between atoms: C_11  and  C_12
REMARK    6  A    between atoms: C_12  and  C_13
REMARK    7  A    between atoms: C_13  and  O_15
REMARK    8  A    between atoms: C_18  and  C_19
REMARK    9  A    between atoms: C_22  and  N_23
REMARK                            x       y       z     vdW  Elec       q    Type
REMARK                         _______ _______ _______ _____ _____    ______ ____
ROOT
ATOM      1  N   UNL     1       3.674   4.691  19.378  0.00  0.00    +0.000 N 
ATOM      2  C   UNL     1       3.461   3.483  20.149  0.00  0.00    +0.000 A 
ATOM      3  C   UNL     1       2.262   3.570  20.821  0.00  0.00    +0.000 A 
ATOM      4  C   UNL     1       1.755   4.849  20.643  0.00  0.00    +0.000 A 
ATOM      5  C   UNL     1       2.611   5.605  19.847  0.00  0.00    +0.000 A 
ENDROOT
BRANCH   1  12
ATOM      6  C   UNL     1       3.645   3.558  16.427  0.00  0.00    +0.000 C 
ATOM      7  C   UNL     1       4.736   4.352  17.013  0.00  0.00    +0.000 A 
ATOM      8  C   UNL     1       5.712   4.687  16.033  0.00  0.00    +0.000 A 
ATOM      9  C   UNL     1       6.810   5.448  16.342  0.00  0.00    +0.000 A 
ATOM     10  C   UNL     1       6.978   5.835  17.644  0.00  0.00    +0.000 A 
ATOM     11  C   UNL     1       5.982   5.541  18.607  0.00  0.00    +0.000 A 
ATOM     12  C   UNL     1       4.774   4.847  18.334  0.00  0.00    +0.000 A 
BRANCH   9  13
ATOM     13  O   UNL     1       7.704   5.823  15.394  0.00  0.00    +0.000 OA
ATOM     14  H   UNL     1       7.991   5.028  14.912  0.00  0.00    +0.000 HD
ENDBRANCH   9  13
ENDBRANCH   1  12
BRANCH   5  15
ATOM     15  C   UNL     1       2.264   7.054  19.595  0.00  0.00    +0.000 A 
ATOM     16  C   UNL     1       2.517   7.735  18.400  0.00  0.00    +0.000 A 
ATOM     17  C   UNL     1       1.791   8.917  18.091  0.00  0.00    +0.000 A 
ATOM     18  C   UNL     1       1.021   9.572  19.061  0.00  0.00    +0.000 A 
ATOM     19  C   UNL     1       1.064   9.079  20.365  0.00  0.00    +0.000 A 
ATOM     20  C   UNL     1       1.650   7.817  20.614  0.00  0.00    +0.000 A 
BRANCH  18  21
ATOM     21  N   UNL     1       0.219  10.702  18.719  0.00  0.00    +0.000 N 
ATOM     22  C   UNL     1       0.567  12.032  18.820  0.00  0.00    +0.000 A 
ATOM     23  C   UNL     1      -0.551  12.752  18.467  0.00  0.00    +0.000 A 
ATOM     24  N   UNL     1      -1.564  11.918  18.085  0.00  0.00    +0.000 NA
ATOM     25  C   UNL     1      -1.067  10.713  18.215  0.00  0.00    +0.000 A 
ENDBRANCH  18  21
ENDBRANCH   5  15
BRANCH   2  26
ATOM     26  C   UNL     1       4.369   2.274  20.198  0.00  0.00    +0.000 C 
BRANCH  26  27
ATOM     27  C   UNL     1       4.445   1.476  21.504  0.00  0.00    +0.000 C 
BRANCH  27  28
ATOM     28  C   UNL     1       5.706   0.632  21.497  0.00  0.00    +0.000 C 
ATOM     29  O   UNL     1       5.987  -0.199  20.647  0.00  0.00    +0.000 OA
BRANCH  28  30
ATOM     30  O   UNL     1       6.523   0.893  22.542  0.00  0.00    +0.000 OA
ATOM     31  H   UNL     1       6.931   0.101  22.939  0.00  0.00    +0.000 HD
ENDBRANCH  28  30
ENDBRANCH  27  28
ENDBRANCH  26  27
ENDBRANCH   2  26
TORSDOF 8
ENDMDL
