MODEL 1
REMARK VINA RESULT:      -7.8      0.000      0.000
REMARK  Name = 
REMARK  9 active torsions:
REMARK  status: ('A' for Active; 'I' for Inactive)
REMARK    1  A    between atoms: C_5  and  C_6
REMARK    2  A    between atoms: C_6  and  N_7
REMARK    3  A    between atoms: C_9  and  C_10
REMARK    4  A    between atoms: C_18  and  O_19
REMARK    5  A    between atoms: O_19  and  C_20
REMARK    6  A    between atoms: C_20  and  C_21
REMARK    7  A    between atoms: C_27  and  O_28
REMARK    8  A    between atoms: O_28  and  C_29
REMARK    9  A    between atoms: C_29  and  C_30
REMARK                            x       y       z     vdW  Elec       q    Type
REMARK                         _______ _______ _______ _____ _____    ______ ____
ROOT
ATOM      1  O   UNL     1       1.075   8.214  22.187  0.00  0.00    +0.000 OA
ATOM      2  C   UNL     1       1.269   8.340  20.987  0.00  0.00    +0.000 C 
ATOM      3  O   UNL     1       0.770   9.371  20.237  0.00  0.00    +0.000 OA
ATOM      4  C   UNL     1       1.295   9.217  18.965  0.00  0.00    +0.000 C 
ATOM      5  C   UNL     1       1.046  10.129  18.017  0.00  0.00    +0.000 C 
ATOM      6  C   UNL     1       2.049   7.996  18.912  0.00  0.00    +0.000 C 
ATOM      7  C   UNL     1       2.026   7.416  20.115  0.00  0.00    +0.000 C 
ENDROOT
BRANCH   5   8
ATOM      8  C   UNL     1       0.194  11.371  18.189  0.00  0.00    +0.000 C 
BRANCH   8   9
ATOM      9  N   UNL     1      -1.248  11.190  18.068  0.00  0.00    +0.000 N 
ATOM     10  C   UNL     1      -2.236  11.956  18.608  0.00  0.00    +0.000 A 
ATOM     11  C   UNL     1      -3.401  11.332  18.214  0.00  0.00    +0.000 A 
ATOM     12  N   UNL     1      -3.084  10.251  17.428  0.00  0.00    +0.000 NA
ATOM     13  N   UNL     1      -1.760  10.183  17.330  0.00  0.00    +0.000 NA
BRANCH  11  14
ATOM     14  C   UNL     1      -4.746  11.763  18.552  0.00  0.00    +0.000 A 
ATOM     15  C   UNL     1      -5.835  11.411  17.761  0.00  0.00    +0.000 A 
ATOM     16  C   UNL     1      -7.096  11.896  18.104  0.00  0.00    +0.000 A 
ATOM     17  C   UNL     1      -7.234  12.710  19.222  0.00  0.00    +0.000 A 
ATOM     18  C   UNL     1      -6.102  13.000  19.963  0.00  0.00    +0.000 A 
ATOM     19  N   UNL     1      -4.867  12.551  19.655  0.00  0.00    +0.000 NA
ENDBRANCH  11  14
ENDBRANCH   8   9
ENDBRANCH   5   8
BRANCH   6  20
ATOM     20  O   UNL     1       2.595   7.579  17.727  0.00  0.00    +0.000 OA
BRANCH  20  21
ATOM     21  C   UNL     1       4.014   7.755  17.531  0.00  0.00    +0.000 C 
BRANCH  21  22
ATOM     22  C   UNL     1       4.800   6.494  17.223  0.00  0.00    +0.000 A 
ATOM     23  C   UNL     1       5.350   5.737  18.279  0.00  0.00    +0.000 A 
ATOM     24  C   UNL     1       6.117   4.598  18.015  0.00  0.00    +0.000 A 
ATOM     25  C   UNL     1       6.320   4.185  16.702  0.00  0.00    +0.000 A 
ATOM     26  C   UNL     1       5.741   4.898  15.652  0.00  0.00    +0.000 A 
ATOM     27  C   UNL     1       4.980   6.043  15.914  0.00  0.00    +0.000 A 
ENDBRANCH  21  22
ENDBRANCH  20  21
ENDBRANCH   6  20
BRANCH   7  28
ATOM     28  O   UNL     1       2.600   6.239  20.478  0.00  0.00    +0.000 OA
BRANCH  28  29
ATOM     29  C   UNL     1       1.777   5.077  20.465  0.00  0.00    +0.000 C 
BRANCH  29  30
ATOM     30  C   UNL     1       2.296   4.041  19.499  0.00  0.00    +0.000 A 
ATOM     31  C   UNL     1       1.996   4.152  18.134  0.00  0.00    +0.000 A 
ATOM     32  C   UNL     1       2.495   3.224  17.219  0.00  0.00    +0.000 A 
ATOM     33  C   UNL     1       3.308   2.180  17.656  0.00  0.00    +0.000 A 
ATOM     34  C   UNL     1       3.626   2.066  19.007  0.00  0.00    +0.000 A 
ATOM     35  C   UNL     1       3.128   2.994  19.922  0.00  0.00    +0.000 A 
ENDBRANCH  29  30
ENDBRANCH  28  29
ENDBRANCH   7  28
TORSDOF 9
ENDMDL
MODEL 2
REMARK VINA RESULT:      -7.7      5.624      9.137
REMARK  Name = 
REMARK  9 active torsions:
REMARK  status: ('A' for Active; 'I' for Inactive)
REMARK    1  A    between atoms: C_5  and  C_6
REMARK    2  A    between atoms: C_6  and  N_7
REMARK    3  A    between atoms: C_9  and  C_10
REMARK    4  A    between atoms: C_18  and  O_19
REMARK    5  A    between atoms: O_19  and  C_20
REMARK    6  A    between atoms: C_20  and  C_21
REMARK    7  A    between atoms: C_27  and  O_28
REMARK    8  A    between atoms: O_28  and  C_29
REMARK    9  A    between atoms: C_29  and  C_30
REMARK                            x       y       z     vdW  Elec       q    Type
REMARK                         _______ _______ _______ _____ _____    ______ ____
ROOT
ATOM      1  O   UNL     1       7.159   4.493  15.053  0.00  0.00    +0.000 OA
ATOM      2  C   UNL     1       6.769   5.293  15.890  0.00  0.00    +0.000 C 
ATOM      3  O   UNL     1       7.523   6.337  16.358  0.00  0.00    +0.000 OA
ATOM      4  C   UNL     1       6.699   7.064  17.201  0.00  0.00    +0.000 C 
ATOM      5  C   UNL     1       7.137   8.201  17.757  0.00  0.00    +0.000 C 
ATOM      6  C   UNL     1       5.442   6.382  17.334  0.00  0.00    +0.000 C 
ATOM      7  C   UNL     1       5.461   5.281  16.579  0.00  0.00    +0.000 C 
ENDROOT
BRANCH   5   8
ATOM      8  C   UNL     1       8.515   8.804  17.565  0.00  0.00    +0.000 C 
BRANCH   8   9
ATOM      9  N   UNL     1       8.806  10.012  18.326  0.00  0.00    +0.000 N 
ATOM     10  C   UNL     1       8.771  11.303  17.893  0.00  0.00    +0.000 A 
ATOM     11  C   UNL     1       9.158  12.039  18.993  0.00  0.00    +0.000 A 
ATOM     12  N   UNL     1       9.371  11.186  20.048  0.00  0.00    +0.000 NA
ATOM     13  N   UNL     1       9.136   9.946  19.633  0.00  0.00    +0.000 NA
BRANCH  11  14
ATOM     14  C   UNL     1       9.292  13.485  19.037  0.00  0.00    +0.000 A 
ATOM     15  C   UNL     1       8.761  14.225  20.089  0.00  0.00    +0.000 A 
ATOM     16  C   UNL     1       8.873  15.615  20.054  0.00  0.00    +0.000 A 
ATOM     17  C   UNL     1       9.514  16.221  18.979  0.00  0.00    +0.000 A 
ATOM     18  C   UNL     1      10.026  15.410  17.982  0.00  0.00    +0.000 A 
ATOM     19  N   UNL     1       9.929  14.064  17.983  0.00  0.00    +0.000 NA
ENDBRANCH  11  14
ENDBRANCH   8   9
ENDBRANCH   5   8
BRANCH   6  20
ATOM     20  O   UNL     1       4.489   6.865  18.192  0.00  0.00    +0.000 OA
BRANCH  20  21
ATOM     21  C   UNL     1       3.204   7.229  17.648  0.00  0.00    +0.000 C 
BRANCH  21  22
ATOM     22  C   UNL     1       2.291   8.013  18.573  0.00  0.00    +0.000 A 
ATOM     23  C   UNL     1       2.104   7.580  19.903  0.00  0.00    +0.000 A 
ATOM     24  C   UNL     1       1.233   8.261  20.758  0.00  0.00    +0.000 A 
ATOM     25  C   UNL     1       0.562   9.395  20.309  0.00  0.00    +0.000 A 
ATOM     26  C   UNL     1       0.776   9.860  19.010  0.00  0.00    +0.000 A 
ATOM     27  C   UNL     1       1.643   9.174  18.151  0.00  0.00    +0.000 A 
ENDBRANCH  21  22
ENDBRANCH  20  21
ENDBRANCH   6  20
BRANCH   7  28
ATOM     28  O   UNL     1       4.476   4.354  16.443  0.00  0.00    +0.000 OA
BRANCH  28  29
ATOM     29  C   UNL     1       4.423   3.308  17.408  0.00  0.00    +0.000 C 
BRANCH  29  30
ATOM     30  C   UNL     1       3.287   3.508  18.380  0.00  0.00    +0.000 A 
ATOM     31  C   UNL     1       3.564   3.862  19.708  0.00  0.00    +0.000 A 
ATOM     32  C   UNL     1       2.526   4.085  20.614  0.00  0.00    +0.000 A 
ATOM     33  C   UNL     1       1.200   3.968  20.201  0.00  0.00    +0.000 A 
ATOM     34  C   UNL     1       0.911   3.630  18.881  0.00  0.00    +0.000 A 
ATOM     35  C   UNL     1       1.948   3.407  17.975  0.00  0.00    +0.000 A 
ENDBRANCH  29  30
ENDBRANCH  28  29
ENDBRANCH   7  28
TORSDOF 9
ENDMDL
MODEL 3
REMARK VINA RESULT:      -7.7      1.737      3.987
REMARK  Name = 
REMARK  9 active torsions:
REMARK  status: ('A' for Active; 'I' for Inactive)
REMARK    1  A    between atoms: C_5  and  C_6
REMARK    2  A    between atoms: C_6  and  N_7
REMARK    3  A    between atoms: C_9  and  C_10
REMARK    4  A    between atoms: C_18  and  O_19
REMARK    5  A    between atoms: O_19  and  C_20
REMARK    6  A    between atoms: C_20  and  C_21
REMARK    7  A    between atoms: C_27  and  O_28
REMARK    8  A    between atoms: O_28  and  C_29
REMARK    9  A    between atoms: C_29  and  C_30
REMARK                            x       y       z     vdW  Elec       q    Type
REMARK                         _______ _______ _______ _____ _____    ______ ____
ROOT
ATOM      1  O   UNL     1       3.030   8.514  17.147  0.00  0.00    +0.000 OA
ATOM      2  C   UNL     1       2.649   8.117  18.238  0.00  0.00    +0.000 C 
ATOM      3  O   UNL     1       2.077   8.923  19.186  0.00  0.00    +0.000 OA
ATOM      4  C   UNL     1       1.689   8.090  20.222  0.00  0.00    +0.000 C 
ATOM      5  C   UNL     1       1.022   8.586  21.273  0.00  0.00    +0.000 C 
ATOM      6  C   UNL     1       2.134   6.754  19.943  0.00  0.00    +0.000 C 
ATOM      7  C   UNL     1       2.754   6.738  18.760  0.00  0.00    +0.000 C 
ENDROOT
BRANCH   5   8
ATOM      8  C   UNL     1       0.640  10.039  21.470  0.00  0.00    +0.000 C 
BRANCH   8   9
ATOM      9  N   UNL     1      -0.423  10.552  20.614  0.00  0.00    +0.000 N 
ATOM     10  C   UNL     1      -0.802  10.100  19.386  0.00  0.00    +0.000 A 
ATOM     11  C   UNL     1      -1.821  10.949  19.012  0.00  0.00    +0.000 A 
ATOM     12  N   UNL     1      -2.048  11.847  20.026  0.00  0.00    +0.000 NA
ATOM     13  N   UNL     1      -1.197  11.584  21.012  0.00  0.00    +0.000 NA
BRANCH  11  14
ATOM     14  C   UNL     1      -2.555  10.888  17.760  0.00  0.00    +0.000 A 
ATOM     15  C   UNL     1      -3.793  11.506  17.621  0.00  0.00    +0.000 A 
ATOM     16  C   UNL     1      -4.477  11.371  16.413  0.00  0.00    +0.000 A 
ATOM     17  C   UNL     1      -3.905  10.633  15.384  0.00  0.00    +0.000 A 
ATOM     18  C   UNL     1      -2.663  10.063  15.600  0.00  0.00    +0.000 A 
ATOM     19  N   UNL     1      -1.978  10.170  16.758  0.00  0.00    +0.000 NA
ENDBRANCH  11  14
ENDBRANCH   8   9
ENDBRANCH   5   8
BRANCH   6  20
ATOM     20  O   UNL     1       1.945   5.762  20.869  0.00  0.00    +0.000 OA
BRANCH  20  21
ATOM     21  C   UNL     1       1.194   4.595  20.473  0.00  0.00    +0.000 C 
BRANCH  21  22
ATOM     22  C   UNL     1       1.974   3.528  19.727  0.00  0.00    +0.000 A 
ATOM     23  C   UNL     1       3.119   2.955  20.320  0.00  0.00    +0.000 A 
ATOM     24  C   UNL     1       3.878   2.005  19.630  0.00  0.00    +0.000 A 
ATOM     25  C   UNL     1       3.490   1.594  18.359  0.00  0.00    +0.000 A 
ATOM     26  C   UNL     1       2.333   2.118  17.782  0.00  0.00    +0.000 A 
ATOM     27  C   UNL     1       1.577   3.076  18.468  0.00  0.00    +0.000 A 
ENDBRANCH  21  22
ENDBRANCH  20  21
ENDBRANCH   6  20
BRANCH   7  28
ATOM     28  O   UNL     1       3.337   5.676  18.145  0.00  0.00    +0.000 OA
BRANCH  28  29
ATOM     29  C   UNL     1       4.746   5.525  18.291  0.00  0.00    +0.000 C 
BRANCH  29  30
ATOM     30  C   UNL     1       5.399   5.133  16.990  0.00  0.00    +0.000 A 
ATOM     31  C   UNL     1       6.725   5.513  16.737  0.00  0.00    +0.000 A 
ATOM     32  C   UNL     1       7.359   5.131  15.554  0.00  0.00    +0.000 A 
ATOM     33  C   UNL     1       6.681   4.356  14.615  0.00  0.00    +0.000 A 
ATOM     34  C   UNL     1       5.368   3.959  14.861  0.00  0.00    +0.000 A 
ATOM     35  C   UNL     1       4.733   4.341  16.043  0.00  0.00    +0.000 A 
ENDBRANCH  29  30
ENDBRANCH  28  29
ENDBRANCH   7  28
TORSDOF 9
ENDMDL
MODEL 4
REMARK VINA RESULT:      -7.7      1.640      3.905
REMARK  Name = 
REMARK  9 active torsions:
REMARK  status: ('A' for Active; 'I' for Inactive)
REMARK    1  A    between atoms: C_5  and  C_6
REMARK    2  A    between atoms: C_6  and  N_7
REMARK    3  A    between atoms: C_9  and  C_10
REMARK    4  A    between atoms: C_18  and  O_19
REMARK    5  A    between atoms: O_19  and  C_20
REMARK    6  A    between atoms: C_20  and  C_21
REMARK    7  A    between atoms: C_27  and  O_28
REMARK    8  A    between atoms: O_28  and  C_29
REMARK    9  A    between atoms: C_29  and  C_30
REMARK                            x       y       z     vdW  Elec       q    Type
REMARK                         _______ _______ _______ _____ _____    ______ ____
ROOT
ATOM      1  O   UNL     1       2.724   8.742  17.235  0.00  0.00    +0.000 OA
ATOM      2  C   UNL     1       2.450   8.267  18.327  0.00  0.00    +0.000 C 
ATOM      3  O   UNL     1       1.874   8.977  19.347  0.00  0.00    +0.000 OA
ATOM      4  C   UNL     1       1.629   8.069  20.363  0.00  0.00    +0.000 C 
ATOM      5  C   UNL     1       0.993   8.457  21.476  0.00  0.00    +0.000 C 
ATOM      6  C   UNL     1       2.171   6.792  19.994  0.00  0.00    +0.000 C 
ATOM      7  C   UNL     1       2.711   6.883  18.776  0.00  0.00    +0.000 C 
ENDROOT
BRANCH   5   8
ATOM      8  C   UNL     1       0.497   9.861  21.766  0.00  0.00    +0.000 C 
BRANCH   8   9
ATOM      9  N   UNL     1      -0.166  10.554  20.668  0.00  0.00    +0.000 N 
ATOM     10  C   UNL     1      -1.218  10.123  19.919  0.00  0.00    +0.000 A 
ATOM     11  C   UNL     1      -1.425  11.138  19.010  0.00  0.00    +0.000 A 
ATOM     12  N   UNL     1      -0.532  12.151  19.262  0.00  0.00    +0.000 NA
ATOM     13  N   UNL     1       0.225  11.790  20.293  0.00  0.00    +0.000 NA
BRANCH  11  14
ATOM     14  C   UNL     1      -2.441  11.149  17.972  0.00  0.00    +0.000 A 
ATOM     15  C   UNL     1      -2.137  10.788  16.663  0.00  0.00    +0.000 A 
ATOM     16  C   UNL     1      -3.140  10.867  15.697  0.00  0.00    +0.000 A 
ATOM     17  C   UNL     1      -4.409  11.296  16.064  0.00  0.00    +0.000 A 
ATOM     18  C   UNL     1      -4.631  11.622  17.390  0.00  0.00    +0.000 A 
ATOM     19  N   UNL     1      -3.682  11.562  18.348  0.00  0.00    +0.000 NA
ENDBRANCH  11  14
ENDBRANCH   8   9
ENDBRANCH   5   8
BRANCH   6  20
ATOM     20  O   UNL     1       2.131   5.748  20.881  0.00  0.00    +0.000 OA
BRANCH  20  21
ATOM     21  C   UNL     1       1.384   4.570  20.513  0.00  0.00    +0.000 C 
BRANCH  21  22
ATOM     22  C   UNL     1       2.149   3.521  19.727  0.00  0.00    +0.000 A 
ATOM     23  C   UNL     1       1.678   3.115  18.460  0.00  0.00    +0.000 A 
ATOM     24  C   UNL     1       2.342   2.117  17.740  0.00  0.00    +0.000 A 
ATOM     25  C   UNL     1       3.494   1.535  18.258  0.00  0.00    +0.000 A 
ATOM     26  C   UNL     1       3.996   1.962  19.488  0.00  0.00    +0.000 A 
ATOM     27  C   UNL     1       3.329   2.955  20.214  0.00  0.00    +0.000 A 
ENDBRANCH  21  22
ENDBRANCH  20  21
ENDBRANCH   6  20
BRANCH   7  28
ATOM     28  O   UNL     1       3.343   5.904  18.075  0.00  0.00    +0.000 OA
BRANCH  28  29
ATOM     29  C   UNL     1       4.743   5.748  18.285  0.00  0.00    +0.000 C 
BRANCH  29  30
ATOM     30  C   UNL     1       5.436   5.240  17.045  0.00  0.00    +0.000 A 
ATOM     31  C   UNL     1       4.749   4.393  16.164  0.00  0.00    +0.000 A 
ATOM     32  C   UNL     1       5.360   3.940  14.994  0.00  0.00    +0.000 A 
ATOM     33  C   UNL     1       6.660   4.335  14.686  0.00  0.00    +0.000 A 
ATOM     34  C   UNL     1       7.349   5.187  15.545  0.00  0.00    +0.000 A 
ATOM     35  C   UNL     1       6.739   5.641  16.715  0.00  0.00    +0.000 A 
ENDBRANCH  29  30
ENDBRANCH  28  29
ENDBRANCH   7  28
TORSDOF 9
ENDMDL
MODEL 5
REMARK VINA RESULT:      -7.7      1.643      3.928
REMARK  Name = 
REMARK  9 active torsions:
REMARK  status: ('A' for Active; 'I' for Inactive)
REMARK    1  A    between atoms: C_5  and  C_6
REMARK    2  A    between atoms: C_6  and  N_7
REMARK    3  A    between atoms: C_9  and  C_10
REMARK    4  A    between atoms: C_18  and  O_19
REMARK    5  A    between atoms: O_19  and  C_20
REMARK    6  A    between atoms: C_20  and  C_21
REMARK    7  A    between atoms: C_27  and  O_28
REMARK    8  A    between atoms: O_28  and  C_29
REMARK    9  A    between atoms: C_29  and  C_30
REMARK                            x       y       z     vdW  Elec       q    Type
REMARK                         _______ _______ _______ _____ _____    ______ ____
ROOT
ATOM      1  O   UNL     1       2.388   9.034  17.224  0.00  0.00    +0.000 OA
ATOM      2  C   UNL     1       2.208   8.515  18.315  0.00  0.00    +0.000 C 
ATOM      3  O   UNL     1       1.681   9.171  19.396  0.00  0.00    +0.000 OA
ATOM      4  C   UNL     1       1.537   8.223  20.395  0.00  0.00    +0.000 C 
ATOM      5  C   UNL     1       0.967   8.553  21.561  0.00  0.00    +0.000 C 
ATOM      6  C   UNL     1       2.092   6.978  19.945  0.00  0.00    +0.000 C 
ATOM      7  C   UNL     1       2.543   7.126  18.697  0.00  0.00    +0.000 C 
ENDROOT
BRANCH   5   8
ATOM      8  C   UNL     1       0.448   9.929  21.932  0.00  0.00    +0.000 C 
BRANCH   8   9
ATOM      9  N   UNL     1      -0.250  10.663  20.884  0.00  0.00    +0.000 N 
ATOM     10  C   UNL     1      -1.236  10.213  20.060  0.00  0.00    +0.000 A 
ATOM     11  C   UNL     1      -1.516  11.290  19.247  0.00  0.00    +0.000 A 
ATOM     12  N   UNL     1      -0.730  12.351  19.626  0.00  0.00    +0.000 NA
ATOM     13  N   UNL     1       0.031  11.962  20.643  0.00  0.00    +0.000 NA
BRANCH  11  14
ATOM     14  C   UNL     1      -2.501  11.310  18.179  0.00  0.00    +0.000 A 
ATOM     15  C   UNL     1      -3.825  11.656  18.428  0.00  0.00    +0.000 A 
ATOM     16  C   UNL     1      -4.739  11.607  17.376  0.00  0.00    +0.000 A 
ATOM     17  C   UNL     1      -4.305  11.223  16.112  0.00  0.00    +0.000 A 
ATOM     18  C   UNL     1      -2.968  10.910  15.948  0.00  0.00    +0.000 A 
ATOM     19  N   UNL     1      -2.059  10.942  16.946  0.00  0.00    +0.000 NA
ENDBRANCH  11  14
ENDBRANCH   8   9
ENDBRANCH   5   8
BRANCH   6  20
ATOM     20  O   UNL     1       2.148   5.906  20.797  0.00  0.00    +0.000 OA
BRANCH  20  21
ATOM     21  C   UNL     1       1.377   4.732  20.466  0.00  0.00    +0.000 C 
BRANCH  21  22
ATOM     22  C   UNL     1       2.124   3.635  19.729  0.00  0.00    +0.000 A 
ATOM     23  C   UNL     1       1.614   3.137  18.511  0.00  0.00    +0.000 A 
ATOM     24  C   UNL     1       2.262   2.096  17.841  0.00  0.00    +0.000 A 
ATOM     25  C   UNL     1       3.437   1.560  18.359  0.00  0.00    +0.000 A 
ATOM     26  C   UNL     1       3.977   2.077  19.537  0.00  0.00    +0.000 A 
ATOM     27  C   UNL     1       3.325   3.114  20.214  0.00  0.00    +0.000 A 
ENDBRANCH  21  22
ENDBRANCH  20  21
ENDBRANCH   6  20
BRANCH   7  28
ATOM     28  O   UNL     1       3.156   6.193  17.922  0.00  0.00    +0.000 OA
BRANCH  28  29
ATOM     29  C   UNL     1       4.503   5.859  18.240  0.00  0.00    +0.000 C 
BRANCH  29  30
ATOM     30  C   UNL     1       5.247   5.343  17.033  0.00  0.00    +0.000 A 
ATOM     31  C   UNL     1       6.440   5.962  16.636  0.00  0.00    +0.000 A 
ATOM     32  C   UNL     1       7.160   5.479  15.543  0.00  0.00    +0.000 A 
ATOM     33  C   UNL     1       6.704   4.365  14.842  0.00  0.00    +0.000 A 
ATOM     34  C   UNL     1       5.527   3.731  15.235  0.00  0.00    +0.000 A 
ATOM     35  C   UNL     1       4.806   4.214  16.327  0.00  0.00    +0.000 A 
ENDBRANCH  29  30
ENDBRANCH  28  29
ENDBRANCH   7  28
TORSDOF 9
ENDMDL
MODEL 6
REMARK VINA RESULT:      -7.6      5.455      8.958
REMARK  Name = 
REMARK  9 active torsions:
REMARK  status: ('A' for Active; 'I' for Inactive)
REMARK    1  A    between atoms: C_5  and  C_6
REMARK    2  A    between atoms: C_6  and  N_7
REMARK    3  A    between atoms: C_9  and  C_10
REMARK    4  A    between atoms: C_18  and  O_19
REMARK    5  A    between atoms: O_19  and  C_20
REMARK    6  A    between atoms: C_20  and  C_21
REMARK    7  A    between atoms: C_27  and  O_28
REMARK    8  A    between atoms: O_28  and  C_29
REMARK    9  A    between atoms: C_29  and  C_30
REMARK                            x       y       z     vdW  Elec       q    Type
REMARK                         _______ _______ _______ _____ _____    ______ ____
ROOT
ATOM      1  O   UNL     1       7.196   4.417  15.288  0.00  0.00    +0.000 OA
ATOM      2  C   UNL     1       6.781   5.257  16.073  0.00  0.00    +0.000 C 
ATOM      3  O   UNL     1       7.537   6.295  16.550  0.00  0.00    +0.000 OA
ATOM      4  C   UNL     1       6.686   7.074  17.317  0.00  0.00    +0.000 C 
ATOM      5  C   UNL     1       7.125   8.218  17.859  0.00  0.00    +0.000 C 
ATOM      6  C   UNL     1       5.404   6.433  17.396  0.00  0.00    +0.000 C 
ATOM      7  C   UNL     1       5.435   5.306  16.681  0.00  0.00    +0.000 C 
ENDROOT
BRANCH   5   8
ATOM      8  C   UNL     1       8.529   8.774  17.731  0.00  0.00    +0.000 C 
BRANCH   8   9
ATOM      9  N   UNL     1       8.745  10.117  18.256  0.00  0.00    +0.000 N 
ATOM     10  C   UNL     1       8.492  11.307  17.643  0.00  0.00    +0.000 A 
ATOM     11  C   UNL     1       8.904  12.252  18.558  0.00  0.00    +0.000 A 
ATOM     12  N   UNL     1       9.346  11.614  19.691  0.00  0.00    +0.000 NA
ATOM     13  N   UNL     1       9.229  10.304  19.502  0.00  0.00    +0.000 NA
BRANCH  11  14
ATOM     14  C   UNL     1       8.851  13.691  18.367  0.00  0.00    +0.000 A 
ATOM     15  C   UNL     1      10.000  14.422  18.083  0.00  0.00    +0.000 A 
ATOM     16  C   UNL     1       9.899  15.808  17.961  0.00  0.00    +0.000 A 
ATOM     17  C   UNL     1       8.661  16.419  18.120  0.00  0.00    +0.000 A 
ATOM     18  C   UNL     1       7.566  15.617  18.387  0.00  0.00    +0.000 A 
ATOM     19  N   UNL     1       7.631  14.275  18.516  0.00  0.00    +0.000 NA
ENDBRANCH  11  14
ENDBRANCH   8   9
ENDBRANCH   5   8
BRANCH   6  20
ATOM     20  O   UNL     1       4.417   6.972  18.178  0.00  0.00    +0.000 OA
BRANCH  20  21
ATOM     21  C   UNL     1       3.367   7.720  17.531  0.00  0.00    +0.000 C 
BRANCH  21  22
ATOM     22  C   UNL     1       2.313   8.312  18.449  0.00  0.00    +0.000 A 
ATOM     23  C   UNL     1       1.474   9.344  17.977  0.00  0.00    +0.000 A 
ATOM     24  C   UNL     1       0.529   9.935  18.821  0.00  0.00    +0.000 A 
ATOM     25  C   UNL     1       0.389   9.487  20.130  0.00  0.00    +0.000 A 
ATOM     26  C   UNL     1       1.180   8.435  20.594  0.00  0.00    +0.000 A 
ATOM     27  C   UNL     1       2.132   7.848  19.753  0.00  0.00    +0.000 A 
ENDBRANCH  21  22
ENDBRANCH  20  21
ENDBRANCH   6  20
BRANCH   7  28
ATOM     28  O   UNL     1       4.433   4.402  16.517  0.00  0.00    +0.000 OA
BRANCH  28  29
ATOM     29  C   UNL     1       4.414   3.278  17.391  0.00  0.00    +0.000 C 
BRANCH  29  30
ATOM     30  C   UNL     1       3.188   3.279  18.270  0.00  0.00    +0.000 A 
ATOM     31  C   UNL     1       3.107   4.173  19.347  0.00  0.00    +0.000 A 
ATOM     32  C   UNL     1       1.967   4.213  20.151  0.00  0.00    +0.000 A 
ATOM     33  C   UNL     1       0.891   3.370  19.882  0.00  0.00    +0.000 A 
ATOM     34  C   UNL     1       0.952   2.488  18.806  0.00  0.00    +0.000 A 
ATOM     35  C   UNL     1       2.091   2.446  18.002  0.00  0.00    +0.000 A 
ENDBRANCH  29  30
ENDBRANCH  28  29
ENDBRANCH   7  28
TORSDOF 9
ENDMDL
MODEL 7
REMARK VINA RESULT:      -7.5      1.064      1.297
REMARK  Name = 
REMARK  9 active torsions:
REMARK  status: ('A' for Active; 'I' for Inactive)
REMARK    1  A    between atoms: C_5  and  C_6
REMARK    2  A    between atoms: C_6  and  N_7
REMARK    3  A    between atoms: C_9  and  C_10
REMARK    4  A    between atoms: C_18  and  O_19
REMARK    5  A    between atoms: O_19  and  C_20
REMARK    6  A    between atoms: C_20  and  C_21
REMARK    7  A    between atoms: C_27  and  O_28
REMARK    8  A    between atoms: O_28  and  C_29
REMARK    9  A    between atoms: C_29  and  C_30
REMARK                            x       y       z     vdW  Elec       q    Type
REMARK                         _______ _______ _______ _____ _____    ______ ____
ROOT
ATOM      1  O   UNL     1       1.068   8.482  22.514  0.00  0.00    +0.000 OA
ATOM      2  C   UNL     1       1.226   8.573  21.306  0.00  0.00    +0.000 C 
ATOM      3  O   UNL     1       0.909   9.688  20.576  0.00  0.00    +0.000 OA
ATOM      4  C   UNL     1       1.331   9.437  19.281  0.00  0.00    +0.000 C 
ATOM      5  C   UNL     1       1.225  10.386  18.341  0.00  0.00    +0.000 C 
ATOM      6  C   UNL     1       1.820   8.089  19.197  0.00  0.00    +0.000 C 
ATOM      7  C   UNL     1       1.738   7.520  20.402  0.00  0.00    +0.000 C 
ENDROOT
BRANCH   5   8
ATOM      8  C   UNL     1       0.650  11.773  18.548  0.00  0.00    +0.000 C 
BRANCH   8   9
ATOM      9  N   UNL     1      -0.794  11.856  18.734  0.00  0.00    +0.000 N 
ATOM     10  C   UNL     1      -1.474  12.360  19.801  0.00  0.00    +0.000 A 
ATOM     11  C   UNL     1      -2.800  12.166  19.479  0.00  0.00    +0.000 A 
ATOM     12  N   UNL     1      -2.878  11.598  18.231  0.00  0.00    +0.000 NA
ATOM     13  N   UNL     1      -1.641  11.427  17.775  0.00  0.00    +0.000 NA
BRANCH  11  14
ATOM     14  C   UNL     1      -3.933  12.530  20.312  0.00  0.00    +0.000 A 
ATOM     15  C   UNL     1      -5.191  12.750  19.760  0.00  0.00    +0.000 A 
ATOM     16  C   UNL     1      -6.231  13.147  20.600  0.00  0.00    +0.000 A 
ATOM     17  C   UNL     1      -5.987  13.307  21.959  0.00  0.00    +0.000 A 
ATOM     18  C   UNL     1      -4.711  13.054  22.428  0.00  0.00    +0.000 A 
ATOM     19  N   UNL     1      -3.682  12.673  21.642  0.00  0.00    +0.000 NA
ENDBRANCH  11  14
ENDBRANCH   8   9
ENDBRANCH   5   8
BRANCH   6  20
ATOM     20  O   UNL     1       2.213   7.577  17.989  0.00  0.00    +0.000 OA
BRANCH  20  21
ATOM     21  C   UNL     1       3.578   7.784  17.572  0.00  0.00    +0.000 C 
BRANCH  21  22
ATOM     22  C   UNL     1       4.456   6.546  17.543  0.00  0.00    +0.000 A 
ATOM     23  C   UNL     1       4.885   5.963  18.754  0.00  0.00    +0.000 A 
ATOM     24  C   UNL     1       5.731   4.850  18.748  0.00  0.00    +0.000 A 
ATOM     25  C   UNL     1       6.135   4.290  17.541  0.00  0.00    +0.000 A 
ATOM     26  C   UNL     1       5.679   4.829  16.337  0.00  0.00    +0.000 A 
ATOM     27  C   UNL     1       4.838   5.948  16.341  0.00  0.00    +0.000 A 
ENDBRANCH  21  22
ENDBRANCH  20  21
ENDBRANCH   6  20
BRANCH   7  28
ATOM     28  O   UNL     1       2.080   6.249  20.743  0.00  0.00    +0.000 OA
BRANCH  28  29
ATOM     29  C   UNL     1       1.166   5.211  20.402  0.00  0.00    +0.000 C 
BRANCH  29  30
ATOM     30  C   UNL     1       1.817   4.163  19.535  0.00  0.00    +0.000 A 
ATOM     31  C   UNL     1       1.682   4.233  18.141  0.00  0.00    +0.000 A 
ATOM     32  C   UNL     1       2.305   3.293  17.319  0.00  0.00    +0.000 A 
ATOM     33  C   UNL     1       3.078   2.278  17.879  0.00  0.00    +0.000 A 
ATOM     34  C   UNL     1       3.231   2.204  19.262  0.00  0.00    +0.000 A 
ATOM     35  C   UNL     1       2.609   3.144  20.084  0.00  0.00    +0.000 A 
ENDBRANCH  29  30
ENDBRANCH  28  29
ENDBRANCH   7  28
TORSDOF 9
ENDMDL
MODEL 8
REMARK VINA RESULT:      -7.4      1.629      3.867
REMARK  Name = 
REMARK  9 active torsions:
REMARK  status: ('A' for Active; 'I' for Inactive)
REMARK    1  A    between atoms: C_5  and  C_6
REMARK    2  A    between atoms: C_6  and  N_7
REMARK    3  A    between atoms: C_9  and  C_10
REMARK    4  A    between atoms: C_18  and  O_19
REMARK    5  A    between atoms: O_19  and  C_20
REMARK    6  A    between atoms: C_20  and  C_21
REMARK    7  A    between atoms: C_27  and  O_28
REMARK    8  A    between atoms: O_28  and  C_29
REMARK    9  A    between atoms: C_29  and  C_30
REMARK                            x       y       z     vdW  Elec       q    Type
REMARK                         _______ _______ _______ _____ _____    ______ ____
ROOT
ATOM      1  O   UNL     1       2.991   8.446  17.037  0.00  0.00    +0.000 OA
ATOM      2  C   UNL     1       2.670   8.048  18.146  0.00  0.00    +0.000 C 
ATOM      3  O   UNL     1       2.103   8.842  19.108  0.00  0.00    +0.000 OA
ATOM      4  C   UNL     1       1.791   8.007  20.168  0.00  0.00    +0.000 C 
ATOM      5  C   UNL     1       1.147   8.488  21.239  0.00  0.00    +0.000 C 
ATOM      6  C   UNL     1       2.281   6.687  19.887  0.00  0.00    +0.000 C 
ATOM      7  C   UNL     1       2.854   6.682  18.680  0.00  0.00    +0.000 C 
ENDROOT
BRANCH   5   8
ATOM      8  C   UNL     1       0.711   9.927  21.434  0.00  0.00    +0.000 C 
BRANCH   8   9
ATOM      9  N   UNL     1       0.023  10.555  20.313  0.00  0.00    +0.000 N 
ATOM     10  C   UNL     1      -1.167  10.197  19.754  0.00  0.00    +0.000 A 
ATOM     11  C   UNL     1      -1.337  11.092  18.720  0.00  0.00    +0.000 A 
ATOM     12  N   UNL     1      -0.282  11.972  18.713  0.00  0.00    +0.000 NA
ATOM     13  N   UNL     1       0.538  11.644  19.705  0.00  0.00    +0.000 NA
BRANCH  11  14
ATOM     14  C   UNL     1      -2.463  11.119  17.802  0.00  0.00    +0.000 A 
ATOM     15  C   UNL     1      -2.299  10.826  16.452  0.00  0.00    +0.000 A 
ATOM     16  C   UNL     1      -3.406  10.918  15.608  0.00  0.00    +0.000 A 
ATOM     17  C   UNL     1      -4.636  11.292  16.134  0.00  0.00    +0.000 A 
ATOM     18  C   UNL     1      -4.716  11.552  17.491  0.00  0.00    +0.000 A 
ATOM     19  N   UNL     1      -3.664  11.477  18.333  0.00  0.00    +0.000 NA
ENDBRANCH  11  14
ENDBRANCH   8   9
ENDBRANCH   5   8
BRANCH   6  20
ATOM     20  O   UNL     1       2.170   5.700  20.830  0.00  0.00    +0.000 OA
BRANCH  20  21
ATOM     21  C   UNL     1       1.398   4.527  20.503  0.00  0.00    +0.000 C 
BRANCH  21  22
ATOM     22  C   UNL     1       2.125   3.456  19.709  0.00  0.00    +0.000 A 
ATOM     23  C   UNL     1       3.282   2.853  20.245  0.00  0.00    +0.000 A 
ATOM     24  C   UNL     1       3.992   1.898  19.511  0.00  0.00    +0.000 A 
ATOM     25  C   UNL     1       3.544   1.514  18.252  0.00  0.00    +0.000 A 
ATOM     26  C   UNL     1       2.374   2.070  17.731  0.00  0.00    +0.000 A 
ATOM     27  C   UNL     1       1.666   3.031  18.461  0.00  0.00    +0.000 A 
ENDBRANCH  21  22
ENDBRANCH  20  21
ENDBRANCH   6  20
BRANCH   7  28
ATOM     28  O   UNL     1       3.456   5.636  18.054  0.00  0.00    +0.000 OA
BRANCH  28  29
ATOM     29  C   UNL     1       4.878   5.578  18.096  0.00  0.00    +0.000 C 
BRANCH  29  30
ATOM     30  C   UNL     1       5.452   5.099  16.786  0.00  0.00    +0.000 A 
ATOM     31  C   UNL     1       6.744   5.492  16.409  0.00  0.00    +0.000 A 
ATOM     32  C   UNL     1       7.306   5.031  15.217  0.00  0.00    +0.000 A 
ATOM     33  C   UNL     1       6.589   4.165  14.395  0.00  0.00    +0.000 A 
ATOM     34  C   UNL     1       5.311   3.755  14.764  0.00  0.00    +0.000 A 
ATOM     35  C   UNL     1       4.748   4.215  15.955  0.00  0.00    +0.000 A 
ENDBRANCH  29  30
ENDBRANCH  28  29
ENDBRANCH   7  28
TORSDOF 9
ENDMDL
MODEL 9
REMARK VINA RESULT:      -7.4      0.989      1.647
REMARK  Name = 
REMARK  9 active torsions:
REMARK  status: ('A' for Active; 'I' for Inactive)
REMARK    1  A    between atoms: C_5  and  C_6
REMARK    2  A    between atoms: C_6  and  N_7
REMARK    3  A    between atoms: C_9  and  C_10
REMARK    4  A    between atoms: C_18  and  O_19
REMARK    5  A    between atoms: O_19  and  C_20
REMARK    6  A    between atoms: C_20  and  C_21
REMARK    7  A    between atoms: C_27  and  O_28
REMARK    8  A    between atoms: O_28  and  C_29
REMARK    9  A    between atoms: C_29  and  C_30
REMARK                            x       y       z     vdW  Elec       q    Type
REMARK                         _______ _______ _______ _____ _____    ______ ____
ROOT
ATOM      1  O   UNL     1       1.089   8.464  22.510  0.00  0.00    +0.000 OA
ATOM      2  C   UNL     1       1.294   8.517  21.307  0.00  0.00    +0.000 C 
ATOM      3  O   UNL     1       1.094   9.639  20.547  0.00  0.00    +0.000 OA
ATOM      4  C   UNL     1       1.537   9.329  19.272  0.00  0.00    +0.000 C 
ATOM      5  C   UNL     1       1.541  10.264  18.313  0.00  0.00    +0.000 C 
ATOM      6  C   UNL     1       1.916   7.945  19.229  0.00  0.00    +0.000 C 
ATOM      7  C   UNL     1       1.748   7.409  20.440  0.00  0.00    +0.000 C 
ENDROOT
BRANCH   5   8
ATOM      8  C   UNL     1       1.074  11.698  18.476  0.00  0.00    +0.000 C 
BRANCH   8   9
ATOM      9  N   UNL     1      -0.302  11.885  18.919  0.00  0.00    +0.000 N 
ATOM     10  C   UNL     1      -1.447  11.587  18.245  0.00  0.00    +0.000 A 
ATOM     11  C   UNL     1      -2.455  11.989  19.095  0.00  0.00    +0.000 A 
ATOM     12  N   UNL     1      -1.896  12.471  20.253  0.00  0.00    +0.000 NA
ATOM     13  N   UNL     1      -0.574  12.387  20.142  0.00  0.00    +0.000 NA
BRANCH  11  14
ATOM     14  C   UNL     1      -3.879  11.892  18.823  0.00  0.00    +0.000 A 
ATOM     15  C   UNL     1      -4.348  11.401  17.609  0.00  0.00    +0.000 A 
ATOM     16  C   UNL     1      -5.724  11.380  17.383  0.00  0.00    +0.000 A 
ATOM     17  C   UNL     1      -6.586  11.840  18.372  0.00  0.00    +0.000 A 
ATOM     18  C   UNL     1      -6.037  12.298  19.556  0.00  0.00    +0.000 A 
ATOM     19  N   UNL     1      -4.711  12.338  19.804  0.00  0.00    +0.000 NA
ENDBRANCH  11  14
ENDBRANCH   8   9
ENDBRANCH   5   8
BRANCH   6  20
ATOM     20  O   UNL     1       2.307   7.378  18.044  0.00  0.00    +0.000 OA
BRANCH  20  21
ATOM     21  C   UNL     1       3.663   7.592  17.601  0.00  0.00    +0.000 C 
BRANCH  21  22
ATOM     22  C   UNL     1       4.541   6.355  17.538  0.00  0.00    +0.000 A 
ATOM     23  C   UNL     1       4.829   5.764  16.290  0.00  0.00    +0.000 A 
ATOM     24  C   UNL     1       5.598   4.599  16.214  0.00  0.00    +0.000 A 
ATOM     25  C   UNL     1       6.110   4.027  17.374  0.00  0.00    +0.000 A 
ATOM     26  C   UNL     1       5.871   4.629  18.610  0.00  0.00    +0.000 A 
ATOM     27  C   UNL     1       5.095   5.791  18.688  0.00  0.00    +0.000 A 
ENDBRANCH  21  22
ENDBRANCH  20  21
ENDBRANCH   6  20
BRANCH   7  28
ATOM     28  O   UNL     1       1.973   6.121  20.814  0.00  0.00    +0.000 OA
BRANCH  28  29
ATOM     29  C   UNL     1       1.079   5.129  20.320  0.00  0.00    +0.000 C 
BRANCH  29  30
ATOM     30  C   UNL     1       1.792   4.124  19.450  0.00  0.00    +0.000 A 
ATOM     31  C   UNL     1       2.566   3.117  20.045  0.00  0.00    +0.000 A 
ATOM     32  C   UNL     1       3.206   2.157  19.259  0.00  0.00    +0.000 A 
ATOM     33  C   UNL     1       3.071   2.185  17.873  0.00  0.00    +0.000 A 
ATOM     34  C   UNL     1       2.293   3.171  17.270  0.00  0.00    +0.000 A 
ATOM     35  C   UNL     1       1.654   4.131  18.054  0.00  0.00    +0.000 A 
ENDBRANCH  29  30
ENDBRANCH  28  29
ENDBRANCH   7  28
TORSDOF 9
ENDMDL
