MODEL 1
REMARK VINA RESULT:      -8.0      0.000      0.000
REMARK  Name = 
REMARK  4 active torsions:
REMARK  status: ('A' for Active; 'I' for Inactive)
REMARK    1  A    between atoms: C_1  and  O_2
REMARK    2  A    between atoms: O_2  and  C_3
REMARK    3  A    between atoms: C_8  and  C_9
REMARK    4  A    between atoms: C_14  and  C_15
REMARK                            x       y       z     vdW  Elec       q    Type
REMARK                         _______ _______ _______ _____ _____    ______ ____
ROOT
ATOM      1  C   UNL     1       6.936   4.734  13.915  0.00  0.00    +0.000 C 
ATOM      2  O   UNL     1       7.979   5.267  14.282  0.00  0.00    +0.000 OA
ATOM      3  N   UNL     1       5.784   4.640  14.642  0.00  0.00    +0.000 N 
ATOM      4  C   UNL     1       5.631   4.983  15.943  0.00  0.00    +0.000 C 
ATOM      5  N   UNL     1       4.466   4.852  16.499  0.00  0.00    +0.000 NA
ATOM      6  C   UNL     1       4.632   5.416  17.882  0.00  0.00    +0.000 C 
ATOM      7  C   UNL     1       6.153   5.752  18.020  0.00  0.00    +0.000 C 
ATOM      8  N   UNL     1       6.645   5.452  16.707  0.00  0.00    +0.000 N 
ATOM      9  H   UNL     1       4.980   4.230  14.193  0.00  0.00    +0.000 HD
ATOM     10  H   UNL     1       7.371   6.008  16.261  0.00  0.00    +0.000 HD
ENDROOT
BRANCH   6  11
ATOM     11  C   UNL     1       3.579   6.489  18.169  0.00  0.00    +0.000 A 
ATOM     12  C   UNL     1       3.695   7.751  17.534  0.00  0.00    +0.000 A 
ATOM     13  C   UNL     1       2.794   8.790  17.744  0.00  0.00    +0.000 A 
ATOM     14  C   UNL     1       1.730   8.603  18.607  0.00  0.00    +0.000 A 
ATOM     15  C   UNL     1       1.574   7.370  19.236  0.00  0.00    +0.000 A 
ATOM     16  C   UNL     1       2.461   6.272  19.044  0.00  0.00    +0.000 A 
BRANCH  16  17
ATOM     17  C   UNL     1       2.105   4.982  19.735  0.00  0.00    +0.000 A 
ATOM     18  C   UNL     1       1.421   3.956  19.043  0.00  0.00    +0.000 A 
ATOM     19  C   UNL     1       1.065   2.744  19.650  0.00  0.00    +0.000 A 
ATOM     20  C   UNL     1       1.423   2.495  20.967  0.00  0.00    +0.000 A 
ATOM     21  C   UNL     1       2.087   3.481  21.683  0.00  0.00    +0.000 A 
ATOM     22  C   UNL     1       2.381   4.715  21.085  0.00  0.00    +0.000 A 
ENDBRANCH  16  17
ENDBRANCH   6  11
BRANCH   1  24
ATOM     23  C   UNL     1       5.569   3.377  12.596  0.00  0.00    +0.000 C 
ATOM     24  O   UNL     1       6.750   4.179  12.689  0.00  0.00    +0.000 OA
ENDBRANCH   1  24
TORSDOF 3
ENDMDL
MODEL 2
REMARK VINA RESULT:      -8.0      0.075      1.020
REMARK  Name = 
REMARK  4 active torsions:
REMARK  status: ('A' for Active; 'I' for Inactive)
REMARK    1  A    between atoms: C_1  and  O_2
REMARK    2  A    between atoms: O_2  and  C_3
REMARK    3  A    between atoms: C_8  and  C_9
REMARK    4  A    between atoms: C_14  and  C_15
REMARK                            x       y       z     vdW  Elec       q    Type
REMARK                         _______ _______ _______ _____ _____    ______ ____
ROOT
ATOM      1  C   UNL     1       6.904   4.680  13.928  0.00  0.00    +0.000 C 
ATOM      2  O   UNL     1       7.936   5.259  14.255  0.00  0.00    +0.000 OA
ATOM      3  N   UNL     1       5.768   4.581  14.679  0.00  0.00    +0.000 N 
ATOM      4  C   UNL     1       5.627   4.971  15.967  0.00  0.00    +0.000 C 
ATOM      5  N   UNL     1       4.476   4.828  16.549  0.00  0.00    +0.000 NA
ATOM      6  C   UNL     1       4.648   5.451  17.905  0.00  0.00    +0.000 C 
ATOM      7  C   UNL     1       6.159   5.838  18.003  0.00  0.00    +0.000 C 
ATOM      8  N   UNL     1       6.638   5.500  16.693  0.00  0.00    +0.000 N 
ATOM      9  H   UNL     1       4.970   4.129  14.261  0.00  0.00    +0.000 HD
ATOM     10  H   UNL     1       7.339   6.059  16.213  0.00  0.00    +0.000 HD
ENDROOT
BRANCH   6  11
ATOM     11  C   UNL     1       3.567   6.503  18.169  0.00  0.00    +0.000 A 
ATOM     12  C   UNL     1       3.678   7.772  17.546  0.00  0.00    +0.000 A 
ATOM     13  C   UNL     1       2.753   8.793  17.737  0.00  0.00    +0.000 A 
ATOM     14  C   UNL     1       1.667   8.580  18.566  0.00  0.00    +0.000 A 
ATOM     15  C   UNL     1       1.516   7.340  19.182  0.00  0.00    +0.000 A 
ATOM     16  C   UNL     1       2.427   6.259  19.008  0.00  0.00    +0.000 A 
BRANCH  16  17
ATOM     17  C   UNL     1       2.075   4.958  19.679  0.00  0.00    +0.000 A 
ATOM     18  C   UNL     1       2.435   4.720  21.027  0.00  0.00    +0.000 A 
ATOM     19  C   UNL     1       2.134   3.521  21.687  0.00  0.00    +0.000 A 
ATOM     20  C   UNL     1       1.418   2.529  21.033  0.00  0.00    +0.000 A 
ATOM     21  C   UNL     1       1.054   2.720  19.707  0.00  0.00    +0.000 A 
ATOM     22  C   UNL     1       1.418   3.897  19.037  0.00  0.00    +0.000 A 
ENDBRANCH  16  17
ENDBRANCH   6  11
BRANCH   1  24
ATOM     23  C   UNL     1       5.418   3.484  12.582  0.00  0.00    +0.000 C 
ATOM     24  O   UNL     1       6.715   4.070  12.729  0.00  0.00    +0.000 OA
ENDBRANCH   1  24
TORSDOF 3
ENDMDL
MODEL 3
REMARK VINA RESULT:      -7.6      4.621      7.094
REMARK  Name = 
REMARK  4 active torsions:
REMARK  status: ('A' for Active; 'I' for Inactive)
REMARK    1  A    between atoms: C_1  and  O_2
REMARK    2  A    between atoms: O_2  and  C_3
REMARK    3  A    between atoms: C_8  and  C_9
REMARK    4  A    between atoms: C_14  and  C_15
REMARK                            x       y       z     vdW  Elec       q    Type
REMARK                         _______ _______ _______ _____ _____    ______ ____
ROOT
ATOM      1  C   UNL     1      -0.525  10.585  18.635  0.00  0.00    +0.000 C 
ATOM      2  O   UNL     1      -1.030  10.376  19.734  0.00  0.00    +0.000 OA
ATOM      3  N   UNL     1       0.517   9.894  18.086  0.00  0.00    +0.000 N 
ATOM      4  C   UNL     1       1.272   8.961  18.711  0.00  0.00    +0.000 C 
ATOM      5  N   UNL     1       2.224   8.374  18.053  0.00  0.00    +0.000 NA
ATOM      6  C   UNL     1       2.771   7.343  19.001  0.00  0.00    +0.000 C 
ATOM      7  C   UNL     1       2.024   7.577  20.354  0.00  0.00    +0.000 C 
ATOM      8  N   UNL     1       1.091   8.609  20.005  0.00  0.00    +0.000 N 
ATOM      9  H   UNL     1       0.791  10.131  17.146  0.00  0.00    +0.000 HD
ATOM     10  H   UNL     1       0.148   8.640  20.388  0.00  0.00    +0.000 HD
ENDROOT
BRANCH   6  11
ATOM     11  C   UNL     1       2.780   5.954  18.358  0.00  0.00    +0.000 A 
ATOM     12  C   UNL     1       1.543   5.320  18.078  0.00  0.00    +0.000 A 
ATOM     13  C   UNL     1       1.453   4.054  17.508  0.00  0.00    +0.000 A 
ATOM     14  C   UNL     1       2.610   3.368  17.192  0.00  0.00    +0.000 A 
ATOM     15  C   UNL     1       3.844   3.966  17.437  0.00  0.00    +0.000 A 
ATOM     16  C   UNL     1       3.989   5.264  18.006  0.00  0.00    +0.000 A 
BRANCH  16  17
ATOM     17  C   UNL     1       5.391   5.799  18.130  0.00  0.00    +0.000 A 
ATOM     18  C   UNL     1       6.250   5.341  19.156  0.00  0.00    +0.000 A 
ATOM     19  C   UNL     1       7.559   5.818  19.313  0.00  0.00    +0.000 A 
ATOM     20  C   UNL     1       8.073   6.742  18.415  0.00  0.00    +0.000 A 
ATOM     21  C   UNL     1       7.258   7.223  17.400  0.00  0.00    +0.000 A 
ATOM     22  C   UNL     1       5.930   6.788  17.292  0.00  0.00    +0.000 A 
ENDBRANCH  16  17
ENDBRANCH   6  11
BRANCH   1  24
ATOM     23  C   UNL     1      -0.802  12.868  18.235  0.00  0.00    +0.000 C 
ATOM     24  O   UNL     1      -0.960  11.529  17.759  0.00  0.00    +0.000 OA
ENDBRANCH   1  24
TORSDOF 3
ENDMDL
MODEL 4
REMARK VINA RESULT:      -7.5      4.593      7.062
REMARK  Name = 
REMARK  4 active torsions:
REMARK  status: ('A' for Active; 'I' for Inactive)
REMARK    1  A    between atoms: C_1  and  O_2
REMARK    2  A    between atoms: O_2  and  C_3
REMARK    3  A    between atoms: C_8  and  C_9
REMARK    4  A    between atoms: C_14  and  C_15
REMARK                            x       y       z     vdW  Elec       q    Type
REMARK                         _______ _______ _______ _____ _____    ______ ____
ROOT
ATOM      1  C   UNL     1      -0.405  10.617  18.672  0.00  0.00    +0.000 C 
ATOM      2  O   UNL     1      -0.955  10.394  19.746  0.00  0.00    +0.000 OA
ATOM      3  N   UNL     1       0.642   9.917  18.146  0.00  0.00    +0.000 N 
ATOM      4  C   UNL     1       1.353   8.953  18.776  0.00  0.00    +0.000 C 
ATOM      5  N   UNL     1       2.317   8.361  18.140  0.00  0.00    +0.000 NA
ATOM      6  C   UNL     1       2.806   7.297  19.083  0.00  0.00    +0.000 C 
ATOM      7  C   UNL     1       2.013   7.515  20.412  0.00  0.00    +0.000 C 
ATOM      8  N   UNL     1       1.116   8.576  20.053  0.00  0.00    +0.000 N 
ATOM      9  H   UNL     1       0.956  10.170  17.222  0.00  0.00    +0.000 HD
ATOM     10  H   UNL     1       0.161   8.618  20.402  0.00  0.00    +0.000 HD
ENDROOT
BRANCH   6  11
ATOM     11  C   UNL     1       2.810   5.923  18.407  0.00  0.00    +0.000 A 
ATOM     12  C   UNL     1       1.571   5.298  18.118  0.00  0.00    +0.000 A 
ATOM     13  C   UNL     1       1.476   4.046  17.520  0.00  0.00    +0.000 A 
ATOM     14  C   UNL     1       2.631   3.365  17.182  0.00  0.00    +0.000 A 
ATOM     15  C   UNL     1       3.867   3.955  17.435  0.00  0.00    +0.000 A 
ATOM     16  C   UNL     1       4.016   5.240  18.033  0.00  0.00    +0.000 A 
BRANCH  16  17
ATOM     17  C   UNL     1       5.420   5.770  18.164  0.00  0.00    +0.000 A 
ATOM     18  C   UNL     1       5.899   6.769  17.285  0.00  0.00    +0.000 A 
ATOM     19  C   UNL     1       7.200   7.284  17.367  0.00  0.00    +0.000 A 
ATOM     20  C   UNL     1       8.058   6.849  18.366  0.00  0.00    +0.000 A 
ATOM     21  C   UNL     1       7.628   5.863  19.243  0.00  0.00    +0.000 A 
ATOM     22  C   UNL     1       6.347   5.307  19.111  0.00  0.00    +0.000 A 
ENDBRANCH  16  17
ENDBRANCH   6  11
BRANCH   1  24
ATOM     23  C   UNL     1      -0.932  12.877  18.412  0.00  0.00    +0.000 C 
ATOM     24  O   UNL     1      -0.787  11.590  17.804  0.00  0.00    +0.000 OA
ENDBRANCH   1  24
TORSDOF 3
ENDMDL
MODEL 5
REMARK VINA RESULT:      -7.3      4.460      6.492
REMARK  Name = 
REMARK  4 active torsions:
REMARK  status: ('A' for Active; 'I' for Inactive)
REMARK    1  A    between atoms: C_1  and  O_2
REMARK    2  A    between atoms: O_2  and  C_3
REMARK    3  A    between atoms: C_8  and  C_9
REMARK    4  A    between atoms: C_14  and  C_15
REMARK                            x       y       z     vdW  Elec       q    Type
REMARK                         _______ _______ _______ _____ _____    ______ ____
ROOT
ATOM      1  C   UNL     1       1.103  10.059  21.740  0.00  0.00    +0.000 C 
ATOM      2  O   UNL     1       1.212  11.107  21.111  0.00  0.00    +0.000 OA
ATOM      3  N   UNL     1       1.343   8.805  21.256  0.00  0.00    +0.000 N 
ATOM      4  C   UNL     1       1.598   8.483  19.967  0.00  0.00    +0.000 C 
ATOM      5  N   UNL     1       1.824   7.243  19.657  0.00  0.00    +0.000 NA
ATOM      6  C   UNL     1       2.169   7.267  18.195  0.00  0.00    +0.000 C 
ATOM      7  C   UNL     1       1.951   8.744  17.733  0.00  0.00    +0.000 C 
ATOM      8  N   UNL     1       1.621   9.396  18.968  0.00  0.00    +0.000 N 
ATOM      9  H   UNL     1       1.275   8.034  21.902  0.00  0.00    +0.000 HD
ATOM     10  H   UNL     1       1.933  10.340  19.182  0.00  0.00    +0.000 HD
ENDROOT
BRANCH   6  11
ATOM     11  C   UNL     1       3.507   6.570  17.934  0.00  0.00    +0.000 A 
ATOM     12  C   UNL     1       4.561   7.309  17.340  0.00  0.00    +0.000 A 
ATOM     13  C   UNL     1       5.805   6.757  17.054  0.00  0.00    +0.000 A 
ATOM     14  C   UNL     1       6.046   5.430  17.355  0.00  0.00    +0.000 A 
ATOM     15  C   UNL     1       5.039   4.676  17.954  0.00  0.00    +0.000 A 
ATOM     16  C   UNL     1       3.754   5.198  18.279  0.00  0.00    +0.000 A 
BRANCH  16  17
ATOM     17  C   UNL     1       2.807   4.274  18.998  0.00  0.00    +0.000 A 
ATOM     18  C   UNL     1       1.815   3.560  18.287  0.00  0.00    +0.000 A 
ATOM     19  C   UNL     1       0.909   2.696  18.917  0.00  0.00    +0.000 A 
ATOM     20  C   UNL     1       0.993   2.480  20.285  0.00  0.00    +0.000 A 
ATOM     21  C   UNL     1       1.947   3.169  21.020  0.00  0.00    +0.000 A 
ATOM     22  C   UNL     1       2.806   4.080  20.389  0.00  0.00    +0.000 A 
ENDBRANCH  16  17
ENDBRANCH   6  11
BRANCH   1  24
ATOM     23  C   UNL     1      -0.652   9.890  23.270  0.00  0.00    +0.000 C 
ATOM     24  O   UNL     1       0.758   9.985  23.052  0.00  0.00    +0.000 OA
ENDBRANCH   1  24
TORSDOF 3
ENDMDL
MODEL 6
REMARK VINA RESULT:      -7.3      7.734     10.055
REMARK  Name = 
REMARK  4 active torsions:
REMARK  status: ('A' for Active; 'I' for Inactive)
REMARK    1  A    between atoms: C_1  and  O_2
REMARK    2  A    between atoms: O_2  and  C_3
REMARK    3  A    between atoms: C_8  and  C_9
REMARK    4  A    between atoms: C_14  and  C_15
REMARK                            x       y       z     vdW  Elec       q    Type
REMARK                         _______ _______ _______ _____ _____    ______ ____
ROOT
ATOM      1  C   UNL     1      -3.248  11.205  15.827  0.00  0.00    +0.000 C 
ATOM      2  O   UNL     1      -4.414  11.332  16.186  0.00  0.00    +0.000 OA
ATOM      3  N   UNL     1      -2.147  11.306  16.627  0.00  0.00    +0.000 N 
ATOM      4  C   UNL     1      -2.134  11.707  17.920  0.00  0.00    +0.000 C 
ATOM      5  N   UNL     1      -1.006  11.738  18.561  0.00  0.00    +0.000 NA
ATOM      6  C   UNL     1      -1.373  12.118  19.969  0.00  0.00    +0.000 C 
ATOM      7  C   UNL     1      -2.905  12.424  19.937  0.00  0.00    +0.000 C 
ATOM      8  N   UNL     1      -3.248  12.092  18.584  0.00  0.00    +0.000 N 
ATOM      9  H   UNL     1      -1.248  11.116  16.211  0.00  0.00    +0.000 HD
ATOM     10  H   UNL     1      -4.133  11.653  18.342  0.00  0.00    +0.000 HD
ENDROOT
BRANCH   6  11
ATOM     11  C   UNL     1      -0.811  11.109  20.974  0.00  0.00    +0.000 A 
ATOM     12  C   UNL     1      -0.018  10.035  20.498  0.00  0.00    +0.000 A 
ATOM     13  C   UNL     1       0.522   9.063  21.334  0.00  0.00    +0.000 A 
ATOM     14  C   UNL     1       0.288   9.132  22.695  0.00  0.00    +0.000 A 
ATOM     15  C   UNL     1      -0.473  10.183  23.202  0.00  0.00    +0.000 A 
ATOM     16  C   UNL     1      -1.036  11.209  22.389  0.00  0.00    +0.000 A 
BRANCH  16  17
ATOM     17  C   UNL     1      -1.764  12.318  23.101  0.00  0.00    +0.000 A 
ATOM     18  C   UNL     1      -3.086  12.132  23.567  0.00  0.00    +0.000 A 
ATOM     19  C   UNL     1      -3.802  13.140  24.227  0.00  0.00    +0.000 A 
ATOM     20  C   UNL     1      -3.200  14.363  24.488  0.00  0.00    +0.000 A 
ATOM     21  C   UNL     1      -1.906  14.588  24.039  0.00  0.00    +0.000 A 
ATOM     22  C   UNL     1      -1.223  13.595  23.322  0.00  0.00    +0.000 A 
ENDBRANCH  16  17
ENDBRANCH   6  11
BRANCH   1  24
ATOM     23  C   UNL     1      -3.700   9.923  13.929  0.00  0.00    +0.000 C 
ATOM     24  O   UNL     1      -2.866  10.899  14.559  0.00  0.00    +0.000 OA
ENDBRANCH   1  24
TORSDOF 3
ENDMDL
MODEL 7
REMARK VINA RESULT:      -7.3      3.576      6.435
REMARK  Name = 
REMARK  4 active torsions:
REMARK  status: ('A' for Active; 'I' for Inactive)
REMARK    1  A    between atoms: C_1  and  O_2
REMARK    2  A    between atoms: O_2  and  C_3
REMARK    3  A    between atoms: C_8  and  C_9
REMARK    4  A    between atoms: C_14  and  C_15
REMARK                            x       y       z     vdW  Elec       q    Type
REMARK                         _______ _______ _______ _____ _____    ______ ____
ROOT
ATOM      1  C   UNL     1       8.745  10.182  18.497  0.00  0.00    +0.000 C 
ATOM      2  O   UNL     1       9.142   9.937  19.632  0.00  0.00    +0.000 OA
ATOM      3  N   UNL     1       8.125   9.303  17.657  0.00  0.00    +0.000 N 
ATOM      4  C   UNL     1       7.971   7.975  17.864  0.00  0.00    +0.000 C 
ATOM      5  N   UNL     1       7.343   7.265  16.978  0.00  0.00    +0.000 NA
ATOM      6  C   UNL     1       7.265   5.886  17.572  0.00  0.00    +0.000 C 
ATOM      7  C   UNL     1       8.097   5.949  18.893  0.00  0.00    +0.000 C 
ATOM      8  N   UNL     1       8.453   7.337  18.956  0.00  0.00    +0.000 N 
ATOM      9  H   UNL     1       7.793   9.657  16.773  0.00  0.00    +0.000 HD
ATOM     10  H   UNL     1       8.494   7.846  19.836  0.00  0.00    +0.000 HD
ENDROOT
BRANCH   6  11
ATOM     11  C   UNL     1       5.821   5.378  17.596  0.00  0.00    +0.000 A 
ATOM     12  C   UNL     1       5.049   5.562  18.771  0.00  0.00    +0.000 A 
ATOM     13  C   UNL     1       3.735   5.122  18.890  0.00  0.00    +0.000 A 
ATOM     14  C   UNL     1       3.136   4.475  17.825  0.00  0.00    +0.000 A 
ATOM     15  C   UNL     1       3.858   4.291  16.648  0.00  0.00    +0.000 A 
ATOM     16  C   UNL     1       5.200   4.734  16.472  0.00  0.00    +0.000 A 
BRANCH  16  17
ATOM     17  C   UNL     1       5.811   4.530  15.111  0.00  0.00    +0.000 A 
ATOM     18  C   UNL     1       5.116   3.816  14.107  0.00  0.00    +0.000 A 
ATOM     19  C   UNL     1       5.651   3.596  12.830  0.00  0.00    +0.000 A 
ATOM     20  C   UNL     1       6.888   4.125  12.495  0.00  0.00    +0.000 A 
ATOM     21  C   UNL     1       7.606   4.825  13.456  0.00  0.00    +0.000 A 
ATOM     22  C   UNL     1       7.090   4.983  14.750  0.00  0.00    +0.000 A 
ENDBRANCH  16  17
ENDBRANCH   6  11
BRANCH   1  24
ATOM     23  C   UNL     1       9.655  12.329  18.611  0.00  0.00    +0.000 C 
ATOM     24  O   UNL     1       8.826  11.402  17.904  0.00  0.00    +0.000 OA
ENDBRANCH   1  24
TORSDOF 3
ENDMDL
MODEL 8
REMARK VINA RESULT:      -7.3      4.470      6.560
REMARK  Name = 
REMARK  4 active torsions:
REMARK  status: ('A' for Active; 'I' for Inactive)
REMARK    1  A    between atoms: C_1  and  O_2
REMARK    2  A    between atoms: O_2  and  C_3
REMARK    3  A    between atoms: C_8  and  C_9
REMARK    4  A    between atoms: C_14  and  C_15
REMARK                            x       y       z     vdW  Elec       q    Type
REMARK                         _______ _______ _______ _____ _____    ______ ____
ROOT
ATOM      1  C   UNL     1       1.083  10.156  21.715  0.00  0.00    +0.000 C 
ATOM      2  O   UNL     1       1.191  11.198  21.075  0.00  0.00    +0.000 OA
ATOM      3  N   UNL     1       1.322   8.897  21.246  0.00  0.00    +0.000 N 
ATOM      4  C   UNL     1       1.576   8.561  19.959  0.00  0.00    +0.000 C 
ATOM      5  N   UNL     1       1.800   7.317  19.663  0.00  0.00    +0.000 NA
ATOM      6  C   UNL     1       2.144   7.324  18.200  0.00  0.00    +0.000 C 
ATOM      7  C   UNL     1       1.926   8.796  17.723  0.00  0.00    +0.000 C 
ATOM      8  N   UNL     1       1.597   9.462  18.951  0.00  0.00    +0.000 N 
ATOM      9  H   UNL     1       1.255   8.134  21.900  0.00  0.00    +0.000 HD
ATOM     10  H   UNL     1       1.910  10.409  19.153  0.00  0.00    +0.000 HD
ENDROOT
BRANCH   6  11
ATOM     11  C   UNL     1       3.481   6.624  17.945  0.00  0.00    +0.000 A 
ATOM     12  C   UNL     1       4.537   7.359  17.350  0.00  0.00    +0.000 A 
ATOM     13  C   UNL     1       5.781   6.803  17.068  0.00  0.00    +0.000 A 
ATOM     14  C   UNL     1       6.019   5.477  17.377  0.00  0.00    +0.000 A 
ATOM     15  C   UNL     1       5.010   4.728  17.979  0.00  0.00    +0.000 A 
ATOM     16  C   UNL     1       3.726   5.254  18.299  0.00  0.00    +0.000 A 
BRANCH  16  17
ATOM     17  C   UNL     1       2.776   4.335  19.022  0.00  0.00    +0.000 A 
ATOM     18  C   UNL     1       2.858   4.170  20.425  0.00  0.00    +0.000 A 
ATOM     19  C   UNL     1       1.999   3.320  21.136  0.00  0.00    +0.000 A 
ATOM     20  C   UNL     1       0.992   2.636  20.470  0.00  0.00    +0.000 A 
ATOM     21  C   UNL     1       0.885   2.765  19.092  0.00  0.00    +0.000 A 
ATOM     22  C   UNL     1       1.790   3.567  18.383  0.00  0.00    +0.000 A 
ENDBRANCH  16  17
ENDBRANCH   6  11
BRANCH   1  24
ATOM     23  C   UNL     1      -0.532   9.485  23.262  0.00  0.00    +0.000 C 
ATOM     24  O   UNL     1       0.740  10.097  23.029  0.00  0.00    +0.000 OA
ENDBRANCH   1  24
TORSDOF 3
ENDMDL
MODEL 9
REMARK VINA RESULT:      -7.2      3.531      6.456
REMARK  Name = 
REMARK  4 active torsions:
REMARK  status: ('A' for Active; 'I' for Inactive)
REMARK    1  A    between atoms: C_1  and  O_2
REMARK    2  A    between atoms: O_2  and  C_3
REMARK    3  A    between atoms: C_8  and  C_9
REMARK    4  A    between atoms: C_14  and  C_15
REMARK                            x       y       z     vdW  Elec       q    Type
REMARK                         _______ _______ _______ _____ _____    ______ ____
ROOT
ATOM      1  C   UNL     1       8.687  10.004  18.444  0.00  0.00    +0.000 C 
ATOM      2  O   UNL     1       9.069   9.750  19.582  0.00  0.00    +0.000 OA
ATOM      3  N   UNL     1       8.071   9.133  17.592  0.00  0.00    +0.000 N 
ATOM      4  C   UNL     1       7.905   7.805  17.791  0.00  0.00    +0.000 C 
ATOM      5  N   UNL     1       7.282   7.103  16.894  0.00  0.00    +0.000 NA
ATOM      6  C   UNL     1       7.188   5.723  17.480  0.00  0.00    +0.000 C 
ATOM      7  C   UNL     1       8.005   5.773  18.812  0.00  0.00    +0.000 C 
ATOM      8  N   UNL     1       8.370   7.159  18.885  0.00  0.00    +0.000 N 
ATOM      9  H   UNL     1       7.752   9.493  16.706  0.00  0.00    +0.000 HD
ATOM     10  H   UNL     1       8.404   7.663  19.768  0.00  0.00    +0.000 HD
ENDROOT
BRANCH   6  11
ATOM     11  C   UNL     1       5.740   5.225  17.485  0.00  0.00    +0.000 A 
ATOM     12  C   UNL     1       4.961   5.393  18.658  0.00  0.00    +0.000 A 
ATOM     13  C   UNL     1       3.643   4.960  18.760  0.00  0.00    +0.000 A 
ATOM     14  C   UNL     1       3.047   4.337  17.679  0.00  0.00    +0.000 A 
ATOM     15  C   UNL     1       3.776   4.170  16.504  0.00  0.00    +0.000 A 
ATOM     16  C   UNL     1       5.122   4.607  16.346  0.00  0.00    +0.000 A 
BRANCH  16  17
ATOM     17  C   UNL     1       5.741   4.423  14.985  0.00  0.00    +0.000 A 
ATOM     18  C   UNL     1       6.991   5.008  14.675  0.00  0.00    +0.000 A 
ATOM     19  C   UNL     1       7.598   4.869  13.419  0.00  0.00    +0.000 A 
ATOM     20  C   UNL     1       6.994   4.097  12.438  0.00  0.00    +0.000 A 
ATOM     21  C   UNL     1       5.762   3.513  12.700  0.00  0.00    +0.000 A 
ATOM     22  C   UNL     1       5.133   3.714  13.937  0.00  0.00    +0.000 A 
ENDBRANCH  16  17
ENDBRANCH   6  11
BRANCH   1  24
ATOM     23  C   UNL     1       9.948  11.959  18.250  0.00  0.00    +0.000 C 
ATOM     24  O   UNL     1       8.784  11.226  17.858  0.00  0.00    +0.000 OA
ENDBRANCH   1  24
TORSDOF 3
ENDMDL
