MODEL 1
REMARK VINA RESULT:      -7.6      0.000      0.000
REMARK  Name = 
REMARK  4 active torsions:
REMARK  status: ('A' for Active; 'I' for Inactive)
REMARK    1  A    between atoms: S_2  and  N_4
REMARK    2  A    between atoms: S_2  and  C_15
REMARK    3  A    between atoms: N_4  and  C_5
REMARK    4  A    between atoms: C_5  and  C_6
REMARK                            x       y       z     vdW  Elec       q    Type
REMARK                         _______ _______ _______ _____ _____    ______ ____
ROOT
ATOM      1  N   UNL     1       5.233   6.304  16.191  0.00  0.00    +0.000 NA
ATOM      2  H   UNL     1       4.555   5.799  15.620  0.00  0.00    +0.000 HD
ENDROOT
BRANCH   1   4
ATOM      3  O   UNL     1       7.735   6.667  16.287  0.00  0.00    +0.000 OA
ATOM      4  S   UNL     1       6.763   5.607  16.152  0.00  0.00    +0.000 S 
ATOM      5  O   UNL     1       6.745   4.483  17.067  0.00  0.00    +0.000 OA
BRANCH   4   6
ATOM      6  C   UNL     1       6.897   4.961  14.517  0.00  0.00    +0.000 A 
ATOM      7  C   UNL     1       7.809   5.503  13.605  0.00  0.00    +0.000 A 
ATOM      8  C   UNL     1       7.849   5.012  12.298  0.00  0.00    +0.000 A 
ATOM      9  C   UNL     1       6.979   3.993  11.904  0.00  0.00    +0.000 A 
ATOM     10  C   UNL     1       6.074   3.455  12.821  0.00  0.00    +0.000 A 
ATOM     11  C   UNL     1       6.038   3.941  14.126  0.00  0.00    +0.000 A 
ATOM     12  F   UNL     1       5.181   3.388  14.994  0.00  0.00    +0.000 F 
ENDBRANCH   4   6
ENDBRANCH   1   4
BRANCH   1  13
ATOM     13  C   UNL     1       4.768   6.795  17.485  0.00  0.00    +0.000 C 
BRANCH  13  14
ATOM     14  C   UNL     1       3.836   5.788  18.086  0.00  0.00    +0.000 A 
ATOM     15  C   UNL     1       3.404   4.594  17.550  0.00  0.00    +0.000 A 
ATOM     16  C   UNL     1       2.409   3.936  18.351  0.00  0.00    +0.000 A 
ATOM     17  C   UNL     1       1.685   2.739  18.128  0.00  0.00    +0.000 A 
ATOM     18  C   UNL     1       0.731   2.304  19.053  0.00  0.00    +0.000 A 
ATOM     19  C   UNL     1       0.490   3.038  20.206  0.00  0.00    +0.000 A 
ATOM     20  C   UNL     1       1.195   4.217  20.458  0.00  0.00    +0.000 A 
ATOM     21  C   UNL     1       2.148   4.657  19.518  0.00  0.00    +0.000 A 
ATOM     22  S   UNL     1       3.115   6.080  19.607  0.00  0.00    +0.000 S 
ENDBRANCH  13  14
ENDBRANCH   1  13
TORSDOF 4
ENDMDL
MODEL 2
REMARK VINA RESULT:      -7.6      0.876      1.404
REMARK  Name = 
REMARK  4 active torsions:
REMARK  status: ('A' for Active; 'I' for Inactive)
REMARK    1  A    between atoms: S_2  and  N_4
REMARK    2  A    between atoms: S_2  and  C_15
REMARK    3  A    between atoms: N_4  and  C_5
REMARK    4  A    between atoms: C_5  and  C_6
REMARK                            x       y       z     vdW  Elec       q    Type
REMARK                         _______ _______ _______ _____ _____    ______ ____
ROOT
ATOM      1  N   UNL     1       5.341   6.052  16.394  0.00  0.00    +0.000 NA
ATOM      2  H   UNL     1       4.663   5.433  15.950  0.00  0.00    +0.000 HD
ENDROOT
BRANCH   1   4
ATOM      3  O   UNL     1       7.792   6.674  16.290  0.00  0.00    +0.000 OA
ATOM      4  S   UNL     1       6.926   5.520  16.210  0.00  0.00    +0.000 S 
ATOM      5  O   UNL     1       7.102   4.385  17.095  0.00  0.00    +0.000 OA
BRANCH   4   6
ATOM      6  C   UNL     1       6.986   4.918  14.554  0.00  0.00    +0.000 A 
ATOM      7  C   UNL     1       7.785   5.545  13.592  0.00  0.00    +0.000 A 
ATOM      8  C   UNL     1       7.764   5.084  12.274  0.00  0.00    +0.000 A 
ATOM      9  C   UNL     1       6.945   4.010  11.918  0.00  0.00    +0.000 A 
ATOM     10  C   UNL     1       6.152   3.388  12.885  0.00  0.00    +0.000 A 
ATOM     11  C   UNL     1       6.178   3.844  14.201  0.00  0.00    +0.000 A 
ATOM     12  F   UNL     1       5.431   3.211  15.115  0.00  0.00    +0.000 F 
ENDBRANCH   4   6
ENDBRANCH   1   4
BRANCH   1  13
ATOM     13  C   UNL     1       4.979   6.598  17.699  0.00  0.00    +0.000 C 
BRANCH  13  14
ATOM     14  C   UNL     1       3.985   5.688  18.353  0.00  0.00    +0.000 A 
ATOM     15  C   UNL     1       3.587   5.661  19.671  0.00  0.00    +0.000 A 
ATOM     16  C   UNL     1       2.706   4.568  19.979  0.00  0.00    +0.000 A 
ATOM     17  C   UNL     1       2.128   4.162  21.207  0.00  0.00    +0.000 A 
ATOM     18  C   UNL     1       1.310   3.029  21.266  0.00  0.00    +0.000 A 
ATOM     19  C   UNL     1       1.049   2.295  20.118  0.00  0.00    +0.000 A 
ATOM     20  C   UNL     1       1.598   2.675  18.892  0.00  0.00    +0.000 A 
ATOM     21  C   UNL     1       2.429   3.812  18.838  0.00  0.00    +0.000 A 
ATOM     22  S   UNL     1       3.225   4.451  17.451  0.00  0.00    +0.000 S 
ENDBRANCH  13  14
ENDBRANCH   1  13
TORSDOF 4
ENDMDL
MODEL 3
REMARK VINA RESULT:      -7.5      3.756      6.242
REMARK  Name = 
REMARK  4 active torsions:
REMARK  status: ('A' for Active; 'I' for Inactive)
REMARK    1  A    between atoms: S_2  and  N_4
REMARK    2  A    between atoms: S_2  and  C_15
REMARK    3  A    between atoms: N_4  and  C_5
REMARK    4  A    between atoms: C_5  and  C_6
REMARK                            x       y       z     vdW  Elec       q    Type
REMARK                         _______ _______ _______ _____ _____    ______ ____
ROOT
ATOM      1  N   UNL     1       3.413   5.116  17.322  0.00  0.00    +0.000 NA
ATOM      2  H   UNL     1       2.394   5.067  17.334  0.00  0.00    +0.000 HD
ENDROOT
BRANCH   1   4
ATOM      3  O   UNL     1       4.146   2.699  17.155  0.00  0.00    +0.000 OA
ATOM      4  S   UNL     1       4.135   3.803  18.087  0.00  0.00    +0.000 S 
ATOM      5  O   UNL     1       5.359   4.284  18.697  0.00  0.00    +0.000 OA
BRANCH   4   6
ATOM      6  C   UNL     1       3.016   3.397  19.387  0.00  0.00    +0.000 A 
ATOM      7  C   UNL     1       1.692   3.850  19.360  0.00  0.00    +0.000 A 
ATOM      8  C   UNL     1       0.846   3.564  20.434  0.00  0.00    +0.000 A 
ATOM      9  C   UNL     1       1.321   2.840  21.530  0.00  0.00    +0.000 A 
ATOM     10  C   UNL     1       2.643   2.390  21.548  0.00  0.00    +0.000 A 
ATOM     11  C   UNL     1       3.485   2.669  20.473  0.00  0.00    +0.000 A 
ATOM     12  F   UNL     1       4.739   2.201  20.502  0.00  0.00    +0.000 F 
ENDBRANCH   4   6
ENDBRANCH   1   4
BRANCH   1  13
ATOM     13  C   UNL     1       4.012   6.426  17.560  0.00  0.00    +0.000 C 
BRANCH  13  14
ATOM     14  C   UNL     1       3.079   7.248  18.396  0.00  0.00    +0.000 A 
ATOM     15  C   UNL     1       2.641   7.004  19.679  0.00  0.00    +0.000 A 
ATOM     16  C   UNL     1       1.647   7.941  20.128  0.00  0.00    +0.000 A 
ATOM     17  C   UNL     1       0.917   8.004  21.340  0.00  0.00    +0.000 A 
ATOM     18  C   UNL     1      -0.034   9.009  21.544  0.00  0.00    +0.000 A 
ATOM     19  C   UNL     1      -0.266   9.961  20.562  0.00  0.00    +0.000 A 
ATOM     20  C   UNL     1       0.445   9.929  19.360  0.00  0.00    +0.000 A 
ATOM     21  C   UNL     1       1.395   8.909  19.155  0.00  0.00    +0.000 A 
ATOM     22  S   UNL     1       2.367   8.662  17.755  0.00  0.00    +0.000 S 
ENDBRANCH  13  14
ENDBRANCH   1  13
TORSDOF 4
ENDMDL
MODEL 4
REMARK VINA RESULT:      -7.5      3.984      6.707
REMARK  Name = 
REMARK  4 active torsions:
REMARK  status: ('A' for Active; 'I' for Inactive)
REMARK    1  A    between atoms: S_2  and  N_4
REMARK    2  A    between atoms: S_2  and  C_15
REMARK    3  A    between atoms: N_4  and  C_5
REMARK    4  A    between atoms: C_5  and  C_6
REMARK                            x       y       z     vdW  Elec       q    Type
REMARK                         _______ _______ _______ _____ _____    ______ ____
ROOT
ATOM      1  N   UNL     1       2.171   2.137  17.550  0.00  0.00    +0.000 NA
ATOM      2  H   UNL     1       2.004   2.744  16.748  0.00  0.00    +0.000 HD
ENDROOT
BRANCH   1   4
ATOM      3  O   UNL     1      -0.133   2.445  18.551  0.00  0.00    +0.000 OA
ATOM      4  S   UNL     1       1.264   2.576  18.897  0.00  0.00    +0.000 S 
ATOM      5  O   UNL     1       1.825   1.878  20.037  0.00  0.00    +0.000 OA
BRANCH   4   6
ATOM      6  C   UNL     1       1.607   4.293  19.102  0.00  0.00    +0.000 A 
ATOM      7  C   UNL     1       1.923   5.097  18.001  0.00  0.00    +0.000 A 
ATOM      8  C   UNL     1       2.251   6.440  18.202  0.00  0.00    +0.000 A 
ATOM      9  C   UNL     1       2.270   6.973  19.493  0.00  0.00    +0.000 A 
ATOM     10  C   UNL     1       1.951   6.164  20.586  0.00  0.00    +0.000 A 
ATOM     11  C   UNL     1       1.617   4.827  20.385  0.00  0.00    +0.000 A 
ATOM     12  F   UNL     1       1.287   4.081  21.447  0.00  0.00    +0.000 F 
ENDBRANCH   4   6
ENDBRANCH   1   4
BRANCH   1  13
ATOM     13  C   UNL     1       3.552   1.731  17.793  0.00  0.00    +0.000 C 
BRANCH  13  14
ATOM     14  C   UNL     1       4.422   2.949  17.831  0.00  0.00    +0.000 A 
ATOM     15  C   UNL     1       4.837   3.739  16.781  0.00  0.00    +0.000 A 
ATOM     16  C   UNL     1       5.773   4.758  17.169  0.00  0.00    +0.000 A 
ATOM     17  C   UNL     1       6.466   5.720  16.395  0.00  0.00    +0.000 A 
ATOM     18  C   UNL     1       7.363   6.606  17.000  0.00  0.00    +0.000 A 
ATOM     19  C   UNL     1       7.577   6.557  18.371  0.00  0.00    +0.000 A 
ATOM     20  C   UNL     1       6.901   5.624  19.161  0.00  0.00    +0.000 A 
ATOM     21  C   UNL     1       6.006   4.727  18.545  0.00  0.00    +0.000 A 
ATOM     22  S   UNL     1       5.084   3.490  19.311  0.00  0.00    +0.000 S 
ENDBRANCH  13  14
ENDBRANCH   1  13
TORSDOF 4
ENDMDL
MODEL 5
REMARK VINA RESULT:      -7.5      3.703      5.949
REMARK  Name = 
REMARK  4 active torsions:
REMARK  status: ('A' for Active; 'I' for Inactive)
REMARK    1  A    between atoms: S_2  and  N_4
REMARK    2  A    between atoms: S_2  and  C_15
REMARK    3  A    between atoms: N_4  and  C_5
REMARK    4  A    between atoms: C_5  and  C_6
REMARK                            x       y       z     vdW  Elec       q    Type
REMARK                         _______ _______ _______ _____ _____    ______ ____
ROOT
ATOM      1  N   UNL     1       4.608   5.961  18.356  0.00  0.00    +0.000 NA
ATOM      2  H   UNL     1       5.517   6.416  18.281  0.00  0.00    +0.000 HD
ENDROOT
BRANCH   1   4
ATOM      3  O   UNL     1       4.811   3.835  16.999  0.00  0.00    +0.000 OA
ATOM      4  S   UNL     1       4.721   4.283  18.370  0.00  0.00    +0.000 S 
ATOM      5  O   UNL     1       5.733   3.929  19.344  0.00  0.00    +0.000 OA
BRANCH   4   6
ATOM      6  C   UNL     1       3.163   3.754  19.005  0.00  0.00    +0.000 A 
ATOM      7  C   UNL     1       2.906   3.775  20.381  0.00  0.00    +0.000 A 
ATOM      8  C   UNL     1       1.686   3.292  20.859  0.00  0.00    +0.000 A 
ATOM      9  C   UNL     1       0.734   2.786  19.972  0.00  0.00    +0.000 A 
ATOM     10  C   UNL     1       0.997   2.772  18.600  0.00  0.00    +0.000 A 
ATOM     11  C   UNL     1       2.211   3.260  18.122  0.00  0.00    +0.000 A 
ATOM     12  F   UNL     1       2.426   3.262  16.800  0.00  0.00    +0.000 F 
ENDBRANCH   4   6
ENDBRANCH   1   4
BRANCH   1  13
ATOM     13  C   UNL     1       3.516   6.539  17.578  0.00  0.00    +0.000 C 
BRANCH  13  14
ATOM     14  C   UNL     1       2.706   7.437  18.463  0.00  0.00    +0.000 A 
ATOM     15  C   UNL     1       2.328   7.234  19.772  0.00  0.00    +0.000 A 
ATOM     16  C   UNL     1       1.443   8.250  20.273  0.00  0.00    +0.000 A 
ATOM     17  C   UNL     1       0.796   8.376  21.527  0.00  0.00    +0.000 A 
ATOM     18  C   UNL     1      -0.056   9.456  21.780  0.00  0.00    +0.000 A 
ATOM     19  C   UNL     1      -0.270  10.421  20.806  0.00  0.00    +0.000 A 
ATOM     20  C   UNL     1       0.362  10.328  19.564  0.00  0.00    +0.000 A 
ATOM     21  C   UNL     1       1.212   9.233  19.310  0.00  0.00    +0.000 A 
ATOM     22  S   UNL     1       2.073   8.903  17.855  0.00  0.00    +0.000 S 
ENDBRANCH  13  14
ENDBRANCH   1  13
TORSDOF 4
ENDMDL
MODEL 6
REMARK VINA RESULT:      -7.4      3.825      6.354
REMARK  Name = 
REMARK  4 active torsions:
REMARK  status: ('A' for Active; 'I' for Inactive)
REMARK    1  A    between atoms: S_2  and  N_4
REMARK    2  A    between atoms: S_2  and  C_15
REMARK    3  A    between atoms: N_4  and  C_5
REMARK    4  A    between atoms: C_5  and  C_6
REMARK                            x       y       z     vdW  Elec       q    Type
REMARK                         _______ _______ _______ _____ _____    ______ ____
ROOT
ATOM      1  N   UNL     1       4.351   6.031  18.574  0.00  0.00    +0.000 NA
ATOM      2  H   UNL     1       5.249   6.393  18.896  0.00  0.00    +0.000 HD
ENDROOT
BRANCH   1   4
ATOM      3  O   UNL     1       3.916   4.095  17.003  0.00  0.00    +0.000 OA
ATOM      4  S   UNL     1       4.367   4.364  18.349  0.00  0.00    +0.000 S 
ATOM      5  O   UNL     1       5.648   3.879  18.823  0.00  0.00    +0.000 OA
BRANCH   4   6
ATOM      6  C   UNL     1       3.130   3.771  19.457  0.00  0.00    +0.000 A 
ATOM      7  C   UNL     1       3.485   3.136  20.653  0.00  0.00    +0.000 A 
ATOM      8  C   UNL     1       2.485   2.621  21.481  0.00  0.00    +0.000 A 
ATOM      9  C   UNL     1       1.142   2.734  21.113  0.00  0.00    +0.000 A 
ATOM     10  C   UNL     1       0.796   3.371  19.920  0.00  0.00    +0.000 A 
ATOM     11  C   UNL     1       1.794   3.890  19.097  0.00  0.00    +0.000 A 
ATOM     12  F   UNL     1       1.434   4.523  17.973  0.00  0.00    +0.000 F 
ENDBRANCH   4   6
ENDBRANCH   1   4
BRANCH   1  13
ATOM     13  C   UNL     1       3.642   6.822  17.572  0.00  0.00    +0.000 C 
BRANCH  13  14
ATOM     14  C   UNL     1       2.628   7.685  18.258  0.00  0.00    +0.000 A 
ATOM     15  C   UNL     1       1.974   8.794  17.765  0.00  0.00    +0.000 A 
ATOM     16  C   UNL     1       1.158   9.456  18.745  0.00  0.00    +0.000 A 
ATOM     17  C   UNL     1       0.383  10.639  18.657  0.00  0.00    +0.000 A 
ATOM     18  C   UNL     1      -0.318  11.113  19.770  0.00  0.00    +0.000 A 
ATOM     19  C   UNL     1      -0.268  10.422  20.973  0.00  0.00    +0.000 A 
ATOM     20  C   UNL     1       0.480   9.248  21.088  0.00  0.00    +0.000 A 
ATOM     21  C   UNL     1       1.192   8.780  19.966  0.00  0.00    +0.000 A 
ATOM     22  S   UNL     1       2.189   7.378  19.880  0.00  0.00    +0.000 S 
ENDBRANCH  13  14
ENDBRANCH   1  13
TORSDOF 4
ENDMDL
MODEL 7
REMARK VINA RESULT:      -7.4      1.377      1.507
REMARK  Name = 
REMARK  4 active torsions:
REMARK  status: ('A' for Active; 'I' for Inactive)
REMARK    1  A    between atoms: S_2  and  N_4
REMARK    2  A    between atoms: S_2  and  C_15
REMARK    3  A    between atoms: N_4  and  C_5
REMARK    4  A    between atoms: C_5  and  C_6
REMARK                            x       y       z     vdW  Elec       q    Type
REMARK                         _______ _______ _______ _____ _____    ______ ____
ROOT
ATOM      1  N   UNL     1       6.899   4.906  17.636  0.00  0.00    +0.000 NA
ATOM      2  H   UNL     1       7.819   4.469  17.583  0.00  0.00    +0.000 HD
ENDROOT
BRANCH   1   4
ATOM      3  O   UNL     1       5.356   6.653  16.650  0.00  0.00    +0.000 OA
ATOM      4  S   UNL     1       6.665   6.075  16.449  0.00  0.00    +0.000 S 
ATOM      5  O   UNL     1       7.856   6.901  16.421  0.00  0.00    +0.000 OA
BRANCH   4   6
ATOM      6  C   UNL     1       6.620   5.154  14.946  0.00  0.00    +0.000 A 
ATOM      7  C   UNL     1       7.592   5.349  13.957  0.00  0.00    +0.000 A 
ATOM      8  C   UNL     1       7.495   4.651  12.752  0.00  0.00    +0.000 A 
ATOM      9  C   UNL     1       6.432   3.772  12.532  0.00  0.00    +0.000 A 
ATOM     10  C   UNL     1       5.468   3.581  13.525  0.00  0.00    +0.000 A 
ATOM     11  C   UNL     1       5.569   4.273  14.730  0.00  0.00    +0.000 A 
ATOM     12  F   UNL     1       4.647   4.050  15.676  0.00  0.00    +0.000 F 
ENDBRANCH   4   6
ENDBRANCH   1   4
BRANCH   1  13
ATOM     13  C   UNL     1       6.392   5.214  18.970  0.00  0.00    +0.000 C 
BRANCH  13  14
ATOM     14  C   UNL     1       5.048   4.577  19.144  0.00  0.00    +0.000 A 
ATOM     15  C   UNL     1       4.673   3.281  18.864  0.00  0.00    +0.000 A 
ATOM     16  C   UNL     1       3.265   3.046  19.035  0.00  0.00    +0.000 A 
ATOM     17  C   UNL     1       2.486   1.886  18.801  0.00  0.00    +0.000 A 
ATOM     18  C   UNL     1       1.104   1.904  19.017  0.00  0.00    +0.000 A 
ATOM     19  C   UNL     1       0.483   3.059  19.471  0.00  0.00    +0.000 A 
ATOM     20  C   UNL     1       1.227   4.215  19.719  0.00  0.00    +0.000 A 
ATOM     21  C   UNL     1       2.617   4.195  19.491  0.00  0.00    +0.000 A 
ATOM     22  S   UNL     1       3.723   5.497  19.706  0.00  0.00    +0.000 S 
ENDBRANCH  13  14
ENDBRANCH   1  13
TORSDOF 4
ENDMDL
MODEL 8
REMARK VINA RESULT:      -7.3      2.277      3.238
REMARK  Name = 
REMARK  4 active torsions:
REMARK  status: ('A' for Active; 'I' for Inactive)
REMARK    1  A    between atoms: S_2  and  N_4
REMARK    2  A    between atoms: S_2  and  C_15
REMARK    3  A    between atoms: N_4  and  C_5
REMARK    4  A    between atoms: C_5  and  C_6
REMARK                            x       y       z     vdW  Elec       q    Type
REMARK                         _______ _______ _______ _____ _____    ______ ____
ROOT
ATOM      1  N   UNL     1       5.091   4.504  16.603  0.00  0.00    +0.000 NA
ATOM      2  H   UNL     1       4.772   3.646  16.154  0.00  0.00    +0.000 HD
ENDROOT
BRANCH   1   4
ATOM      3  O   UNL     1       6.475   6.524  15.964  0.00  0.00    +0.000 OA
ATOM      4  S   UNL     1       6.532   5.081  15.953  0.00  0.00    +0.000 S 
ATOM      5  O   UNL     1       7.612   4.366  16.604  0.00  0.00    +0.000 OA
BRANCH   4   6
ATOM      6  C   UNL     1       6.483   4.555  14.271  0.00  0.00    +0.000 A 
ATOM      7  C   UNL     1       5.451   3.731  13.808  0.00  0.00    +0.000 A 
ATOM      8  C   UNL     1       5.473   3.280  12.486  0.00  0.00    +0.000 A 
ATOM      9  C   UNL     1       6.521   3.642  11.637  0.00  0.00    +0.000 A 
ATOM     10  C   UNL     1       7.546   4.467  12.107  0.00  0.00    +0.000 A 
ATOM     11  C   UNL     1       7.520   4.922  13.423  0.00  0.00    +0.000 A 
ATOM     12  F   UNL     1       8.499   5.736  13.840  0.00  0.00    +0.000 F 
ENDBRANCH   4   6
ENDBRANCH   1   4
BRANCH   1  13
ATOM     13  C   UNL     1       4.948   4.580  18.054  0.00  0.00    +0.000 C 
BRANCH  13  14
ATOM     14  C   UNL     1       3.948   5.643  18.393  0.00  0.00    +0.000 A 
ATOM     15  C   UNL     1       3.548   6.717  17.628  0.00  0.00    +0.000 A 
ATOM     16  C   UNL     1       2.660   7.610  18.321  0.00  0.00    +0.000 A 
ATOM     17  C   UNL     1       2.077   8.835  17.913  0.00  0.00    +0.000 A 
ATOM     18  C   UNL     1       1.253   9.553  18.785  0.00  0.00    +0.000 A 
ATOM     19  C   UNL     1       0.989   9.067  20.058  0.00  0.00    +0.000 A 
ATOM     20  C   UNL     1       1.542   7.857  20.484  0.00  0.00    +0.000 A 
ATOM     21  C   UNL     1       2.380   7.142  19.606  0.00  0.00    +0.000 A 
ATOM     22  S   UNL     1       3.182   5.650  19.920  0.00  0.00    +0.000 S 
ENDBRANCH  13  14
ENDBRANCH   1  13
TORSDOF 4
ENDMDL
MODEL 9
REMARK VINA RESULT:      -7.3      1.070      1.497
REMARK  Name = 
REMARK  4 active torsions:
REMARK  status: ('A' for Active; 'I' for Inactive)
REMARK    1  A    between atoms: S_2  and  N_4
REMARK    2  A    between atoms: S_2  and  C_15
REMARK    3  A    between atoms: N_4  and  C_5
REMARK    4  A    between atoms: C_5  and  C_6
REMARK                            x       y       z     vdW  Elec       q    Type
REMARK                         _______ _______ _______ _____ _____    ______ ____
ROOT
ATOM      1  N   UNL     1       5.350   6.077  16.139  0.00  0.00    +0.000 NA
ATOM      2  H   UNL     1       4.577   5.646  15.633  0.00  0.00    +0.000 HD
ENDROOT
BRANCH   1   4
ATOM      3  O   UNL     1       7.819   6.411  15.699  0.00  0.00    +0.000 OA
ATOM      4  S   UNL     1       6.832   5.361  15.796  0.00  0.00    +0.000 S 
ATOM      5  O   UNL     1       6.998   4.256  16.720  0.00  0.00    +0.000 OA
BRANCH   4   6
ATOM      6  C   UNL     1       6.615   4.678  14.185  0.00  0.00    +0.000 A 
ATOM      7  C   UNL     1       5.528   3.844  13.901  0.00  0.00    +0.000 A 
ATOM      8  C   UNL     1       5.415   3.268  12.634  0.00  0.00    +0.000 A 
ATOM      9  C   UNL     1       6.386   3.518  11.660  0.00  0.00    +0.000 A 
ATOM     10  C   UNL     1       7.466   4.354  11.951  0.00  0.00    +0.000 A 
ATOM     11  C   UNL     1       7.574   4.933  13.213  0.00  0.00    +0.000 A 
ATOM     12  F   UNL     1       8.604   5.754  13.457  0.00  0.00    +0.000 F 
ENDBRANCH   4   6
ENDBRANCH   1   4
BRANCH   1  13
ATOM     13  C   UNL     1       5.103   6.442  17.531  0.00  0.00    +0.000 C 
BRANCH  13  14
ATOM     14  C   UNL     1       4.084   5.509  18.110  0.00  0.00    +0.000 A 
ATOM     15  C   UNL     1       3.649   4.301  17.610  0.00  0.00    +0.000 A 
ATOM     16  C   UNL     1       2.565   3.731  18.363  0.00  0.00    +0.000 A 
ATOM     17  C   UNL     1       1.812   2.550  18.150  0.00  0.00    +0.000 A 
ATOM     18  C   UNL     1       0.768   2.208  19.017  0.00  0.00    +0.000 A 
ATOM     19  C   UNL     1       0.466   3.020  20.101  0.00  0.00    +0.000 A 
ATOM     20  C   UNL     1       1.197   4.186  20.341  0.00  0.00    +0.000 A 
ATOM     21  C   UNL     1       2.241   4.531  19.460  0.00  0.00    +0.000 A 
ATOM     22  S   UNL     1       3.255   5.920  19.546  0.00  0.00    +0.000 S 
ENDBRANCH  13  14
ENDBRANCH   1  13
TORSDOF 4
ENDMDL
