MODEL 1
REMARK VINA RESULT:      -7.3      0.000      0.000
REMARK  Name = 
REMARK  7 active torsions:
REMARK  status: ('A' for Active; 'I' for Inactive)
REMARK    1  A    between atoms: C_1  and  C_2
REMARK    2  A    between atoms: C_2  and  O_3
REMARK    3  A    between atoms: O_3  and  C_4
REMARK    4  A    between atoms: C_6  and  C_7
REMARK    5  A    between atoms: CA_9  and  C_10
REMARK    6  A    between atoms: C_10  and  OXT_12
REMARK    7  A    between atoms: C_25  and  O_26
REMARK                            x       y       z     vdW  Elec       q    Type
REMARK                         _______ _______ _______ _____ _____    ______ ____
ROOT
ATOM      1  C   UNL     1      -5.670  13.151  20.290  0.00  0.00    +0.000 C 
ATOM      2  N   UNL     1      -7.106  12.894  19.982  0.00  0.00    +0.000 NA
ATOM      3  CA  UNL     1      -7.405  11.523  19.422  0.00  0.00    +0.000 C 
ATOM      4  C   UNL     1      -6.507  11.034  18.266  0.00  0.00    +0.000 C 
ATOM      5  C   UNL     1      -5.089  11.424  18.487  0.00  0.00    +0.000 A 
ATOM      6  C   UNL     1      -4.755  12.405  19.388  0.00  0.00    +0.000 A 
ATOM      7  N   UNL     1      -3.390  12.557  19.368  0.00  0.00    +0.000 N 
ATOM      8  C   UNL     1      -2.837  11.651  18.489  0.00  0.00    +0.000 A 
ATOM      9  C   UNL     1      -1.494  11.410  18.178  0.00  0.00    +0.000 A 
ATOM     10  C   UNL     1      -1.218  10.396  17.254  0.00  0.00    +0.000 A 
ATOM     11  C   UNL     1      -2.246   9.660  16.669  0.00  0.00    +0.000 A 
ATOM     12  C   UNL     1      -3.583   9.914  16.989  0.00  0.00    +0.000 A 
ATOM     13  C   UNL     1      -3.887  10.927  17.921  0.00  0.00    +0.000 A 
ATOM     14  H   UNL     1      -7.330  13.545  19.225  0.00  0.00    +0.000 HD
ATOM     15  H   UNL     1      -2.857  13.187  19.948  0.00  0.00    +0.000 HD
ENDROOT
BRANCH   1  18
ATOM     16  C   UNL     1      -3.758  12.344  23.492  0.00  0.00    +0.000 A 
ATOM     17  C   UNL     1      -4.084  12.546  22.146  0.00  0.00    +0.000 A 
ATOM     18  C   UNL     1      -5.373  12.947  21.764  0.00  0.00    +0.000 A 
ATOM     19  C   UNL     1      -6.327  13.175  22.768  0.00  0.00    +0.000 A 
ATOM     20  C   UNL     1      -5.976  13.093  24.114  0.00  0.00    +0.000 A 
ATOM     21  C   UNL     1      -4.689  12.696  24.472  0.00  0.00    +0.000 A 
BRANCH  21  22
ATOM     22  O   UNL     1      -4.345  12.637  25.794  0.00  0.00    +0.000 OA
ATOM     23  H   UNL     1      -3.655  11.961  25.896  0.00  0.00    +0.000 HD
ENDBRANCH  21  22
BRANCH  16  24
ATOM     24  O   UNL     1      -2.555  11.813  23.892  0.00  0.00    +0.000 OA
BRANCH  24  26
ATOM     25  C   UNL     1      -0.812  10.566  22.782  0.00  0.00    +0.000 C 
ATOM     26  C   UNL     1      -1.530  11.897  22.896  0.00  0.00    +0.000 C 
ENDBRANCH  24  26
ENDBRANCH  16  24
ENDBRANCH   1  18
BRANCH   3  27
ATOM     27  C   UNL     1      -7.546  10.486  20.540  0.00  0.00    +0.000 C 
ATOM     28  O   UNL     1      -7.853  10.724  21.700  0.00  0.00    +0.000 OA
BRANCH  27  29
ATOM     29  OXT UNL     1      -7.172   9.243  20.133  0.00  0.00    +0.000 OA
ATOM     30  HXT UNL     1      -7.992   8.769  19.850  0.00  0.00    +0.000 HD
ENDBRANCH  27  29
ENDBRANCH   3  27
TORSDOF 6
ENDMDL
MODEL 2
REMARK VINA RESULT:      -6.9      4.843      7.461
REMARK  Name = 
REMARK  7 active torsions:
REMARK  status: ('A' for Active; 'I' for Inactive)
REMARK    1  A    between atoms: C_1  and  C_2
REMARK    2  A    between atoms: C_2  and  O_3
REMARK    3  A    between atoms: O_3  and  C_4
REMARK    4  A    between atoms: C_6  and  C_7
REMARK    5  A    between atoms: CA_9  and  C_10
REMARK    6  A    between atoms: C_10  and  OXT_12
REMARK    7  A    between atoms: C_25  and  O_26
REMARK                            x       y       z     vdW  Elec       q    Type
REMARK                         _______ _______ _______ _____ _____    ______ ____
ROOT
ATOM      1  C   UNL     1      -0.557  12.962  18.902  0.00  0.00    +0.000 C 
ATOM      2  N   UNL     1      -1.454  13.301  20.044  0.00  0.00    +0.000 NA
ATOM      3  CA  UNL     1      -1.076  12.670  21.363  0.00  0.00    +0.000 C 
ATOM      4  C   UNL     1      -0.767  11.157  21.346  0.00  0.00    +0.000 C 
ATOM      5  C   UNL     1      -0.005  10.779  20.127  0.00  0.00    +0.000 A 
ATOM      6  C   UNL     1       0.040  11.608  19.033  0.00  0.00    +0.000 A 
ATOM      7  N   UNL     1       0.798  10.997  18.064  0.00  0.00    +0.000 N 
ATOM      8  C   UNL     1       1.277   9.796  18.541  0.00  0.00    +0.000 A 
ATOM      9  C   UNL     1       2.121   8.862  17.930  0.00  0.00    +0.000 A 
ATOM     10  C   UNL     1       2.469   7.726  18.671  0.00  0.00    +0.000 A 
ATOM     11  C   UNL     1       1.988   7.539  19.965  0.00  0.00    +0.000 A 
ATOM     12  C   UNL     1       1.144   8.482  20.560  0.00  0.00    +0.000 A 
ATOM     13  C   UNL     1       0.783   9.636  19.837  0.00  0.00    +0.000 A 
ATOM     14  H   UNL     1      -2.356  12.884  19.799  0.00  0.00    +0.000 HD
ATOM     15  H   UNL     1       1.029  11.385  17.161  0.00  0.00    +0.000 HD
ENDROOT
BRANCH   1  18
ATOM     16  C   UNL     1       0.961  16.445  18.550  0.00  0.00    +0.000 A 
ATOM     17  C   UNL     1       0.061  15.396  18.770  0.00  0.00    +0.000 A 
ATOM     18  C   UNL     1       0.462  14.057  18.652  0.00  0.00    +0.000 A 
ATOM     19  C   UNL     1       1.804  13.788  18.341  0.00  0.00    +0.000 A 
ATOM     20  C   UNL     1       2.732  14.822  18.240  0.00  0.00    +0.000 A 
ATOM     21  C   UNL     1       2.313  16.145  18.363  0.00  0.00    +0.000 A 
BRANCH  21  22
ATOM     22  O   UNL     1       3.232  17.154  18.283  0.00  0.00    +0.000 OA
ATOM     23  H   UNL     1       4.060  16.781  17.938  0.00  0.00    +0.000 HD
ENDBRANCH  21  22
BRANCH  16  24
ATOM     24  O   UNL     1       0.571  17.762  18.513  0.00  0.00    +0.000 OA
BRANCH  24  26
ATOM     25  C   UNL     1       0.474  18.558  16.236  0.00  0.00    +0.000 C 
ATOM     26  C   UNL     1      -0.318  18.068  17.433  0.00  0.00    +0.000 C 
ENDBRANCH  24  26
ENDBRANCH  16  24
ENDBRANCH   1  18
BRANCH   3  27
ATOM     27  C   UNL     1       0.005  13.486  22.078  0.00  0.00    +0.000 C 
ATOM     28  O   UNL     1       1.202  13.462  21.827  0.00  0.00    +0.000 OA
BRANCH  27  29
ATOM     29  OXT UNL     1      -0.496  14.179  23.136  0.00  0.00    +0.000 OA
ATOM     30  HXT UNL     1      -0.681  13.525  23.853  0.00  0.00    +0.000 HD
ENDBRANCH  27  29
ENDBRANCH   3  27
TORSDOF 6
ENDMDL
MODEL 3
REMARK VINA RESULT:      -6.9      9.552     12.800
REMARK  Name = 
REMARK  7 active torsions:
REMARK  status: ('A' for Active; 'I' for Inactive)
REMARK    1  A    between atoms: C_1  and  C_2
REMARK    2  A    between atoms: C_2  and  O_3
REMARK    3  A    between atoms: O_3  and  C_4
REMARK    4  A    between atoms: C_6  and  C_7
REMARK    5  A    between atoms: CA_9  and  C_10
REMARK    6  A    between atoms: C_10  and  OXT_12
REMARK    7  A    between atoms: C_25  and  O_26
REMARK                            x       y       z     vdW  Elec       q    Type
REMARK                         _______ _______ _______ _____ _____    ______ ____
ROOT
ATOM      1  C   UNL     1       5.304   4.271  17.772  0.00  0.00    +0.000 C 
ATOM      2  N   UNL     1       6.535   4.412  18.603  0.00  0.00    +0.000 NA
ATOM      3  CA  UNL     1       7.696   5.088  17.914  0.00  0.00    +0.000 C 
ATOM      4  C   UNL     1       8.053   4.586  16.498  0.00  0.00    +0.000 C 
ATOM      5  C   UNL     1       6.828   4.290  15.710  0.00  0.00    +0.000 A 
ATOM      6  C   UNL     1       5.611   4.125  16.325  0.00  0.00    +0.000 A 
ATOM      7  N   UNL     1       4.675   3.850  15.358  0.00  0.00    +0.000 N 
ATOM      8  C   UNL     1       5.274   3.878  14.116  0.00  0.00    +0.000 A 
ATOM      9  C   UNL     1       4.711   3.704  12.847  0.00  0.00    +0.000 A 
ATOM     10  C   UNL     1       5.565   3.812  11.743  0.00  0.00    +0.000 A 
ATOM     11  C   UNL     1       6.921   4.080  11.910  0.00  0.00    +0.000 A 
ATOM     12  C   UNL     1       7.468   4.250  13.185  0.00  0.00    +0.000 A 
ATOM     13  C   UNL     1       6.628   4.151  14.313  0.00  0.00    +0.000 A 
ATOM     14  H   UNL     1       6.847   3.453  18.770  0.00  0.00    +0.000 HD
ATOM     15  H   UNL     1       3.688   3.711  15.512  0.00  0.00    +0.000 HD
ENDROOT
BRANCH   1  18
ATOM     16  C   UNL     1       2.576   6.249  19.560  0.00  0.00    +0.000 A 
ATOM     17  C   UNL     1       3.516   5.266  19.234  0.00  0.00    +0.000 A 
ATOM     18  C   UNL     1       4.301   5.367  18.075  0.00  0.00    +0.000 A 
ATOM     19  C   UNL     1       4.145   6.499  17.261  0.00  0.00    +0.000 A 
ATOM     20  C   UNL     1       3.298   7.539  17.641  0.00  0.00    +0.000 A 
ATOM     21  C   UNL     1       2.531   7.419  18.798  0.00  0.00    +0.000 A 
BRANCH  21  22
ATOM     22  O   UNL     1       1.718   8.451  19.177  0.00  0.00    +0.000 OA
ATOM     23  H   UNL     1       1.387   8.262  20.071  0.00  0.00    +0.000 HD
ENDBRANCH  21  22
BRANCH  16  24
ATOM     24  O   UNL     1       1.692   6.114  20.604  0.00  0.00    +0.000 OA
BRANCH  24  26
ATOM     25  C   UNL     1       0.793   3.889  20.339  0.00  0.00    +0.000 C 
ATOM     26  C   UNL     1       1.672   4.800  21.173  0.00  0.00    +0.000 C 
ENDBRANCH  24  26
ENDBRANCH  16  24
ENDBRANCH   1  18
BRANCH   3  27
ATOM     27  C   UNL     1       7.573   6.613  17.986  0.00  0.00    +0.000 C 
ATOM     28  O   UNL     1       7.042   7.327  17.147  0.00  0.00    +0.000 OA
BRANCH  27  29
ATOM     29  OXT UNL     1       8.236   7.129  19.056  0.00  0.00    +0.000 OA
ATOM     30  HXT UNL     1       8.551   6.366  19.600  0.00  0.00    +0.000 HD
ENDBRANCH  27  29
ENDBRANCH   3  27
TORSDOF 6
ENDMDL
MODEL 4
REMARK VINA RESULT:      -6.9      4.599      7.613
REMARK  Name = 
REMARK  7 active torsions:
REMARK  status: ('A' for Active; 'I' for Inactive)
REMARK    1  A    between atoms: C_1  and  C_2
REMARK    2  A    between atoms: C_2  and  O_3
REMARK    3  A    between atoms: O_3  and  C_4
REMARK    4  A    between atoms: C_6  and  C_7
REMARK    5  A    between atoms: CA_9  and  C_10
REMARK    6  A    between atoms: C_10  and  OXT_12
REMARK    7  A    between atoms: C_25  and  O_26
REMARK                            x       y       z     vdW  Elec       q    Type
REMARK                         _______ _______ _______ _____ _____    ______ ____
ROOT
ATOM      1  C   UNL     1       1.213  10.308  19.422  0.00  0.00    +0.000 C 
ATOM      2  N   UNL     1       1.342  11.005  20.734  0.00  0.00    +0.000 NA
ATOM      3  CA  UNL     1       0.055  11.146  21.511  0.00  0.00    +0.000 C 
ATOM      4  C   UNL     1      -1.171  11.674  20.736  0.00  0.00    +0.000 C 
ATOM      5  C   UNL     1      -1.223  11.105  19.364  0.00  0.00    +0.000 A 
ATOM      6  C   UNL     1      -0.117  10.523  18.794  0.00  0.00    +0.000 A 
ATOM      7  N   UNL     1      -0.456  10.103  17.531  0.00  0.00    +0.000 N 
ATOM      8  C   UNL     1      -1.787  10.374  17.297  0.00  0.00    +0.000 A 
ATOM      9  C   UNL     1      -2.576  10.087  16.177  0.00  0.00    +0.000 A 
ATOM     10  C   UNL     1      -3.923  10.461  16.225  0.00  0.00    +0.000 A 
ATOM     11  C   UNL     1      -4.452  11.095  17.347  0.00  0.00    +0.000 A 
ATOM     12  C   UNL     1      -3.650  11.376  18.457  0.00  0.00    +0.000 A 
ATOM     13  C   UNL     1      -2.291  11.006  18.435  0.00  0.00    +0.000 A 
ATOM     14  H   UNL     1       1.615  11.961  20.494  0.00  0.00    +0.000 HD
ATOM     15  H   UNL     1       0.149   9.615  16.888  0.00  0.00    +0.000 HD
ENDROOT
BRANCH   1  18
ATOM     16  C   UNL     1       2.738   6.925  18.533  0.00  0.00    +0.000 A 
ATOM     17  C   UNL     1       2.348   8.268  18.485  0.00  0.00    +0.000 A 
ATOM     18  C   UNL     1       1.608   8.847  19.527  0.00  0.00    +0.000 A 
ATOM     19  C   UNL     1       1.293   8.055  20.642  0.00  0.00    +0.000 A 
ATOM     20  C   UNL     1       1.780   6.754  20.751  0.00  0.00    +0.000 A 
ATOM     21  C   UNL     1       2.516   6.199  19.706  0.00  0.00    +0.000 A 
BRANCH  21  22
ATOM     22  O   UNL     1       3.009   4.930  19.828  0.00  0.00    +0.000 OA
ATOM     23  H   UNL     1       2.864   4.468  18.985  0.00  0.00    +0.000 HD
ENDBRANCH  21  22
BRANCH  16  24
ATOM     24  O   UNL     1       3.334   6.287  17.471  0.00  0.00    +0.000 OA
BRANCH  24  26
ATOM     25  C   UNL     1       5.150   6.289  15.881  0.00  0.00    +0.000 C 
ATOM     26  C   UNL     1       4.711   6.637  17.291  0.00  0.00    +0.000 C 
ENDBRANCH  24  26
ENDBRANCH  16  24
ENDBRANCH   1  18
BRANCH   3  27
ATOM     27  C   UNL     1      -0.253   9.877  22.311  0.00  0.00    +0.000 C 
ATOM     28  O   UNL     1      -1.036   8.997  21.980  0.00  0.00    +0.000 OA
BRANCH  27  29
ATOM     29  OXT UNL     1       0.364   9.875  23.523  0.00  0.00    +0.000 OA
ATOM     30  HXT UNL     1       1.284  10.208  23.384  0.00  0.00    +0.000 HD
ENDBRANCH  27  29
ENDBRANCH   3  27
TORSDOF 6
ENDMDL
MODEL 5
REMARK VINA RESULT:      -6.7      4.801      7.410
REMARK  Name = 
REMARK  7 active torsions:
REMARK  status: ('A' for Active; 'I' for Inactive)
REMARK    1  A    between atoms: C_1  and  C_2
REMARK    2  A    between atoms: C_2  and  O_3
REMARK    3  A    between atoms: O_3  and  C_4
REMARK    4  A    between atoms: C_6  and  C_7
REMARK    5  A    between atoms: CA_9  and  C_10
REMARK    6  A    between atoms: C_10  and  OXT_12
REMARK    7  A    between atoms: C_25  and  O_26
REMARK                            x       y       z     vdW  Elec       q    Type
REMARK                         _______ _______ _______ _____ _____    ______ ____
ROOT
ATOM      1  C   UNL     1      -0.320  11.961  18.637  0.00  0.00    +0.000 C 
ATOM      2  N   UNL     1      -1.308  12.123  19.742  0.00  0.00    +0.000 NA
ATOM      3  CA  UNL     1      -0.936  11.441  21.037  0.00  0.00    +0.000 C 
ATOM      4  C   UNL     1      -0.467   9.973  20.939  0.00  0.00    +0.000 C 
ATOM      5  C   UNL     1       0.395   9.764  19.747  0.00  0.00    +0.000 A 
ATOM      6  C   UNL     1       0.411  10.670  18.714  0.00  0.00    +0.000 A 
ATOM      7  N   UNL     1       1.280  10.211  17.755  0.00  0.00    +0.000 N 
ATOM      8  C   UNL     1       1.858   9.034  18.181  0.00  0.00    +0.000 A 
ATOM      9  C   UNL     1       2.828   8.237  17.562  0.00  0.00    +0.000 A 
ATOM     10  C   UNL     1       3.254   7.093  18.246  0.00  0.00    +0.000 A 
ATOM     11  C   UNL     1       2.728   6.765  19.493  0.00  0.00    +0.000 A 
ATOM     12  C   UNL     1       1.758   7.571  20.097  0.00  0.00    +0.000 A 
ATOM     13  C   UNL     1       1.315   8.732  19.431  0.00  0.00    +0.000 A 
ATOM     14  H   UNL     1      -2.145  11.635  19.415  0.00  0.00    +0.000 HD
ATOM     15  H   UNL     1       1.516  10.684  16.896  0.00  0.00    +0.000 HD
ENDROOT
BRANCH   1  18
ATOM     16  C   UNL     1       0.869  15.585  18.746  0.00  0.00    +0.000 A 
ATOM     17  C   UNL     1       0.074  14.437  18.834  0.00  0.00    +0.000 A 
ATOM     18  C   UNL     1       0.589  13.170  18.523  0.00  0.00    +0.000 A 
ATOM     19  C   UNL     1       1.938  13.072  18.150  0.00  0.00    +0.000 A 
ATOM     20  C   UNL     1       2.767  14.192  18.176  0.00  0.00    +0.000 A 
ATOM     21  C   UNL     1       2.236  15.441  18.492  0.00  0.00    +0.000 A 
BRANCH  21  22
ATOM     22  O   UNL     1       3.058  16.532  18.536  0.00  0.00    +0.000 OA
ATOM     23  H   UNL     1       3.976  16.221  18.458  0.00  0.00    +0.000 HD
ENDBRANCH  21  22
BRANCH  16  24
ATOM     24  O   UNL     1       0.363  16.853  18.901  0.00  0.00    +0.000 OA
BRANCH  24  26
ATOM     25  C   UNL     1       0.105  18.261  16.958  0.00  0.00    +0.000 C 
ATOM     26  C   UNL     1      -0.549  17.238  17.866  0.00  0.00    +0.000 C 
ENDBRANCH  24  26
ENDBRANCH  16  24
ENDBRANCH   1  18
BRANCH   3  27
ATOM     27  C   UNL     1       0.012  12.309  21.869  0.00  0.00    +0.000 C 
ATOM     28  O   UNL     1       1.193  12.514  21.625  0.00  0.00    +0.000 OA
BRANCH  27  29
ATOM     29  OXT UNL     1      -0.576  12.756  23.012  0.00  0.00    +0.000 OA
ATOM     30  HXT UNL     1      -0.829  11.960  23.541  0.00  0.00    +0.000 HD
ENDBRANCH  27  29
ENDBRANCH   3  27
TORSDOF 6
ENDMDL
MODEL 6
REMARK VINA RESULT:      -6.7     10.905     13.312
REMARK  Name = 
REMARK  7 active torsions:
REMARK  status: ('A' for Active; 'I' for Inactive)
REMARK    1  A    between atoms: C_1  and  C_2
REMARK    2  A    between atoms: C_2  and  O_3
REMARK    3  A    between atoms: O_3  and  C_4
REMARK    4  A    between atoms: C_6  and  C_7
REMARK    5  A    between atoms: CA_9  and  C_10
REMARK    6  A    between atoms: C_10  and  OXT_12
REMARK    7  A    between atoms: C_25  and  O_26
REMARK                            x       y       z     vdW  Elec       q    Type
REMARK                         _______ _______ _______ _____ _____    ______ ____
ROOT
ATOM      1  C   UNL     1       7.210   5.309  18.268  0.00  0.00    +0.000 C 
ATOM      2  N   UNL     1       7.876   4.573  17.155  0.00  0.00    +0.000 NA
ATOM      3  CA  UNL     1       6.960   4.148  16.032  0.00  0.00    +0.000 C 
ATOM      4  C   UNL     1       5.645   3.446  16.436  0.00  0.00    +0.000 C 
ATOM      5  C   UNL     1       5.051   4.076  17.644  0.00  0.00    +0.000 A 
ATOM      6  C   UNL     1       5.799   4.887  18.463  0.00  0.00    +0.000 A 
ATOM      7  N   UNL     1       4.998   5.309  19.495  0.00  0.00    +0.000 N 
ATOM      8  C   UNL     1       3.725   4.809  19.326  0.00  0.00    +0.000 A 
ATOM      9  C   UNL     1       2.574   5.008  20.097  0.00  0.00    +0.000 A 
ATOM     10  C   UNL     1       1.396   4.387  19.669  0.00  0.00    +0.000 A 
ATOM     11  C   UNL     1       1.376   3.601  18.520  0.00  0.00    +0.000 A 
ATOM     12  C   UNL     1       2.535   3.409  17.761  0.00  0.00    +0.000 A 
ATOM     13  C   UNL     1       3.734   4.028  18.169  0.00  0.00    +0.000 A 
ATOM     14  H   UNL     1       8.201   3.700  17.579  0.00  0.00    +0.000 HD
ATOM     15  H   UNL     1       5.270   5.938  20.236  0.00  0.00    +0.000 HD
ENDROOT
BRANCH   1  18
ATOM     16  C   UNL     1       8.671   8.812  18.663  0.00  0.00    +0.000 A 
ATOM     17  C   UNL     1       8.466   7.432  18.764  0.00  0.00    +0.000 A 
ATOM     18  C   UNL     1       7.383   6.809  18.124  0.00  0.00    +0.000 A 
ATOM     19  C   UNL     1       6.524   7.600  17.347  0.00  0.00    +0.000 A 
ATOM     20  C   UNL     1       6.790   8.953  17.143  0.00  0.00    +0.000 A 
ATOM     21  C   UNL     1       7.873   9.550  17.786  0.00  0.00    +0.000 A 
BRANCH  21  22
ATOM     22  O   UNL     1       8.141  10.873  17.566  0.00  0.00    +0.000 OA
ATOM     23  H   UNL     1       7.456  11.398  18.014  0.00  0.00    +0.000 HD
ENDBRANCH  21  22
BRANCH  16  24
ATOM     24  O   UNL     1       9.630   9.475  19.391  0.00  0.00    +0.000 OA
BRANCH  24  26
ATOM     25  C   UNL     1      10.138  11.578  20.461  0.00  0.00    +0.000 C 
ATOM     26  C   UNL     1       9.100  10.493  20.247  0.00  0.00    +0.000 C 
ENDBRANCH  24  26
ENDBRANCH  16  24
ENDBRANCH   1  18
BRANCH   3  27
ATOM     27  C   UNL     1       6.739   5.288  15.034  0.00  0.00    +0.000 C 
ATOM     28  O   UNL     1       5.662   5.794  14.755  0.00  0.00    +0.000 OA
BRANCH  27  29
ATOM     29  OXT UNL     1       7.884   5.621  14.378  0.00  0.00    +0.000 OA
ATOM     30  HXT UNL     1       7.917   6.607  14.329  0.00  0.00    +0.000 HD
ENDBRANCH  27  29
ENDBRANCH   3  27
TORSDOF 6
ENDMDL
MODEL 7
REMARK VINA RESULT:      -6.6      1.339      1.887
REMARK  Name = 
REMARK  7 active torsions:
REMARK  status: ('A' for Active; 'I' for Inactive)
REMARK    1  A    between atoms: C_1  and  C_2
REMARK    2  A    between atoms: C_2  and  O_3
REMARK    3  A    between atoms: O_3  and  C_4
REMARK    4  A    between atoms: C_6  and  C_7
REMARK    5  A    between atoms: CA_9  and  C_10
REMARK    6  A    between atoms: C_10  and  OXT_12
REMARK    7  A    between atoms: C_25  and  O_26
REMARK                            x       y       z     vdW  Elec       q    Type
REMARK                         _______ _______ _______ _____ _____    ______ ____
ROOT
ATOM      1  C   UNL     1      -6.016  13.203  19.418  0.00  0.00    +0.000 C 
ATOM      2  N   UNL     1      -7.058  12.524  18.595  0.00  0.00    +0.000 NA
ATOM      3  CA  UNL     1      -6.792  11.066  18.302  0.00  0.00    +0.000 C 
ATOM      4  C   UNL     1      -5.380  10.707  17.792  0.00  0.00    +0.000 C 
ATOM      5  C   UNL     1      -4.338  11.497  18.499  0.00  0.00    +0.000 A 
ATOM      6  C   UNL     1      -4.661  12.634  19.198  0.00  0.00    +0.000 A 
ATOM      7  N   UNL     1      -3.506  13.154  19.728  0.00  0.00    +0.000 N 
ATOM      8  C   UNL     1      -2.443  12.335  19.411  0.00  0.00    +0.000 A 
ATOM      9  C   UNL     1      -1.094  12.438  19.771  0.00  0.00    +0.000 A 
ATOM     10  C   UNL     1      -0.229  11.435  19.321  0.00  0.00    +0.000 A 
ATOM     11  C   UNL     1      -0.698  10.378  18.544  0.00  0.00    +0.000 A 
ATOM     12  C   UNL     1      -2.049  10.291  18.191  0.00  0.00    +0.000 A 
ATOM     13  C   UNL     1      -2.942  11.286  18.637  0.00  0.00    +0.000 A 
ATOM     14  H   UNL     1      -7.016  12.990  17.686  0.00  0.00    +0.000 HD
ATOM     15  H   UNL     1      -3.440  13.973  20.314  0.00  0.00    +0.000 HD
ENDROOT
BRANCH   1  18
ATOM     16  C   UNL     1      -5.845  12.838  23.212  0.00  0.00    +0.000 A 
ATOM     17  C   UNL     1      -5.523  12.799  21.851  0.00  0.00    +0.000 A 
ATOM     18  C   UNL     1      -6.419  13.270  20.879  0.00  0.00    +0.000 A 
ATOM     19  C   UNL     1      -7.639  13.815  21.305  0.00  0.00    +0.000 A 
ATOM     20  C   UNL     1      -7.916  13.967  22.663  0.00  0.00    +0.000 A 
ATOM     21  C   UNL     1      -7.011  13.496  23.611  0.00  0.00    +0.000 A 
BRANCH  21  22
ATOM     22  O   UNL     1      -7.279  13.667  24.941  0.00  0.00    +0.000 OA
ATOM     23  H   UNL     1      -6.691  14.363  25.280  0.00  0.00    +0.000 HD
ENDBRANCH  21  22
BRANCH  16  24
ATOM     24  O   UNL     1      -5.059  12.256  24.178  0.00  0.00    +0.000 OA
BRANCH  24  26
ATOM     25  C   UNL     1      -2.767  12.046  23.451  0.00  0.00    +0.000 C 
ATOM     26  C   UNL     1      -3.755  12.838  24.286  0.00  0.00    +0.000 C 
ENDBRANCH  24  26
ENDBRANCH  16  24
ENDBRANCH   1  18
BRANCH   3  27
ATOM     27  C   UNL     1      -7.246  10.175  19.462  0.00  0.00    +0.000 C 
ATOM     28  O   UNL     1      -7.864  10.547  20.449  0.00  0.00    +0.000 OA
BRANCH  27  29
ATOM     29  OXT UNL     1      -6.781   8.902  19.339  0.00  0.00    +0.000 OA
ATOM     30  HXT UNL     1      -7.551   8.296  19.465  0.00  0.00    +0.000 HD
ENDBRANCH  27  29
ENDBRANCH   3  27
TORSDOF 6
ENDMDL
MODEL 8
REMARK VINA RESULT:      -6.5      4.287      7.491
REMARK  Name = 
REMARK  7 active torsions:
REMARK  status: ('A' for Active; 'I' for Inactive)
REMARK    1  A    between atoms: C_1  and  C_2
REMARK    2  A    between atoms: C_2  and  O_3
REMARK    3  A    between atoms: O_3  and  C_4
REMARK    4  A    between atoms: C_6  and  C_7
REMARK    5  A    between atoms: CA_9  and  C_10
REMARK    6  A    between atoms: C_10  and  OXT_12
REMARK    7  A    between atoms: C_25  and  O_26
REMARK                            x       y       z     vdW  Elec       q    Type
REMARK                         _______ _______ _______ _____ _____    ______ ____
ROOT
ATOM      1  C   UNL     1       0.597  10.859  18.028  0.00  0.00    +0.000 C 
ATOM      2  N   UNL     1       1.368  12.054  18.476  0.00  0.00    +0.000 NA
ATOM      3  CA  UNL     1       0.712  12.866  19.568  0.00  0.00    +0.000 C 
ATOM      4  C   UNL     1      -0.776  13.225  19.369  0.00  0.00    +0.000 C 
ATOM      5  C   UNL     1      -1.526  12.088  18.773  0.00  0.00    +0.000 A 
ATOM      6  C   UNL     1      -0.871  11.054  18.150  0.00  0.00    +0.000 A 
ATOM      7  N   UNL     1      -1.812  10.166  17.689  0.00  0.00    +0.000 N 
ATOM      8  C   UNL     1      -3.071  10.600  18.048  0.00  0.00    +0.000 A 
ATOM      9  C   UNL     1      -4.318  10.001  17.838  0.00  0.00    +0.000 A 
ATOM     10  C   UNL     1      -5.443  10.664  18.340  0.00  0.00    +0.000 A 
ATOM     11  C   UNL     1      -5.319  11.873  19.021  0.00  0.00    +0.000 A 
ATOM     12  C   UNL     1      -4.066  12.458  19.222  0.00  0.00    +0.000 A 
ATOM     13  C   UNL     1      -2.916  11.808  18.729  0.00  0.00    +0.000 A 
ATOM     14  H   UNL     1       1.387  12.672  17.661  0.00  0.00    +0.000 HD
ATOM     15  H   UNL     1      -1.622   9.295  17.216  0.00  0.00    +0.000 HD
ENDROOT
BRANCH   1  18
ATOM     16  C   UNL     1       2.437   7.555  18.532  0.00  0.00    +0.000 A 
ATOM     17  C   UNL     1       1.944   8.736  17.967  0.00  0.00    +0.000 A 
ATOM     18  C   UNL     1       1.101   9.592  18.692  0.00  0.00    +0.000 A 
ATOM     19  C   UNL     1       0.787   9.253  20.017  0.00  0.00    +0.000 A 
ATOM     20  C   UNL     1       1.370   8.143  20.625  0.00  0.00    +0.000 A 
ATOM     21  C   UNL     1       2.207   7.309  19.888  0.00  0.00    +0.000 A 
BRANCH  21  22
ATOM     22  O   UNL     1       2.792   6.233  20.496  0.00  0.00    +0.000 OA
ATOM     23  H   UNL     1       3.590   6.543  20.955  0.00  0.00    +0.000 HD
ENDBRANCH  21  22
BRANCH  16  24
ATOM     24  O   UNL     1       3.142   6.624  17.808  0.00  0.00    +0.000 OA
BRANCH  24  26
ATOM     25  C   UNL     1       4.971   6.261  16.275  0.00  0.00    +0.000 C 
ATOM     26  C   UNL     1       4.472   7.040  17.476  0.00  0.00    +0.000 C 
ENDBRANCH  24  26
ENDBRANCH  16  24
ENDBRANCH   1  18
BRANCH   3  27
ATOM     27  C   UNL     1       0.996  12.269  20.950  0.00  0.00    +0.000 C 
ATOM     28  O   UNL     1       0.153  11.940  21.773  0.00  0.00    +0.000 OA
BRANCH  27  29
ATOM     29  OXT UNL     1       2.327  12.244  21.232  0.00  0.00    +0.000 OA
ATOM     30  HXT UNL     1       2.774  12.839  20.582  0.00  0.00    +0.000 HD
ENDBRANCH  27  29
ENDBRANCH   3  27
TORSDOF 6
ENDMDL
MODEL 9
REMARK VINA RESULT:      -6.4      5.095      7.556
REMARK  Name = 
REMARK  7 active torsions:
REMARK  status: ('A' for Active; 'I' for Inactive)
REMARK    1  A    between atoms: C_1  and  C_2
REMARK    2  A    between atoms: C_2  and  O_3
REMARK    3  A    between atoms: O_3  and  C_4
REMARK    4  A    between atoms: C_6  and  C_7
REMARK    5  A    between atoms: CA_9  and  C_10
REMARK    6  A    between atoms: C_10  and  OXT_12
REMARK    7  A    between atoms: C_25  and  O_26
REMARK                            x       y       z     vdW  Elec       q    Type
REMARK                         _______ _______ _______ _____ _____    ______ ____
ROOT
ATOM      1  C   UNL     1       0.398  11.020  20.577  0.00  0.00    +0.000 C 
ATOM      2  N   UNL     1      -1.083  10.857  20.522  0.00  0.00    +0.000 NA
ATOM      3  CA  UNL     1      -1.783  11.719  19.498  0.00  0.00    +0.000 C 
ATOM      4  C   UNL     1      -1.401  13.214  19.470  0.00  0.00    +0.000 C 
ATOM      5  C   UNL     1       0.058  13.398  19.682  0.00  0.00    +0.000 A 
ATOM      6  C   UNL     1       0.831  12.394  20.212  0.00  0.00    +0.000 A 
ATOM      7  N   UNL     1       2.123  12.850  20.305  0.00  0.00    +0.000 N 
ATOM      8  C   UNL     1       2.198  14.130  19.798  0.00  0.00    +0.000 A 
ATOM      9  C   UNL     1       3.307  14.970  19.645  0.00  0.00    +0.000 A 
ATOM     10  C   UNL     1       3.089  16.227  19.069  0.00  0.00    +0.000 A 
ATOM     11  C   UNL     1       1.815  16.621  18.667  0.00  0.00    +0.000 A 
ATOM     12  C   UNL     1       0.717  15.770  18.829  0.00  0.00    +0.000 A 
ATOM     13  C   UNL     1       0.910  14.497  19.402  0.00  0.00    +0.000 A 
ATOM     14  H   UNL     1      -1.416  11.197  21.427  0.00  0.00    +0.000 HD
ATOM     15  H   UNL     1       2.916  12.319  20.632  0.00  0.00    +0.000 HD
ENDROOT
BRANCH   1  18
ATOM     16  C   UNL     1       2.020   7.667  19.751  0.00  0.00    +0.000 A 
ATOM     17  C   UNL     1       1.370   8.705  20.426  0.00  0.00    +0.000 A 
ATOM     18  C   UNL     1       1.106   9.930  19.795  0.00  0.00    +0.000 A 
ATOM     19  C   UNL     1       1.481  10.082  18.451  0.00  0.00    +0.000 A 
ATOM     20  C   UNL     1       2.019   9.013  17.737  0.00  0.00    +0.000 A 
ATOM     21  C   UNL     1       2.269   7.804  18.383  0.00  0.00    +0.000 A 
BRANCH  21  22
ATOM     22  O   UNL     1       2.778   6.753  17.672  0.00  0.00    +0.000 OA
ATOM     23  H   UNL     1       2.894   6.005  18.281  0.00  0.00    +0.000 HD
ENDBRANCH  21  22
BRANCH  16  24
ATOM     24  O   UNL     1       2.423   6.512  20.377  0.00  0.00    +0.000 OA
BRANCH  24  26
ATOM     25  C   UNL     1       1.938   4.217  20.945  0.00  0.00    +0.000 C 
ATOM     26  C   UNL     1       1.362   5.576  20.596  0.00  0.00    +0.000 C 
ENDBRANCH  24  26
ENDBRANCH  16  24
ENDBRANCH   1  18
BRANCH   3  27
ATOM     27  C   UNL     1      -1.745  11.073  18.109  0.00  0.00    +0.000 C 
ATOM     28  O   UNL     1      -1.864   9.879  17.874  0.00  0.00    +0.000 OA
BRANCH  27  29
ATOM     29  OXT UNL     1      -1.439  11.973  17.136  0.00  0.00    +0.000 OA
ATOM     30  HXT UNL     1      -2.206  12.593  17.060  0.00  0.00    +0.000 HD
ENDBRANCH  27  29
ENDBRANCH   3  27
TORSDOF 6
ENDMDL
