MODEL 1
REMARK VINA RESULT:      -7.4      0.000      0.000
REMARK  Name = 
REMARK  3 active torsions:
REMARK  status: ('A' for Active; 'I' for Inactive)
REMARK    1  A    between atoms: N_2  and  C_4
REMARK    2  A    between atoms: C_7  and  C_8
REMARK    3  A    between atoms: C_8  and  N_9
REMARK                            x       y       z     vdW  Elec       q    Type
REMARK                         _______ _______ _______ _____ _____    ______ ____
ROOT
ATOM      1  N   UNL     1       4.837   3.788  18.011  0.00  0.00    +0.000 N 
ATOM      2  C   UNL     1       3.842   3.183  17.318  0.00  0.00    +0.000 A 
ATOM      3  C   UNL     1       2.524   3.558  17.562  0.00  0.00    +0.000 A 
ATOM      4  C   UNL     1       2.340   4.425  18.645  0.00  0.00    +0.000 A 
ATOM      5  C   UNL     1       3.283   4.295  19.673  0.00  0.00    +0.000 A 
ATOM      6  C   UNL     1       4.617   4.278  19.259  0.00  0.00    +0.000 A 
ATOM      7  N   UNL     1       2.601   4.896  20.724  0.00  0.00    +0.000 N 
ATOM      8  C   UNL     1       2.132   6.084  20.188  0.00  0.00    +0.000 A 
ATOM      9  C   UNL     1       1.839   7.298  20.801  0.00  0.00    +0.000 A 
ATOM     10  C   UNL     1       1.820   8.405  19.955  0.00  0.00    +0.000 A 
ATOM     11  C   UNL     1       1.989   8.256  18.575  0.00  0.00    +0.000 A 
ATOM     12 CL   UNL     1       2.247   9.669  17.621  0.00  0.00    +0.000 Cl
ATOM     13  C   UNL     1       2.047   6.988  17.966  0.00  0.00    +0.000 A 
ATOM     14  C   UNL     1       2.096   5.855  18.805  0.00  0.00    +0.000 A 
ATOM     15  H   UNL     1       2.015   4.381  21.369  0.00  0.00    +0.000 HD
ENDROOT
BRANCH   1  16
ATOM     16  C   UNL     1       5.981   4.281  17.209  0.00  0.00    +0.000 C 
BRANCH  16  20
ATOM     17  C   UNL     1       7.750   8.110  18.074  0.00  0.00    +0.000 A 
ATOM     18  C   UNL     1       8.253   6.951  18.667  0.00  0.00    +0.000 A 
ATOM     19  C   UNL     1       7.639   5.731  18.407  0.00  0.00    +0.000 A 
ATOM     20  C   UNL     1       6.508   5.644  17.564  0.00  0.00    +0.000 A 
ATOM     21  C   UNL     1       6.009   6.814  16.983  0.00  0.00    +0.000 A 
ATOM     22  C   UNL     1       6.631   8.058  17.244  0.00  0.00    +0.000 A 
BRANCH  17  24
ATOM     23  O   UNL     1       8.116  10.337  17.559  0.00  0.00    +0.000 OA
ATOM     24  N   UNL     1       8.413   9.388  18.302  0.00  0.00    +0.000 N 
ATOM     25  O   UNL     1       9.213   9.468  19.237  0.00  0.00    +0.000 OA
ENDBRANCH  17  24
ENDBRANCH  16  20
ENDBRANCH   1  16
TORSDOF 3
ENDMDL
MODEL 2
REMARK VINA RESULT:      -7.4      3.470      5.390
REMARK  Name = 
REMARK  3 active torsions:
REMARK  status: ('A' for Active; 'I' for Inactive)
REMARK    1  A    between atoms: N_2  and  C_4
REMARK    2  A    between atoms: C_7  and  C_8
REMARK    3  A    between atoms: C_8  and  N_9
REMARK                            x       y       z     vdW  Elec       q    Type
REMARK                         _______ _______ _______ _____ _____    ______ ____
ROOT
ATOM      1  N   UNL     1       4.894   6.578  16.798  0.00  0.00    +0.000 N 
ATOM      2  C   UNL     1       5.202   5.863  15.689  0.00  0.00    +0.000 A 
ATOM      3  C   UNL     1       5.264   4.476  15.777  0.00  0.00    +0.000 A 
ATOM      4  C   UNL     1       5.164   3.953  17.071  0.00  0.00    +0.000 A 
ATOM      5  C   UNL     1       5.650   4.787  18.085  0.00  0.00    +0.000 A 
ATOM      6  C   UNL     1       5.199   6.109  18.036  0.00  0.00    +0.000 A 
ATOM      7  N   UNL     1       5.842   3.865  19.106  0.00  0.00    +0.000 N 
ATOM      8  C   UNL     1       4.661   3.143  19.137  0.00  0.00    +0.000 A 
ATOM      9  C   UNL     1       4.042   2.468  20.183  0.00  0.00    +0.000 A 
ATOM     10  C   UNL     1       2.679   2.227  20.017  0.00  0.00    +0.000 A 
ATOM     11  C   UNL     1       2.032   2.568  18.825  0.00  0.00    +0.000 A 
ATOM     12 CL   UNL     1       0.308   2.520  18.783  0.00  0.00    +0.000 Cl
ATOM     13  C   UNL     1       2.740   3.034  17.702  0.00  0.00    +0.000 A 
ATOM     14  C   UNL     1       4.115   3.310  17.855  0.00  0.00    +0.000 A 
ATOM     15  H   UNL     1       6.719   3.383  19.258  0.00  0.00    +0.000 HD
ENDROOT
BRANCH   1  16
ATOM     16  C   UNL     1       3.850   7.616  16.632  0.00  0.00    +0.000 C 
BRANCH  16  20
ATOM     17  C   UNL     1       1.471   8.238  20.167  0.00  0.00    +0.000 A 
ATOM     18  C   UNL     1       2.125   7.023  19.962  0.00  0.00    +0.000 A 
ATOM     19  C   UNL     1       2.853   6.828  18.794  0.00  0.00    +0.000 A 
ATOM     20  C   UNL     1       2.932   7.833  17.804  0.00  0.00    +0.000 A 
ATOM     21  C   UNL     1       2.265   9.043  18.017  0.00  0.00    +0.000 A 
ATOM     22  C   UNL     1       1.524   9.247  19.205  0.00  0.00    +0.000 A 
BRANCH  17  24
ATOM     23  O   UNL     1      -0.466   8.198  21.434  0.00  0.00    +0.000 OA
ATOM     24  N   UNL     1       0.744   8.471  21.409  0.00  0.00    +0.000 N 
ATOM     25  O   UNL     1       1.375   8.901  22.378  0.00  0.00    +0.000 OA
ENDBRANCH  17  24
ENDBRANCH  16  20
ENDBRANCH   1  16
TORSDOF 3
ENDMDL
MODEL 3
REMARK VINA RESULT:      -7.1      3.624      5.583
REMARK  Name = 
REMARK  3 active torsions:
REMARK  status: ('A' for Active; 'I' for Inactive)
REMARK    1  A    between atoms: N_2  and  C_4
REMARK    2  A    between atoms: C_7  and  C_8
REMARK    3  A    between atoms: C_8  and  N_9
REMARK                            x       y       z     vdW  Elec       q    Type
REMARK                         _______ _______ _______ _____ _____    ______ ____
ROOT
ATOM      1  N   UNL     1       4.771   6.599  16.855  0.00  0.00    +0.000 N 
ATOM      2  C   UNL     1       5.138   5.895  15.758  0.00  0.00    +0.000 A 
ATOM      3  C   UNL     1       5.265   4.513  15.854  0.00  0.00    +0.000 A 
ATOM      4  C   UNL     1       5.161   3.991  17.148  0.00  0.00    +0.000 A 
ATOM      5  C   UNL     1       5.583   4.852  18.169  0.00  0.00    +0.000 A 
ATOM      6  C   UNL     1       5.070   6.150  18.103  0.00  0.00    +0.000 A 
ATOM      7  N   UNL     1       5.796   3.945  19.198  0.00  0.00    +0.000 N 
ATOM      8  C   UNL     1       4.651   3.167  19.206  0.00  0.00    +0.000 A 
ATOM      9  C   UNL     1       4.042   2.466  20.242  0.00  0.00    +0.000 A 
ATOM     10  C   UNL     1       2.696   2.159  20.047  0.00  0.00    +0.000 A 
ATOM     11  C   UNL     1       2.060   2.463  18.839  0.00  0.00    +0.000 A 
ATOM     12 CL   UNL     1       0.343   2.332  18.759  0.00  0.00    +0.000 Cl
ATOM     13  C   UNL     1       2.771   2.958  17.729  0.00  0.00    +0.000 A 
ATOM     14  C   UNL     1       4.127   3.301  17.912  0.00  0.00    +0.000 A 
ATOM     15  H   UNL     1       6.692   3.506  19.372  0.00  0.00    +0.000 HD
ENDROOT
BRANCH   1  16
ATOM     16  C   UNL     1       3.682   7.585  16.661  0.00  0.00    +0.000 C 
BRANCH  16  20
ATOM     17  C   UNL     1       1.219   8.716  20.007  0.00  0.00    +0.000 A 
ATOM     18  C   UNL     1       1.442   9.612  18.961  0.00  0.00    +0.000 A 
ATOM     19  C   UNL     1       2.275   9.241  17.911  0.00  0.00    +0.000 A 
ATOM     20  C   UNL     1       2.911   7.980  17.891  0.00  0.00    +0.000 A 
ATOM     21  C   UNL     1       2.686   7.094  18.949  0.00  0.00    +0.000 A 
ATOM     22  C   UNL     1       1.838   7.466  20.019  0.00  0.00    +0.000 A 
BRANCH  17  24
ATOM     23  O   UNL     1      -0.363   8.169  21.606  0.00  0.00    +0.000 OA
ATOM     24  N   UNL     1       0.310   9.074  21.089  0.00  0.00    +0.000 N 
ATOM     25  O   UNL     1       0.279  10.252  21.453  0.00  0.00    +0.000 OA
ENDBRANCH  17  24
ENDBRANCH  16  20
ENDBRANCH   1  16
TORSDOF 3
ENDMDL
MODEL 4
REMARK VINA RESULT:      -7.1      0.735      1.001
REMARK  Name = 
REMARK  3 active torsions:
REMARK  status: ('A' for Active; 'I' for Inactive)
REMARK    1  A    between atoms: N_2  and  C_4
REMARK    2  A    between atoms: C_7  and  C_8
REMARK    3  A    between atoms: C_8  and  N_9
REMARK                            x       y       z     vdW  Elec       q    Type
REMARK                         _______ _______ _______ _____ _____    ______ ____
ROOT
ATOM      1  N   UNL     1       4.238   3.131  18.239  0.00  0.00    +0.000 N 
ATOM      2  C   UNL     1       3.178   2.659  17.540  0.00  0.00    +0.000 A 
ATOM      3  C   UNL     1       1.918   3.199  17.779  0.00  0.00    +0.000 A 
ATOM      4  C   UNL     1       1.841   4.081  18.863  0.00  0.00    +0.000 A 
ATOM      5  C   UNL     1       2.754   3.830  19.895  0.00  0.00    +0.000 A 
ATOM      6  C   UNL     1       4.077   3.643  19.487  0.00  0.00    +0.000 A 
ATOM      7  N   UNL     1       2.150   4.512  20.944  0.00  0.00    +0.000 N 
ATOM      8  C   UNL     1       1.840   5.751  20.408  0.00  0.00    +0.000 A 
ATOM      9  C   UNL     1       1.702   6.992  21.022  0.00  0.00    +0.000 A 
ATOM     10  C   UNL     1       1.829   8.094  20.178  0.00  0.00    +0.000 A 
ATOM     11  C   UNL     1       1.984   7.925  18.799  0.00  0.00    +0.000 A 
ATOM     12 CL   UNL     1       2.426   9.295  17.849  0.00  0.00    +0.000 Cl
ATOM     13  C   UNL     1       1.883   6.661  18.188  0.00  0.00    +0.000 A 
ATOM     14  C   UNL     1       1.782   5.530  19.024  0.00  0.00    +0.000 A 
ATOM     15  H   UNL     1       1.499   4.075  21.585  0.00  0.00    +0.000 HD
ENDROOT
BRANCH   1  16
ATOM     16  C   UNL     1       5.440   3.474  17.443  0.00  0.00    +0.000 C 
BRANCH  16  20
ATOM     17  C   UNL     1       7.331   7.315  17.895  0.00  0.00    +0.000 A 
ATOM     18  C   UNL     1       7.865   6.189  18.522  0.00  0.00    +0.000 A 
ATOM     19  C   UNL     1       7.214   4.966  18.398  0.00  0.00    +0.000 A 
ATOM     20  C   UNL     1       6.015   4.847  17.660  0.00  0.00    +0.000 A 
ATOM     21  C   UNL     1       5.486   5.984  17.044  0.00  0.00    +0.000 A 
ATOM     22  C   UNL     1       6.146   7.231  17.166  0.00  0.00    +0.000 A 
BRANCH  17  24
ATOM     23  O   UNL     1       8.900   8.722  18.854  0.00  0.00    +0.000 OA
ATOM     24  N   UNL     1       8.030   8.592  17.979  0.00  0.00    +0.000 N 
ATOM     25  O   UNL     1       7.741   9.466  17.158  0.00  0.00    +0.000 OA
ENDBRANCH  17  24
ENDBRANCH  16  20
ENDBRANCH   1  16
TORSDOF 3
ENDMDL
MODEL 5
REMARK VINA RESULT:      -7.1      2.895      5.252
REMARK  Name = 
REMARK  3 active torsions:
REMARK  status: ('A' for Active; 'I' for Inactive)
REMARK    1  A    between atoms: N_2  and  C_4
REMARK    2  A    between atoms: C_7  and  C_8
REMARK    3  A    between atoms: C_8  and  N_9
REMARK                            x       y       z     vdW  Elec       q    Type
REMARK                         _______ _______ _______ _____ _____    ______ ____
ROOT
ATOM      1  N   UNL     1       2.333   3.939  20.150  0.00  0.00    +0.000 N 
ATOM      2  C   UNL     1       3.100   2.944  20.655  0.00  0.00    +0.000 A 
ATOM      3  C   UNL     1       4.170   2.468  19.902  0.00  0.00    +0.000 A 
ATOM      4  C   UNL     1       4.248   2.961  18.595  0.00  0.00    +0.000 A 
ATOM      5  C   UNL     1       3.017   3.297  18.015  0.00  0.00    +0.000 A 
ATOM      6  C   UNL     1       2.183   4.090  18.807  0.00  0.00    +0.000 A 
ATOM      7  N   UNL     1       3.358   3.291  16.669  0.00  0.00    +0.000 N 
ATOM      8  C   UNL     1       4.521   4.040  16.611  0.00  0.00    +0.000 A 
ATOM      9  C   UNL     1       5.057   4.799  15.575  0.00  0.00    +0.000 A 
ATOM     10  C   UNL     1       5.980   5.770  15.960  0.00  0.00    +0.000 A 
ATOM     11  C   UNL     1       6.390   5.880  17.293  0.00  0.00    +0.000 A 
ATOM     12 CL   UNL     1       7.297   7.270  17.761  0.00  0.00    +0.000 Cl
ATOM     13  C   UNL     1       6.004   4.942  18.269  0.00  0.00    +0.000 A 
ATOM     14  C   UNL     1       5.050   3.968  17.908  0.00  0.00    +0.000 A 
ATOM     15  H   UNL     1       3.268   2.473  16.079  0.00  0.00    +0.000 HD
ENDROOT
BRANCH   1  16
ATOM     16  C   UNL     1       2.059   5.075  21.060  0.00  0.00    +0.000 C 
BRANCH  16  20
ATOM     17  C   UNL     1       1.713   8.855  19.028  0.00  0.00    +0.000 A 
ATOM     18  C   UNL     1       2.461   7.819  18.467  0.00  0.00    +0.000 A 
ATOM     19  C   UNL     1       2.594   6.621  19.161  0.00  0.00    +0.000 A 
ATOM     20  C   UNL     1       1.999   6.439  20.429  0.00  0.00    +0.000 A 
ATOM     21  C   UNL     1       1.259   7.488  20.984  0.00  0.00    +0.000 A 
ATOM     22  C   UNL     1       1.119   8.708  20.281  0.00  0.00    +0.000 A 
BRANCH  17  24
ATOM     23  O   UNL     1       2.427  10.453  17.512  0.00  0.00    +0.000 OA
ATOM     24  N   UNL     1       1.527  10.098  18.290  0.00  0.00    +0.000 N 
ATOM     25  O   UNL     1       0.473  10.717  18.454  0.00  0.00    +0.000 OA
ENDBRANCH  17  24
ENDBRANCH  16  20
ENDBRANCH   1  16
TORSDOF 3
ENDMDL
MODEL 6
REMARK VINA RESULT:      -7.0      2.980      5.400
REMARK  Name = 
REMARK  3 active torsions:
REMARK  status: ('A' for Active; 'I' for Inactive)
REMARK    1  A    between atoms: N_2  and  C_4
REMARK    2  A    between atoms: C_7  and  C_8
REMARK    3  A    between atoms: C_8  and  N_9
REMARK                            x       y       z     vdW  Elec       q    Type
REMARK                         _______ _______ _______ _____ _____    ______ ____
ROOT
ATOM      1  N   UNL     1       2.260   4.348  20.114  0.00  0.00    +0.000 N 
ATOM      2  C   UNL     1       2.895   3.304  20.698  0.00  0.00    +0.000 A 
ATOM      3  C   UNL     1       3.946   2.690  20.022  0.00  0.00    +0.000 A 
ATOM      4  C   UNL     1       4.138   3.115  18.703  0.00  0.00    +0.000 A 
ATOM      5  C   UNL     1       2.979   3.547  18.046  0.00  0.00    +0.000 A 
ATOM      6  C   UNL     1       2.192   4.454  18.761  0.00  0.00    +0.000 A 
ATOM      7  N   UNL     1       3.383   3.449  16.721  0.00  0.00    +0.000 N 
ATOM      8  C   UNL     1       4.619   4.073  16.696  0.00  0.00    +0.000 A 
ATOM      9  C   UNL     1       5.280   4.728  15.662  0.00  0.00    +0.000 A 
ATOM     10  C   UNL     1       6.277   5.617  16.058  0.00  0.00    +0.000 A 
ATOM     11  C   UNL     1       6.630   5.744  17.405  0.00  0.00    +0.000 A 
ATOM     12 CL   UNL     1       7.651   7.055  17.867  0.00  0.00    +0.000 Cl
ATOM     13  C   UNL     1       6.102   4.893  18.395  0.00  0.00    +0.000 A 
ATOM     14  C   UNL     1       5.073   4.005  18.021  0.00  0.00    +0.000 A 
ATOM     15  H   UNL     1       3.239   2.618  16.159  0.00  0.00    +0.000 HD
ENDROOT
BRANCH   1  16
ATOM     16  C   UNL     1       2.060   5.545  20.964  0.00  0.00    +0.000 C 
BRANCH  16  20
ATOM     17  C   UNL     1       1.482   9.392  19.120  0.00  0.00    +0.000 A 
ATOM     18  C   UNL     1       0.905   9.110  20.359  0.00  0.00    +0.000 A 
ATOM     19  C   UNL     1       1.069   7.847  20.916  0.00  0.00    +0.000 A 
ATOM     20  C   UNL     1       1.797   6.840  20.245  0.00  0.00    +0.000 A 
ATOM     21  C   UNL     1       2.364   7.132  19.001  0.00  0.00    +0.000 A 
ATOM     22  C   UNL     1       2.201   8.417  18.431  0.00  0.00    +0.000 A 
BRANCH  17  24
ATOM     23  O   UNL     1       0.248  11.281  18.601  0.00  0.00    +0.000 OA
ATOM     24  N   UNL     1       1.357  10.728  18.548  0.00  0.00    +0.000 N 
ATOM     25  O   UNL     1       2.366  11.248  18.067  0.00  0.00    +0.000 OA
ENDBRANCH  17  24
ENDBRANCH  16  20
ENDBRANCH   1  16
TORSDOF 3
ENDMDL
MODEL 7
REMARK VINA RESULT:      -6.9      0.995      1.648
REMARK  Name = 
REMARK  3 active torsions:
REMARK  status: ('A' for Active; 'I' for Inactive)
REMARK    1  A    between atoms: N_2  and  C_4
REMARK    2  A    between atoms: C_7  and  C_8
REMARK    3  A    between atoms: C_8  and  N_9
REMARK                            x       y       z     vdW  Elec       q    Type
REMARK                         _______ _______ _______ _____ _____    ______ ____
ROOT
ATOM      1  N   UNL     1       3.876   2.920  18.153  0.00  0.00    +0.000 N 
ATOM      2  C   UNL     1       2.688   2.444  17.708  0.00  0.00    +0.000 A 
ATOM      3  C   UNL     1       1.514   3.071  18.115  0.00  0.00    +0.000 A 
ATOM      4  C   UNL     1       1.671   4.052  19.101  0.00  0.00    +0.000 A 
ATOM      5  C   UNL     1       2.750   3.848  19.971  0.00  0.00    +0.000 A 
ATOM      6  C   UNL     1       3.967   3.553  19.352  0.00  0.00    +0.000 A 
ATOM      7  N   UNL     1       2.375   4.656  21.037  0.00  0.00    +0.000 N 
ATOM      8  C   UNL     1       2.017   5.855  20.445  0.00  0.00    +0.000 A 
ATOM      9  C   UNL     1       2.040   7.152  20.945  0.00  0.00    +0.000 A 
ATOM     10  C   UNL     1       2.047   8.163  19.986  0.00  0.00    +0.000 A 
ATOM     11  C   UNL     1       1.939   7.860  18.625  0.00  0.00    +0.000 A 
ATOM     12 CL   UNL     1       2.247   9.111  17.478  0.00  0.00    +0.000 Cl
ATOM     13  C   UNL     1       1.681   6.553  18.173  0.00  0.00    +0.000 A 
ATOM     14  C   UNL     1       1.695   5.511  19.124  0.00  0.00    +0.000 A 
ATOM     15  H   UNL     1       1.839   4.316  21.827  0.00  0.00    +0.000 HD
ENDROOT
BRANCH   1  16
ATOM     16  C   UNL     1       4.922   3.123  17.123  0.00  0.00    +0.000 C 
BRANCH  16  20
ATOM     17  C   UNL     1       7.011   6.853  17.630  0.00  0.00    +0.000 A 
ATOM     18  C   UNL     1       5.716   6.835  17.111  0.00  0.00    +0.000 A 
ATOM     19  C   UNL     1       5.076   5.616  16.916  0.00  0.00    +0.000 A 
ATOM     20  C   UNL     1       5.718   4.395  17.221  0.00  0.00    +0.000 A 
ATOM     21  C   UNL     1       7.018   4.426  17.733  0.00  0.00    +0.000 A 
ATOM     22  C   UNL     1       7.673   5.664  17.934  0.00  0.00    +0.000 A 
BRANCH  17  24
ATOM     23  O   UNL     1       8.592   8.147  18.718  0.00  0.00    +0.000 OA
ATOM     24  N   UNL     1       7.674   8.127  17.883  0.00  0.00    +0.000 N 
ATOM     25  O   UNL     1       7.309   9.110  17.235  0.00  0.00    +0.000 OA
ENDBRANCH  17  24
ENDBRANCH  16  20
ENDBRANCH   1  16
TORSDOF 3
ENDMDL
MODEL 8
REMARK VINA RESULT:      -6.9      3.650      5.227
REMARK  Name = 
REMARK  3 active torsions:
REMARK  status: ('A' for Active; 'I' for Inactive)
REMARK    1  A    between atoms: N_2  and  C_4
REMARK    2  A    between atoms: C_7  and  C_8
REMARK    3  A    between atoms: C_8  and  N_9
REMARK                            x       y       z     vdW  Elec       q    Type
REMARK                         _______ _______ _______ _____ _____    ______ ____
ROOT
ATOM      1  N   UNL     1       2.079   8.218  19.265  0.00  0.00    +0.000 N 
ATOM      2  C   UNL     1       1.503   7.896  20.448  0.00  0.00    +0.000 A 
ATOM      3  C   UNL     1       0.458   8.682  20.926  0.00  0.00    +0.000 A 
ATOM      4  C   UNL     1       0.210   9.853  20.202  0.00  0.00    +0.000 A 
ATOM      5  C   UNL     1       1.332  10.406  19.570  0.00  0.00    +0.000 A 
ATOM      6  C   UNL     1       2.103   9.506  18.830  0.00  0.00    +0.000 A 
ATOM      7  N   UNL     1       0.894  11.708  19.362  0.00  0.00    +0.000 N 
ATOM      8  C   UNL     1      -0.365  11.556  18.807  0.00  0.00    +0.000 A 
ATOM      9  C   UNL     1      -1.081  12.386  17.950  0.00  0.00    +0.000 A 
ATOM     10  C   UNL     1      -2.101  11.766  17.231  0.00  0.00    +0.000 A 
ATOM     11  C   UNL     1      -2.420  10.423  17.452  0.00  0.00    +0.000 A 
ATOM     12 CL   UNL     1      -3.478   9.636  16.341  0.00  0.00    +0.000 Cl
ATOM     13  C   UNL     1      -1.830   9.681  18.493  0.00  0.00    +0.000 A 
ATOM     14  C   UNL     1      -0.778  10.279  19.216  0.00  0.00    +0.000 A 
ATOM     15  H   UNL     1       1.055  12.458  20.023  0.00  0.00    +0.000 HD
ENDROOT
BRANCH   1  16
ATOM     16  C   UNL     1       2.257   7.105  18.304  0.00  0.00    +0.000 C 
BRANCH  16  20
ATOM     17  C   UNL     1       6.156   5.376  17.720  0.00  0.00    +0.000 A 
ATOM     18  C   UNL     1       5.391   5.029  18.833  0.00  0.00    +0.000 A 
ATOM     19  C   UNL     1       4.152   5.632  19.025  0.00  0.00    +0.000 A 
ATOM     20  C   UNL     1       3.661   6.599  18.120  0.00  0.00    +0.000 A 
ATOM     21  C   UNL     1       4.441   6.944  17.012  0.00  0.00    +0.000 A 
ATOM     22  C   UNL     1       5.702   6.332  16.812  0.00  0.00    +0.000 A 
BRANCH  17  24
ATOM     23  O   UNL     1       7.770   4.506  16.307  0.00  0.00    +0.000 OA
ATOM     24  N   UNL     1       7.435   4.716  17.483  0.00  0.00    +0.000 N 
ATOM     25  O   UNL     1       8.128   4.428  18.461  0.00  0.00    +0.000 OA
ENDBRANCH  17  24
ENDBRANCH  16  20
ENDBRANCH   1  16
TORSDOF 3
ENDMDL
MODEL 9
REMARK VINA RESULT:      -6.8      3.566      5.257
REMARK  Name = 
REMARK  3 active torsions:
REMARK  status: ('A' for Active; 'I' for Inactive)
REMARK    1  A    between atoms: N_2  and  C_4
REMARK    2  A    between atoms: C_7  and  C_8
REMARK    3  A    between atoms: C_8  and  N_9
REMARK                            x       y       z     vdW  Elec       q    Type
REMARK                         _______ _______ _______ _____ _____    ______ ____
ROOT
ATOM      1  N   UNL     1       2.054   8.121  19.346  0.00  0.00    +0.000 N 
ATOM      2  C   UNL     1       1.491   7.794  20.534  0.00  0.00    +0.000 A 
ATOM      3  C   UNL     1       0.485   8.605  21.050  0.00  0.00    +0.000 A 
ATOM      4  C   UNL     1       0.264   9.800  20.356  0.00  0.00    +0.000 A 
ATOM      5  C   UNL     1       1.392  10.326  19.713  0.00  0.00    +0.000 A 
ATOM      6  C   UNL     1       2.115   9.416  18.938  0.00  0.00    +0.000 A 
ATOM      7  N   UNL     1       0.996  11.647  19.541  0.00  0.00    +0.000 N 
ATOM      8  C   UNL     1      -0.279  11.551  19.010  0.00  0.00    +0.000 A 
ATOM      9  C   UNL     1      -0.983  12.424  18.186  0.00  0.00    +0.000 A 
ATOM     10  C   UNL     1      -2.039  11.856  17.476  0.00  0.00    +0.000 A 
ATOM     11  C   UNL     1      -2.400  10.519  17.676  0.00  0.00    +0.000 A 
ATOM     12 CL   UNL     1      -3.508   9.794  16.571  0.00  0.00    +0.000 Cl
ATOM     13  C   UNL     1      -1.816   9.735  18.688  0.00  0.00    +0.000 A 
ATOM     14  C   UNL     1      -0.728  10.281  19.401  0.00  0.00    +0.000 A 
ATOM     15  H   UNL     1       1.196  12.376  20.214  0.00  0.00    +0.000 HD
ENDROOT
BRANCH   1  16
ATOM     16  C   UNL     1       2.173   7.024  18.359  0.00  0.00    +0.000 C 
BRANCH  16  20
ATOM     17  C   UNL     1       6.145   5.379  18.120  0.00  0.00    +0.000 A 
ATOM     18  C   UNL     1       5.650   6.179  17.089  0.00  0.00    +0.000 A 
ATOM     19  C   UNL     1       4.350   6.664  17.167  0.00  0.00    +0.000 A 
ATOM     20  C   UNL     1       3.516   6.351  18.264  0.00  0.00    +0.000 A 
ATOM     21  C   UNL     1       4.020   5.542  19.286  0.00  0.00    +0.000 A 
ATOM     22  C   UNL     1       5.344   5.047  19.212  0.00  0.00    +0.000 A 
BRANCH  17  24
ATOM     23  O   UNL     1       8.171   4.895  19.131  0.00  0.00    +0.000 OA
ATOM     24  N   UNL     1       7.522   4.903  18.072  0.00  0.00    +0.000 N 
ATOM     25  O   UNL     1       7.962   4.507  16.991  0.00  0.00    +0.000 OA
ENDBRANCH  17  24
ENDBRANCH  16  20
ENDBRANCH   1  16
TORSDOF 3
ENDMDL
