MODEL 1
REMARK VINA RESULT:      -7.9      0.000      0.000
REMARK  Name = 
REMARK  8 active torsions:
REMARK  status: ('A' for Active; 'I' for Inactive)
REMARK    1  A    between atoms: C_1  and  C_2
REMARK    2  A    between atoms: C_2  and  O_3
REMARK    3  A    between atoms: O_3  and  C_4
REMARK    4  A    between atoms: C_7  and  N_8
REMARK    5  A    between atoms: N_11  and  C_12
REMARK    6  A    between atoms: C_12  and  C_13
REMARK    7  A    between atoms: C_13  and  N_14
REMARK    8  A    between atoms: N_17  and  C_18
REMARK                            x       y       z     vdW  Elec       q    Type
REMARK                         _______ _______ _______ _____ _____    ______ ____
ROOT
ATOM      1  N   UNL     1       9.671  10.048  19.478  0.00  0.00    +0.000 N 
ATOM      2  C   UNL     1       8.755   9.705  18.513  0.00  0.00    +0.000 C 
ATOM      3  O   UNL     1       8.194  10.464  17.733  0.00  0.00    +0.000 OA
ATOM      4  N   UNL     1       8.532   8.348  18.463  0.00  0.00    +0.000 N 
ATOM      5  H   UNL     1      10.132   9.283  19.944  0.00  0.00    +0.000 HD
ATOM      6  H   UNL     1       8.529   7.848  19.343  0.00  0.00    +0.000 HD
ENDROOT
BRANCH   1  10
ATOM      7  C   UNL     1      10.930  13.972  20.390  0.00  0.00    +0.000 A 
ATOM      8  C   UNL     1      11.544  13.277  19.354  0.00  0.00    +0.000 A 
ATOM      9  C   UNL     1      11.136  11.985  19.034  0.00  0.00    +0.000 A 
ATOM     10  C   UNL     1      10.122  11.354  19.760  0.00  0.00    +0.000 A 
ATOM     11  C   UNL     1       9.527  12.045  20.821  0.00  0.00    +0.000 A 
ATOM     12  C   UNL     1       9.936  13.348  21.140  0.00  0.00    +0.000 A 
BRANCH   7  13
ATOM     13  O   UNL     1      11.404  15.238  20.583  0.00  0.00    +0.000 OA
BRANCH  13  15
ATOM     14  C   UNL     1      11.089  17.127  19.184  0.00  0.00    +0.000 C 
ATOM     15  C   UNL     1      10.492  16.294  20.304  0.00  0.00    +0.000 C 
ENDBRANCH  13  15
ENDBRANCH   7  13
ENDBRANCH   1  10
BRANCH   4  16
ATOM     16  C   UNL     1       7.571   7.890  17.482  0.00  0.00    +0.000 C 
BRANCH  16  17
ATOM     17  C   UNL     1       7.265   6.397  17.602  0.00  0.00    +0.000 C 
BRANCH  17  18
ATOM     18  N   UNL     1       6.290   5.884  16.610  0.00  0.00    +0.000 NA
ATOM     19  C   UNL     1       5.977   4.442  16.814  0.00  0.00    +0.000 C 
ATOM     20  C   UNL     1       5.377   4.133  18.199  0.00  0.00    +0.000 C 
ATOM     21  N   UNL     1       4.173   4.947  18.411  0.00  0.00    +0.000 N 
ATOM     22  C   UNL     1       4.243   6.381  18.097  0.00  0.00    +0.000 C 
ATOM     23  C   UNL     1       5.004   6.620  16.760  0.00  0.00    +0.000 C 
BRANCH  21  24
ATOM     24  C   UNL     1       3.020   4.361  18.897  0.00  0.00    +0.000 A 
ATOM     25  C   UNL     1       2.587   4.586  20.210  0.00  0.00    +0.000 A 
ATOM     26  C   UNL     1       1.439   3.967  20.719  0.00  0.00    +0.000 A 
ATOM     27  C   UNL     1       0.687   3.115  19.914  0.00  0.00    +0.000 A 
ATOM     28  C   UNL     1       1.072   2.896  18.595  0.00  0.00    +0.000 A 
ATOM     29  C   UNL     1       2.214   3.521  18.102  0.00  0.00    +0.000 A 
ATOM     30  F   UNL     1       2.512   3.320  16.806  0.00  0.00    +0.000 F 
ENDBRANCH  21  24
ENDBRANCH  17  18
ENDBRANCH  16  17
ENDBRANCH   4  16
TORSDOF 7
ENDMDL
MODEL 2
REMARK VINA RESULT:      -7.5      1.079      1.227
REMARK  Name = 
REMARK  8 active torsions:
REMARK  status: ('A' for Active; 'I' for Inactive)
REMARK    1  A    between atoms: C_1  and  C_2
REMARK    2  A    between atoms: C_2  and  O_3
REMARK    3  A    between atoms: O_3  and  C_4
REMARK    4  A    between atoms: C_7  and  N_8
REMARK    5  A    between atoms: N_11  and  C_12
REMARK    6  A    between atoms: C_12  and  C_13
REMARK    7  A    between atoms: C_13  and  N_14
REMARK    8  A    between atoms: N_17  and  C_18
REMARK                            x       y       z     vdW  Elec       q    Type
REMARK                         _______ _______ _______ _____ _____    ______ ____
ROOT
ATOM      1  N   UNL     1       9.970  10.981  18.907  0.00  0.00    +0.000 N 
ATOM      2  C   UNL     1       8.912  10.428  18.226  0.00  0.00    +0.000 C 
ATOM      3  O   UNL     1       8.129  11.013  17.489  0.00  0.00    +0.000 OA
ATOM      4  N   UNL     1       8.819   9.069  18.420  0.00  0.00    +0.000 N 
ATOM      5  H   UNL     1      10.591  10.333  19.364  0.00  0.00    +0.000 HD
ATOM      6  H   UNL     1       9.048   8.717  19.340  0.00  0.00    +0.000 HD
ENDROOT
BRANCH   1  10
ATOM      7  C   UNL     1      10.999  15.074  18.959  0.00  0.00    +0.000 A 
ATOM      8  C   UNL     1      11.383  14.283  17.881  0.00  0.00    +0.000 A 
ATOM      9  C   UNL     1      11.045  12.932  17.844  0.00  0.00    +0.000 A 
ATOM     10  C   UNL     1      10.337  12.342  18.895  0.00  0.00    +0.000 A 
ATOM     11  C   UNL     1       9.978  13.135  19.990  0.00  0.00    +0.000 A 
ATOM     12  C   UNL     1      10.315  14.496  20.025  0.00  0.00    +0.000 A 
BRANCH   7  13
ATOM     13  O   UNL     1      11.369  16.384  18.859  0.00  0.00    +0.000 OA
BRANCH  13  15
ATOM     14  C   UNL     1      10.322  18.069  17.560  0.00  0.00    +0.000 C 
ATOM     15  C   UNL     1      11.339  16.943  17.551  0.00  0.00    +0.000 C 
ENDBRANCH  13  15
ENDBRANCH   7  13
ENDBRANCH   1  10
BRANCH   4  16
ATOM     16  C   UNL     1       7.726   8.396  17.749  0.00  0.00    +0.000 C 
BRANCH  16  17
ATOM     17  C   UNL     1       7.607   6.923  18.138  0.00  0.00    +0.000 C 
BRANCH  17  18
ATOM     18  N   UNL     1       6.943   6.068  17.124  0.00  0.00    +0.000 NA
ATOM     19  C   UNL     1       6.667   4.695  17.631  0.00  0.00    +0.000 C 
ATOM     20  C   UNL     1       5.754   4.670  18.872  0.00  0.00    +0.000 C 
ATOM     21  N   UNL     1       4.493   5.362  18.576  0.00  0.00    +0.000 N 
ATOM     22  C   UNL     1       4.563   6.671  17.911  0.00  0.00    +0.000 C 
ATOM     23  C   UNL     1       5.622   6.660  16.771  0.00  0.00    +0.000 C 
BRANCH  21  24
ATOM     24  C   UNL     1       3.288   4.782  18.923  0.00  0.00    +0.000 A 
ATOM     25  C   UNL     1       2.693   5.032  20.166  0.00  0.00    +0.000 A 
ATOM     26  C   UNL     1       1.490   4.420  20.538  0.00  0.00    +0.000 A 
ATOM     27  C   UNL     1       0.847   3.549  19.662  0.00  0.00    +0.000 A 
ATOM     28  C   UNL     1       1.396   3.305  18.406  0.00  0.00    +0.000 A 
ATOM     29  C   UNL     1       2.590   3.924  18.050  0.00  0.00    +0.000 A 
ATOM     30  F   UNL     1       3.050   3.698  16.806  0.00  0.00    +0.000 F 
ENDBRANCH  21  24
ENDBRANCH  17  18
ENDBRANCH  16  17
ENDBRANCH   4  16
TORSDOF 7
ENDMDL
MODEL 3
REMARK VINA RESULT:      -7.5      1.061      1.497
REMARK  Name = 
REMARK  8 active torsions:
REMARK  status: ('A' for Active; 'I' for Inactive)
REMARK    1  A    between atoms: C_1  and  C_2
REMARK    2  A    between atoms: C_2  and  O_3
REMARK    3  A    between atoms: O_3  and  C_4
REMARK    4  A    between atoms: C_7  and  N_8
REMARK    5  A    between atoms: N_11  and  C_12
REMARK    6  A    between atoms: C_12  and  C_13
REMARK    7  A    between atoms: C_13  and  N_14
REMARK    8  A    between atoms: N_17  and  C_18
REMARK                            x       y       z     vdW  Elec       q    Type
REMARK                         _______ _______ _______ _____ _____    ______ ____
ROOT
ATOM      1  N   UNL     1       9.103   9.293  19.355  0.00  0.00    +0.000 N 
ATOM      2  C   UNL     1       8.334   9.054  18.242  0.00  0.00    +0.000 C 
ATOM      3  O   UNL     1       7.915   9.886  17.448  0.00  0.00    +0.000 OA
ATOM      4  N   UNL     1       8.087   7.713  18.057  0.00  0.00    +0.000 N 
ATOM      5  H   UNL     1       9.469   8.481  19.826  0.00  0.00    +0.000 HD
ATOM      6  H   UNL     1       7.939   7.152  18.886  0.00  0.00    +0.000 HD
ENDROOT
BRANCH   1  10
ATOM      7  C   UNL     1      10.489  13.080  20.604  0.00  0.00    +0.000 A 
ATOM      8  C   UNL     1       9.586  12.382  21.399  0.00  0.00    +0.000 A 
ATOM      9  C   UNL     1       9.124  11.129  21.006  0.00  0.00    +0.000 A 
ATOM     10  C   UNL     1       9.539  10.559  19.800  0.00  0.00    +0.000 A 
ATOM     11  C   UNL     1      10.426  11.275  18.989  0.00  0.00    +0.000 A 
ATOM     12  C   UNL     1      10.894  12.536  19.387  0.00  0.00    +0.000 A 
BRANCH   7  13
ATOM     13  O   UNL     1      10.883  14.282  21.115  0.00  0.00    +0.000 OA
BRANCH  13  15
ATOM     14  C   UNL     1       9.377  15.976  20.418  0.00  0.00    +0.000 C 
ATOM     15  C   UNL     1       9.843  15.130  21.589  0.00  0.00    +0.000 C 
ENDBRANCH  13  15
ENDBRANCH   7  13
ENDBRANCH   1  10
BRANCH   4  16
ATOM     16  C   UNL     1       7.273   7.361  16.913  0.00  0.00    +0.000 C 
BRANCH  16  17
ATOM     17  C   UNL     1       6.780   5.915  16.956  0.00  0.00    +0.000 C 
BRANCH  17  18
ATOM     18  N   UNL     1       5.432   5.702  16.376  0.00  0.00    +0.000 NA
ATOM     19  C   UNL     1       4.994   4.282  16.459  0.00  0.00    +0.000 C 
ATOM     20  C   UNL     1       4.926   3.743  17.901  0.00  0.00    +0.000 C 
ATOM     21  N   UNL     1       4.040   4.592  18.708  0.00  0.00    +0.000 N 
ATOM     22  C   UNL     1       4.214   6.049  18.621  0.00  0.00    +0.000 C 
ATOM     23  C   UNL     1       4.435   6.497  17.147  0.00  0.00    +0.000 C 
BRANCH  21  24
ATOM     24  C   UNL     1       3.082   4.017  19.519  0.00  0.00    +0.000 A 
ATOM     25  C   UNL     1       3.412   3.493  20.775  0.00  0.00    +0.000 A 
ATOM     26  C   UNL     1       2.452   2.877  21.588  0.00  0.00    +0.000 A 
ATOM     27  C   UNL     1       1.129   2.785  21.162  0.00  0.00    +0.000 A 
ATOM     28  C   UNL     1       0.762   3.325  19.933  0.00  0.00    +0.000 A 
ATOM     29  C   UNL     1       1.727   3.937  19.139  0.00  0.00    +0.000 A 
ATOM     30  F   UNL     1       1.311   4.491  17.985  0.00  0.00    +0.000 F 
ENDBRANCH  21  24
ENDBRANCH  17  18
ENDBRANCH  16  17
ENDBRANCH   4  16
TORSDOF 7
ENDMDL
MODEL 4
REMARK VINA RESULT:      -7.4      1.105      1.407
REMARK  Name = 
REMARK  8 active torsions:
REMARK  status: ('A' for Active; 'I' for Inactive)
REMARK    1  A    between atoms: C_1  and  C_2
REMARK    2  A    between atoms: C_2  and  O_3
REMARK    3  A    between atoms: O_3  and  C_4
REMARK    4  A    between atoms: C_7  and  N_8
REMARK    5  A    between atoms: N_11  and  C_12
REMARK    6  A    between atoms: C_12  and  C_13
REMARK    7  A    between atoms: C_13  and  N_14
REMARK    8  A    between atoms: N_17  and  C_18
REMARK                            x       y       z     vdW  Elec       q    Type
REMARK                         _______ _______ _______ _____ _____    ______ ____
ROOT
ATOM      1  N   UNL     1       9.485  10.041  19.913  0.00  0.00    +0.000 N 
ATOM      2  C   UNL     1       8.855   9.674  18.749  0.00  0.00    +0.000 C 
ATOM      3  O   UNL     1       8.509  10.415  17.838  0.00  0.00    +0.000 OA
ATOM      4  N   UNL     1       8.664   8.313  18.665  0.00  0.00    +0.000 N 
ATOM      5  H   UNL     1       9.816   9.288  20.496  0.00  0.00    +0.000 HD
ATOM      6  H   UNL     1       8.436   7.826  19.522  0.00  0.00    +0.000 HD
ENDROOT
BRANCH   1  10
ATOM      7  C   UNL     1      10.432  13.991  21.063  0.00  0.00    +0.000 A 
ATOM      8  C   UNL     1      11.266  13.314  20.179  0.00  0.00    +0.000 A 
ATOM      9  C   UNL     1      10.965  12.013  19.783  0.00  0.00    +0.000 A 
ATOM     10  C   UNL     1       9.836  11.356  20.282  0.00  0.00    +0.000 A 
ATOM     11  C   UNL     1       9.016  12.030  21.193  0.00  0.00    +0.000 A 
ATOM     12  C   UNL     1       9.317  13.341  21.588  0.00  0.00    +0.000 A 
BRANCH   7  13
ATOM     13  O   UNL     1      10.825  15.266  21.348  0.00  0.00    +0.000 OA
BRANCH  13  15
ATOM     14  C   UNL     1       9.718  16.668  19.788  0.00  0.00    +0.000 C 
ATOM     15  C   UNL     1      11.060  16.112  20.228  0.00  0.00    +0.000 C 
ENDBRANCH  13  15
ENDBRANCH   7  13
ENDBRANCH   1  10
BRANCH   4  16
ATOM     16  C   UNL     1       7.995   7.830  17.476  0.00  0.00    +0.000 C 
BRANCH  16  17
ATOM     17  C   UNL     1       6.538   7.445  17.728  0.00  0.00    +0.000 C 
BRANCH  17  18
ATOM     18  N   UNL     1       5.947   6.550  16.704  0.00  0.00    +0.000 NA
ATOM     19  C   UNL     1       6.006   5.116  17.099  0.00  0.00    +0.000 C 
ATOM     20  C   UNL     1       5.260   4.809  18.412  0.00  0.00    +0.000 C 
ATOM     21  N   UNL     1       3.862   5.246  18.303  0.00  0.00    +0.000 N 
ATOM     22  C   UNL     1       3.598   6.588  17.765  0.00  0.00    +0.000 C 
ATOM     23  C   UNL     1       4.505   6.882  16.535  0.00  0.00    +0.000 C 
BRANCH  21  24
ATOM     24  C   UNL     1       2.842   4.405  18.704  0.00  0.00    +0.000 A 
ATOM     25  C   UNL     1       2.574   3.211  18.024  0.00  0.00    +0.000 A 
ATOM     26  C   UNL     1       1.519   2.372  18.403  0.00  0.00    +0.000 A 
ATOM     27  C   UNL     1       0.713   2.707  19.488  0.00  0.00    +0.000 A 
ATOM     28  C   UNL     1       0.973   3.872  20.205  0.00  0.00    +0.000 A 
ATOM     29  C   UNL     1       2.028   4.693  19.818  0.00  0.00    +0.000 A 
ATOM     30  F   UNL     1       2.270   5.778  20.576  0.00  0.00    +0.000 F 
ENDBRANCH  21  24
ENDBRANCH  17  18
ENDBRANCH  16  17
ENDBRANCH   4  16
TORSDOF 7
ENDMDL
MODEL 5
REMARK VINA RESULT:      -7.3      1.556      1.841
REMARK  Name = 
REMARK  8 active torsions:
REMARK  status: ('A' for Active; 'I' for Inactive)
REMARK    1  A    between atoms: C_1  and  C_2
REMARK    2  A    between atoms: C_2  and  O_3
REMARK    3  A    between atoms: O_3  and  C_4
REMARK    4  A    between atoms: C_7  and  N_8
REMARK    5  A    between atoms: N_11  and  C_12
REMARK    6  A    between atoms: C_12  and  C_13
REMARK    7  A    between atoms: C_13  and  N_14
REMARK    8  A    between atoms: N_17  and  C_18
REMARK                            x       y       z     vdW  Elec       q    Type
REMARK                         _______ _______ _______ _____ _____    ______ ____
ROOT
ATOM      1  N   UNL     1       8.753  10.877  17.759  0.00  0.00    +0.000 N 
ATOM      2  C   UNL     1       8.586   9.611  18.267  0.00  0.00    +0.000 C 
ATOM      3  O   UNL     1       8.954   9.207  19.363  0.00  0.00    +0.000 OA
ATOM      4  N   UNL     1       7.893   8.791  17.407  0.00  0.00    +0.000 N 
ATOM      5  H   UNL     1       8.275  11.076  16.895  0.00  0.00    +0.000 HD
ATOM      6  H   UNL     1       8.072   8.903  16.418  0.00  0.00    +0.000 HD
ENDROOT
BRANCH   1  10
ATOM      7  C   UNL     1      10.634  14.152  19.645  0.00  0.00    +0.000 A 
ATOM      8  C   UNL     1      11.192  12.882  19.755  0.00  0.00    +0.000 A 
ATOM      9  C   UNL     1      10.589  11.792  19.133  0.00  0.00    +0.000 A 
ATOM     10  C   UNL     1       9.404  11.947  18.408  0.00  0.00    +0.000 A 
ATOM     11  C   UNL     1       8.831  13.220  18.324  0.00  0.00    +0.000 A 
ATOM     12  C   UNL     1       9.440  14.318  18.947  0.00  0.00    +0.000 A 
BRANCH   7  13
ATOM     13  O   UNL     1      11.336  15.136  20.278  0.00  0.00    +0.000 OA
BRANCH  13  15
ATOM     14  C   UNL     1      10.089  15.078  22.294  0.00  0.00    +0.000 C 
ATOM     15  C   UNL     1      10.591  15.961  21.166  0.00  0.00    +0.000 C 
ENDBRANCH  13  15
ENDBRANCH   7  13
ENDBRANCH   1  10
BRANCH   4  16
ATOM     16  C   UNL     1       7.675   7.430  17.851  0.00  0.00    +0.000 C 
BRANCH  16  17
ATOM     17  C   UNL     1       6.781   6.632  16.903  0.00  0.00    +0.000 C 
BRANCH  17  18
ATOM     18  N   UNL     1       6.809   5.164  17.115  0.00  0.00    +0.000 NA
ATOM     19  C   UNL     1       6.816   4.798  18.558  0.00  0.00    +0.000 C 
ATOM     20  C   UNL     1       5.586   5.315  19.330  0.00  0.00    +0.000 C 
ATOM     21  N   UNL     1       4.357   4.827  18.691  0.00  0.00    +0.000 N 
ATOM     22  C   UNL     1       4.242   4.950  17.230  0.00  0.00    +0.000 C 
ATOM     23  C   UNL     1       5.578   4.561  16.533  0.00  0.00    +0.000 C 
BRANCH  21  24
ATOM     24  C   UNL     1       3.351   4.276  19.459  0.00  0.00    +0.000 A 
ATOM     25  C   UNL     1       2.099   4.893  19.569  0.00  0.00    +0.000 A 
ATOM     26  C   UNL     1       1.086   4.359  20.374  0.00  0.00    +0.000 A 
ATOM     27  C   UNL     1       1.303   3.178  21.081  0.00  0.00    +0.000 A 
ATOM     28  C   UNL     1       2.525   2.523  20.968  0.00  0.00    +0.000 A 
ATOM     29  C   UNL     1       3.520   3.065  20.160  0.00  0.00    +0.000 A 
ATOM     30  F   UNL     1       4.663   2.364  20.042  0.00  0.00    +0.000 F 
ENDBRANCH  21  24
ENDBRANCH  17  18
ENDBRANCH  16  17
ENDBRANCH   4  16
TORSDOF 7
ENDMDL
MODEL 6
REMARK VINA RESULT:      -7.2      1.534      2.012
REMARK  Name = 
REMARK  8 active torsions:
REMARK  status: ('A' for Active; 'I' for Inactive)
REMARK    1  A    between atoms: C_1  and  C_2
REMARK    2  A    between atoms: C_2  and  O_3
REMARK    3  A    between atoms: O_3  and  C_4
REMARK    4  A    between atoms: C_7  and  N_8
REMARK    5  A    between atoms: N_11  and  C_12
REMARK    6  A    between atoms: C_12  and  C_13
REMARK    7  A    between atoms: C_13  and  N_14
REMARK    8  A    between atoms: N_17  and  C_18
REMARK                            x       y       z     vdW  Elec       q    Type
REMARK                         _______ _______ _______ _____ _____    ______ ____
ROOT
ATOM      1  N   UNL     1       8.944  11.772  18.168  0.00  0.00    +0.000 N 
ATOM      2  C   UNL     1       8.942  10.459  18.571  0.00  0.00    +0.000 C 
ATOM      3  O   UNL     1       9.509   9.993  19.552  0.00  0.00    +0.000 OA
ATOM      4  N   UNL     1       8.173   9.663  17.754  0.00  0.00    +0.000 N 
ATOM      5  H   UNL     1       8.320  12.007  17.413  0.00  0.00    +0.000 HD
ATOM      6  H   UNL     1       8.181   9.873  16.765  0.00  0.00    +0.000 HD
ENDROOT
BRANCH   1  10
ATOM      7  C   UNL     1      11.066  14.914  20.025  0.00  0.00    +0.000 A 
ATOM      8  C   UNL     1       9.829  14.527  20.531  0.00  0.00    +0.000 A 
ATOM      9  C   UNL     1       9.119  13.488  19.935  0.00  0.00    +0.000 A 
ATOM     10  C   UNL     1       9.622  12.831  18.809  0.00  0.00    +0.000 A 
ATOM     11  C   UNL     1      10.852  13.242  18.286  0.00  0.00    +0.000 A 
ATOM     12  C   UNL     1      11.569  14.286  18.888  0.00  0.00    +0.000 A 
BRANCH   7  13
ATOM     13  O   UNL     1      11.670  15.925  20.715  0.00  0.00    +0.000 OA
BRANCH  13  15
ATOM     14  C   UNL     1      12.328  17.678  19.261  0.00  0.00    +0.000 C 
ATOM     15  C   UNL     1      11.325  17.246  20.315  0.00  0.00    +0.000 C 
ENDBRANCH  13  15
ENDBRANCH   7  13
ENDBRANCH   1  10
BRANCH   4  16
ATOM     16  C   UNL     1       8.117   8.256  18.093  0.00  0.00    +0.000 C 
BRANCH  16  17
ATOM     17  C   UNL     1       7.129   7.475  17.228  0.00  0.00    +0.000 C 
BRANCH  17  18
ATOM     18  N   UNL     1       7.437   6.032  17.086  0.00  0.00    +0.000 NA
ATOM     19  C   UNL     1       7.141   5.263  18.327  0.00  0.00    +0.000 C 
ATOM     20  C   UNL     1       5.666   5.343  18.763  0.00  0.00    +0.000 C 
ATOM     21  N   UNL     1       4.799   4.887  17.668  0.00  0.00    +0.000 N 
ATOM     22  C   UNL     1       5.054   5.415  16.320  0.00  0.00    +0.000 C 
ATOM     23  C   UNL     1       6.579   5.450  16.016  0.00  0.00    +0.000 C 
BRANCH  21  24
ATOM     24  C   UNL     1       3.778   3.991  17.922  0.00  0.00    +0.000 A 
ATOM     25  C   UNL     1       4.014   2.612  17.957  0.00  0.00    +0.000 A 
ATOM     26  C   UNL     1       2.978   1.696  18.178  0.00  0.00    +0.000 A 
ATOM     27  C   UNL     1       1.676   2.148  18.385  0.00  0.00    +0.000 A 
ATOM     28  C   UNL     1       1.414   3.515  18.388  0.00  0.00    +0.000 A 
ATOM     29  C   UNL     1       2.456   4.412  18.170  0.00  0.00    +0.000 A 
ATOM     30  F   UNL     1       2.161   5.723  18.238  0.00  0.00    +0.000 F 
ENDBRANCH  21  24
ENDBRANCH  17  18
ENDBRANCH  16  17
ENDBRANCH   4  16
TORSDOF 7
ENDMDL
MODEL 7
REMARK VINA RESULT:      -7.2      1.159      1.531
REMARK  Name = 
REMARK  8 active torsions:
REMARK  status: ('A' for Active; 'I' for Inactive)
REMARK    1  A    between atoms: C_1  and  C_2
REMARK    2  A    between atoms: C_2  and  O_3
REMARK    3  A    between atoms: O_3  and  C_4
REMARK    4  A    between atoms: C_7  and  N_8
REMARK    5  A    between atoms: N_11  and  C_12
REMARK    6  A    between atoms: C_12  and  C_13
REMARK    7  A    between atoms: C_13  and  N_14
REMARK    8  A    between atoms: N_17  and  C_18
REMARK                            x       y       z     vdW  Elec       q    Type
REMARK                         _______ _______ _______ _____ _____    ______ ____
ROOT
ATOM      1  N   UNL     1       8.865  11.479  17.961  0.00  0.00    +0.000 N 
ATOM      2  C   UNL     1       8.854  10.157  18.335  0.00  0.00    +0.000 C 
ATOM      3  O   UNL     1       9.399   9.668  19.316  0.00  0.00    +0.000 OA
ATOM      4  N   UNL     1       8.103   9.380  17.483  0.00  0.00    +0.000 N 
ATOM      5  H   UNL     1       8.257  11.730  17.199  0.00  0.00    +0.000 HD
ATOM      6  H   UNL     1       8.133   9.612  16.499  0.00  0.00    +0.000 HD
ENDROOT
BRANCH   1  10
ATOM      7  C   UNL     1      10.950  14.561  19.955  0.00  0.00    +0.000 A 
ATOM      8  C   UNL     1       9.604  14.349  20.235  0.00  0.00    +0.000 A 
ATOM      9  C   UNL     1       8.903  13.332  19.593  0.00  0.00    +0.000 A 
ATOM     10  C   UNL     1       9.528  12.522  18.640  0.00  0.00    +0.000 A 
ATOM     11  C   UNL     1      10.874  12.757  18.340  0.00  0.00    +0.000 A 
ATOM     12  C   UNL     1      11.581  13.779  18.990  0.00  0.00    +0.000 A 
BRANCH   7  13
ATOM     13  O   UNL     1      11.526  15.569  20.672  0.00  0.00    +0.000 OA
BRANCH  13  15
ATOM     14  C   UNL     1      11.321  16.874  22.642  0.00  0.00    +0.000 C 
ATOM     15  C   UNL     1      10.631  16.433  21.363  0.00  0.00    +0.000 C 
ENDBRANCH  13  15
ENDBRANCH   7  13
ENDBRANCH   1  10
BRANCH   4  16
ATOM     16  C   UNL     1       8.040   7.966  17.788  0.00  0.00    +0.000 C 
BRANCH  16  17
ATOM     17  C   UNL     1       6.608   7.440  17.876  0.00  0.00    +0.000 C 
BRANCH  17  18
ATOM     18  N   UNL     1       6.369   6.172  17.146  0.00  0.00    +0.000 NA
ATOM     19  C   UNL     1       6.339   4.990  18.051  0.00  0.00    +0.000 C 
ATOM     20  C   UNL     1       5.245   5.071  19.133  0.00  0.00    +0.000 C 
ATOM     21  N   UNL     1       3.933   5.254  18.500  0.00  0.00    +0.000 N 
ATOM     22  C   UNL     1       3.810   6.273  17.447  0.00  0.00    +0.000 C 
ATOM     23  C   UNL     1       5.034   6.231  16.486  0.00  0.00    +0.000 C 
BRANCH  21  24
ATOM     24  C   UNL     1       2.859   4.483  18.899  0.00  0.00    +0.000 A 
ATOM     25  C   UNL     1       2.179   4.747  20.095  0.00  0.00    +0.000 A 
ATOM     26  C   UNL     1       1.112   3.948  20.523  0.00  0.00    +0.000 A 
ATOM     27  C   UNL     1       0.692   2.868  19.751  0.00  0.00    +0.000 A 
ATOM     28  C   UNL     1       1.326   2.598  18.541  0.00  0.00    +0.000 A 
ATOM     29  C   UNL     1       2.382   3.404  18.128  0.00  0.00    +0.000 A 
ATOM     30  F   UNL     1       2.924   3.135  16.926  0.00  0.00    +0.000 F 
ENDBRANCH  21  24
ENDBRANCH  17  18
ENDBRANCH  16  17
ENDBRANCH   4  16
TORSDOF 7
ENDMDL
MODEL 8
REMARK VINA RESULT:      -7.1      1.682      2.111
REMARK  Name = 
REMARK  8 active torsions:
REMARK  status: ('A' for Active; 'I' for Inactive)
REMARK    1  A    between atoms: C_1  and  C_2
REMARK    2  A    between atoms: C_2  and  O_3
REMARK    3  A    between atoms: O_3  and  C_4
REMARK    4  A    between atoms: C_7  and  N_8
REMARK    5  A    between atoms: N_11  and  C_12
REMARK    6  A    between atoms: C_12  and  C_13
REMARK    7  A    between atoms: C_13  and  N_14
REMARK    8  A    between atoms: N_17  and  C_18
REMARK                            x       y       z     vdW  Elec       q    Type
REMARK                         _______ _______ _______ _____ _____    ______ ____
ROOT
ATOM      1  N   UNL     1       9.133  11.839  18.329  0.00  0.00    +0.000 N 
ATOM      2  C   UNL     1       8.997  10.573  18.846  0.00  0.00    +0.000 C 
ATOM      3  O   UNL     1       9.152  10.237  20.013  0.00  0.00    +0.000 OA
ATOM      4  N   UNL     1       8.611   9.659  17.892  0.00  0.00    +0.000 N 
ATOM      5  H   UNL     1       8.842  11.962  17.373  0.00  0.00    +0.000 HD
ATOM      6  H   UNL     1       8.994   9.771  16.963  0.00  0.00    +0.000 HD
ENDROOT
BRANCH   1  10
ATOM      7  C   UNL     1      10.124  15.332  20.483  0.00  0.00    +0.000 A 
ATOM      8  C   UNL     1      11.118  14.408  20.177  0.00  0.00    +0.000 A 
ATOM      9  C   UNL     1      10.810  13.254  19.461  0.00  0.00    +0.000 A 
ATOM     10  C   UNL     1       9.499  12.991  19.056  0.00  0.00    +0.000 A 
ATOM     11  C   UNL     1       8.497  13.908  19.390  0.00  0.00    +0.000 A 
ATOM     12  C   UNL     1       8.808  15.072  20.108  0.00  0.00    +0.000 A 
BRANCH   7  13
ATOM     13  O   UNL     1      10.562  16.430  21.163  0.00  0.00    +0.000 OA
BRANCH  13  15
ATOM     14  C   UNL     1       9.945  16.064  23.424  0.00  0.00    +0.000 C 
ATOM     15  C   UNL     1      11.107  16.188  22.455  0.00  0.00    +0.000 C 
ENDBRANCH  13  15
ENDBRANCH   7  13
ENDBRANCH   1  10
BRANCH   4  16
ATOM     16  C   UNL     1       8.451   8.291  18.339  0.00  0.00    +0.000 C 
BRANCH  16  17
ATOM     17  C   UNL     1       7.379   7.532  17.558  0.00  0.00    +0.000 C 
BRANCH  17  18
ATOM     18  N   UNL     1       7.622   6.075  17.430  0.00  0.00    +0.000 NA
ATOM     19  C   UNL     1       7.197   5.319  18.641  0.00  0.00    +0.000 C 
ATOM     20  C   UNL     1       5.699   5.474  18.969  0.00  0.00    +0.000 C 
ATOM     21  N   UNL     1       4.893   5.067  17.811  0.00  0.00    +0.000 N 
ATOM     22  C   UNL     1       5.272   5.584  16.488  0.00  0.00    +0.000 C 
ATOM     23  C   UNL     1       6.816   5.541  16.296  0.00  0.00    +0.000 C 
BRANCH  21  24
ATOM     24  C   UNL     1       3.811   4.224  17.984  0.00  0.00    +0.000 A 
ATOM     25  C   UNL     1       3.986   2.848  18.173  0.00  0.00    +0.000 A 
ATOM     26  C   UNL     1       2.893   1.983  18.313  0.00  0.00    +0.000 A 
ATOM     27  C   UNL     1       1.594   2.485  18.280  0.00  0.00    +0.000 A 
ATOM     28  C   UNL     1       1.388   3.853  18.126  0.00  0.00    +0.000 A 
ATOM     29  C   UNL     1       2.485   4.699  17.992  0.00  0.00    +0.000 A 
ATOM     30  F   UNL     1       2.234   6.018  17.900  0.00  0.00    +0.000 F 
ENDBRANCH  21  24
ENDBRANCH  17  18
ENDBRANCH  16  17
ENDBRANCH   4  16
TORSDOF 7
ENDMDL
MODEL 9
REMARK VINA RESULT:      -7.1      1.423      1.723
REMARK  Name = 
REMARK  8 active torsions:
REMARK  status: ('A' for Active; 'I' for Inactive)
REMARK    1  A    between atoms: C_1  and  C_2
REMARK    2  A    between atoms: C_2  and  O_3
REMARK    3  A    between atoms: O_3  and  C_4
REMARK    4  A    between atoms: C_7  and  N_8
REMARK    5  A    between atoms: N_11  and  C_12
REMARK    6  A    between atoms: C_12  and  C_13
REMARK    7  A    between atoms: C_13  and  N_14
REMARK    8  A    between atoms: N_17  and  C_18
REMARK                            x       y       z     vdW  Elec       q    Type
REMARK                         _______ _______ _______ _____ _____    ______ ____
ROOT
ATOM      1  N   UNL     1       9.539   9.592  18.981  0.00  0.00    +0.000 N 
ATOM      2  C   UNL     1       8.413   9.182  18.308  0.00  0.00    +0.000 C 
ATOM      3  O   UNL     1       7.649   9.886  17.661  0.00  0.00    +0.000 OA
ATOM      4  N   UNL     1       8.220   7.822  18.394  0.00  0.00    +0.000 N 
ATOM      5  H   UNL     1      10.125   8.862  19.353  0.00  0.00    +0.000 HD
ATOM      6  H   UNL     1       8.458   7.377  19.271  0.00  0.00    +0.000 HD
ENDROOT
BRANCH   1  10
ATOM      7  C   UNL     1      10.918  13.567  19.331  0.00  0.00    +0.000 A 
ATOM      8  C   UNL     1      10.917  12.947  18.086  0.00  0.00    +0.000 A 
ATOM      9  C   UNL     1      10.458  11.639  17.951  0.00  0.00    +0.000 A 
ATOM     10  C   UNL     1      10.013  10.918  19.062  0.00  0.00    +0.000 A 
ATOM     11  C   UNL     1      10.043  11.534  20.318  0.00  0.00    +0.000 A 
ATOM     12  C   UNL     1      10.501  12.853  20.453  0.00  0.00    +0.000 A 
BRANCH   7  13
ATOM     13  O   UNL     1      11.365  14.856  19.322  0.00  0.00    +0.000 OA
BRANCH  13  15
ATOM     14  C   UNL     1      12.285  16.152  17.562  0.00  0.00    +0.000 C 
ATOM     15  C   UNL     1      11.003  15.634  18.188  0.00  0.00    +0.000 C 
ENDBRANCH  13  15
ENDBRANCH   7  13
ENDBRANCH   1  10
BRANCH   4  16
ATOM     16  C   UNL     1       7.049   7.295  17.725  0.00  0.00    +0.000 C 
BRANCH  16  17
ATOM     17  C   UNL     1       7.397   6.412  16.527  0.00  0.00    +0.000 C 
BRANCH  17  18
ATOM     18  N   UNL     1       7.505   4.966  16.835  0.00  0.00    +0.000 NA
ATOM     19  C   UNL     1       7.032   4.640  18.209  0.00  0.00    +0.000 C 
ATOM     20  C   UNL     1       5.560   5.019  18.459  0.00  0.00    +0.000 C 
ATOM     21  N   UNL     1       4.703   4.366  17.462  0.00  0.00    +0.000 N 
ATOM     22  C   UNL     1       5.107   4.436  16.050  0.00  0.00    +0.000 C 
ATOM     23  C   UNL     1       6.638   4.198  15.898  0.00  0.00    +0.000 C 
BRANCH  21  24
ATOM     24  C   UNL     1       3.552   3.713  17.861  0.00  0.00    +0.000 A 
ATOM     25  C   UNL     1       3.557   2.342  18.148  0.00  0.00    +0.000 A 
ATOM     26  C   UNL     1       2.388   1.667  18.519  0.00  0.00    +0.000 A 
ATOM     27  C   UNL     1       1.183   2.359  18.624  0.00  0.00    +0.000 A 
ATOM     28  C   UNL     1       1.151   3.728  18.376  0.00  0.00    +0.000 A 
ATOM     29  C   UNL     1       2.323   4.385  18.013  0.00  0.00    +0.000 A 
ATOM     30  F   UNL     1       2.250   5.717  17.839  0.00  0.00    +0.000 F 
ENDBRANCH  21  24
ENDBRANCH  17  18
ENDBRANCH  16  17
ENDBRANCH   4  16
TORSDOF 7
ENDMDL
