MODEL 1
REMARK VINA RESULT:      -8.0      0.000      0.000
REMARK  Name = 
REMARK  10 active torsions:
REMARK  status: ('A' for Active; 'I' for Inactive)
REMARK    1  A    between atoms: C_2  and  C_3
REMARK    2  A    between atoms: C_3  and  O_4
REMARK    3  A    between atoms: O_4  and  C_5
REMARK    4  A    between atoms: C_5  and  C_7
REMARK    5  A    between atoms: C_8  and  C_9
REMARK    6  A    between atoms: C_12  and  O_13
REMARK    7  A    between atoms: O_13  and  C_14
REMARK    8  A    between atoms: N_19  and  C_20
REMARK    9  A    between atoms: C_24  and  S_25
REMARK   10  A    between atoms: S_25  and  N_28
REMARK                            x       y       z     vdW  Elec       q    Type
REMARK                         _______ _______ _______ _____ _____    ______ ____
ROOT
ATOM      1  O   UNL     1      -0.809  12.656  19.567  0.00  0.00    +0.000 OA
ATOM      2  C   UNL     1      -0.489  11.476  19.500  0.00  0.00    +0.000 C 
ATOM      3  N   UNL     1      -1.059  10.515  18.673  0.00  0.00    +0.000 N 
ATOM      4  H   UNL     1      -0.561   9.627  18.613  0.00  0.00    +0.000 HD
ENDROOT
BRANCH   3   5
ATOM      5  C   UNL     1      -2.191  10.670  17.842  0.00  0.00    +0.000 A 
ATOM      6  C   UNL     1      -2.214  10.270  16.502  0.00  0.00    +0.000 A 
ATOM      7  C   UNL     1      -3.347  10.477  15.711  0.00  0.00    +0.000 A 
ATOM      8  C   UNL     1      -4.470  11.097  16.249  0.00  0.00    +0.000 A 
ATOM      9  C   UNL     1      -4.456  11.516  17.584  0.00  0.00    +0.000 A 
ATOM     10  C   UNL     1      -3.323  11.304  18.382  0.00  0.00    +0.000 A 
BRANCH   9  11
ATOM     11  S   UNL     1      -5.827  12.491  18.190  0.00  0.00    +0.000 S 
ATOM     12  O   UNL     1      -5.309  13.325  19.254  0.00  0.00    +0.000 OA
ATOM     13  O   UNL     1      -6.469  13.080  17.032  0.00  0.00    +0.000 OA
BRANCH  11  14
ATOM     14  N   UNL     1      -6.918  11.409  18.847  0.00  0.00    +0.000 NA
ATOM     15  C   UNL     1      -7.759  11.763  19.992  0.00  0.00    +0.000 C 
ATOM     16  C   UNL     1      -7.519  10.640  20.982  0.00  0.00    +0.000 C 
ATOM     17  C   UNL     1      -7.321   9.423  20.094  0.00  0.00    +0.000 C 
ATOM     18  C   UNL     1      -6.643   9.964  18.835  0.00  0.00    +0.000 C 
ENDBRANCH  11  14
ENDBRANCH   9  11
ENDBRANCH   3   5
BRANCH   2  19
ATOM     19  C   UNL     1       0.626  10.924  20.396  0.00  0.00    +0.000 C 
BRANCH  19  20
ATOM     20  O   UNL     1       0.173  10.406  21.646  0.00  0.00    +0.000 OA
BRANCH  20  21
ATOM     21  C   UNL     1       0.938   9.415  22.156  0.00  0.00    +0.000 C 
ATOM     22  O   UNL     1       1.599   9.476  23.182  0.00  0.00    +0.000 OA
BRANCH  21  23
ATOM     23  C   UNL     1       0.836   8.247  21.260  0.00  0.00    +0.000 C 
ATOM     24  C   UNL     1       1.939   7.555  20.936  0.00  0.00    +0.000 C 
BRANCH  24  25
ATOM     25  C   UNL     1       1.957   6.376  20.057  0.00  0.00    +0.000 A 
ATOM     26  C   UNL     1       1.495   5.154  20.560  0.00  0.00    +0.000 A 
ATOM     27  C   UNL     1       1.454   4.019  19.746  0.00  0.00    +0.000 A 
ATOM     28  C   UNL     1       1.849   4.090  18.409  0.00  0.00    +0.000 A 
ATOM     29  C   UNL     1       2.326   5.297  17.901  0.00  0.00    +0.000 A 
ATOM     30  C   UNL     1       2.367   6.435  18.719  0.00  0.00    +0.000 A 
BRANCH  28  31
ATOM     31  O   UNL     1       1.750   2.920  17.711  0.00  0.00    +0.000 OA
BRANCH  31  32
ATOM     32  C   UNL     1       2.920   2.119  17.702  0.00  0.00    +0.000 C 
ATOM     33  F   UNL     1       3.992   2.905  17.969  0.00  0.00    +0.000 F 
ATOM     34  F   UNL     1       2.814   1.239  18.730  0.00  0.00    +0.000 F 
ENDBRANCH  31  32
ENDBRANCH  28  31
ENDBRANCH  24  25
ENDBRANCH  21  23
ENDBRANCH  20  21
ENDBRANCH  19  20
ENDBRANCH   2  19
TORSDOF 10
ENDMDL
MODEL 2
REMARK VINA RESULT:      -8.0      5.723     10.933
REMARK  Name = 
REMARK  10 active torsions:
REMARK  status: ('A' for Active; 'I' for Inactive)
REMARK    1  A    between atoms: C_2  and  C_3
REMARK    2  A    between atoms: C_3  and  O_4
REMARK    3  A    between atoms: O_4  and  C_5
REMARK    4  A    between atoms: C_5  and  C_7
REMARK    5  A    between atoms: C_8  and  C_9
REMARK    6  A    between atoms: C_12  and  O_13
REMARK    7  A    between atoms: O_13  and  C_14
REMARK    8  A    between atoms: N_19  and  C_20
REMARK    9  A    between atoms: C_24  and  S_25
REMARK   10  A    between atoms: S_25  and  N_28
REMARK                            x       y       z     vdW  Elec       q    Type
REMARK                         _______ _______ _______ _____ _____    ______ ____
ROOT
ATOM      1  O   UNL     1       2.408   4.977  21.219  0.00  0.00    +0.000 OA
ATOM      2  C   UNL     1       1.923   5.794  20.445  0.00  0.00    +0.000 C 
ATOM      3  N   UNL     1       2.051   5.791  19.061  0.00  0.00    +0.000 N 
ATOM      4  H   UNL     1       1.442   6.436  18.557  0.00  0.00    +0.000 HD
ENDROOT
BRANCH   3   5
ATOM      5  C   UNL     1       2.857   4.933  18.282  0.00  0.00    +0.000 A 
ATOM      6  C   UNL     1       2.805   3.538  18.381  0.00  0.00    +0.000 A 
ATOM      7  C   UNL     1       3.649   2.733  17.613  0.00  0.00    +0.000 A 
ATOM      8  C   UNL     1       4.566   3.313  16.741  0.00  0.00    +0.000 A 
ATOM      9  C   UNL     1       4.639   4.707  16.643  0.00  0.00    +0.000 A 
ATOM     10  C   UNL     1       3.790   5.518  17.408  0.00  0.00    +0.000 A 
BRANCH   9  11
ATOM     11  S   UNL     1       5.959   5.428  15.676  0.00  0.00    +0.000 S 
ATOM     12  O   UNL     1       6.392   4.412  14.738  0.00  0.00    +0.000 OA
ATOM     13  O   UNL     1       5.485   6.714  15.209  0.00  0.00    +0.000 OA
BRANCH  11  14
ATOM     14  N   UNL     1       7.209   5.733  16.742  0.00  0.00    +0.000 NA
ATOM     15  C   UNL     1       7.654   4.732  17.714  0.00  0.00    +0.000 C 
ATOM     16  C   UNL     1       7.628   5.471  19.037  0.00  0.00    +0.000 C 
ATOM     17  C   UNL     1       8.020   6.889  18.657  0.00  0.00    +0.000 C 
ATOM     18  C   UNL     1       7.445   7.092  17.254  0.00  0.00    +0.000 C 
ENDBRANCH  11  14
ENDBRANCH   9  11
ENDBRANCH   3   5
BRANCH   2  19
ATOM     19  C   UNL     1       1.098   6.970  20.979  0.00  0.00    +0.000 C 
BRANCH  19  20
ATOM     20  O   UNL     1       1.727   8.243  20.832  0.00  0.00    +0.000 OA
BRANCH  20  21
ATOM     21  C   UNL     1       1.350   8.935  19.733  0.00  0.00    +0.000 C 
ATOM     22  O   UNL     1       1.908   8.915  18.647  0.00  0.00    +0.000 OA
BRANCH  21  23
ATOM     23  C   UNL     1       0.147   9.719  20.073  0.00  0.00    +0.000 C 
ATOM     24  C   UNL     1       0.167  10.552  21.125  0.00  0.00    +0.000 C 
BRANCH  24  25
ATOM     25  C   UNL     1      -0.968  11.383  21.553  0.00  0.00    +0.000 A 
ATOM     26  C   UNL     1      -1.399  11.302  22.883  0.00  0.00    +0.000 A 
ATOM     27  C   UNL     1      -2.445  12.106  23.344  0.00  0.00    +0.000 A 
ATOM     28  C   UNL     1      -3.063  13.022  22.492  0.00  0.00    +0.000 A 
ATOM     29  C   UNL     1      -2.654  13.101  21.161  0.00  0.00    +0.000 A 
ATOM     30  C   UNL     1      -1.605  12.294  20.701  0.00  0.00    +0.000 A 
BRANCH  28  31
ATOM     31  O   UNL     1      -4.062  13.761  23.059  0.00  0.00    +0.000 OA
BRANCH  31  32
ATOM     32  C   UNL     1      -5.367  13.230  22.913  0.00  0.00    +0.000 C 
ATOM     33  F   UNL     1      -5.356  12.307  21.920  0.00  0.00    +0.000 F 
ATOM     34  F   UNL     1      -5.665  12.568  24.060  0.00  0.00    +0.000 F 
ENDBRANCH  31  32
ENDBRANCH  28  31
ENDBRANCH  24  25
ENDBRANCH  21  23
ENDBRANCH  20  21
ENDBRANCH  19  20
ENDBRANCH   2  19
TORSDOF 10
ENDMDL
MODEL 3
REMARK VINA RESULT:      -7.9      6.088     11.003
REMARK  Name = 
REMARK  10 active torsions:
REMARK  status: ('A' for Active; 'I' for Inactive)
REMARK    1  A    between atoms: C_2  and  C_3
REMARK    2  A    between atoms: C_3  and  O_4
REMARK    3  A    between atoms: O_4  and  C_5
REMARK    4  A    between atoms: C_5  and  C_7
REMARK    5  A    between atoms: C_8  and  C_9
REMARK    6  A    between atoms: C_12  and  O_13
REMARK    7  A    between atoms: O_13  and  C_14
REMARK    8  A    between atoms: N_19  and  C_20
REMARK    9  A    between atoms: C_24  and  S_25
REMARK   10  A    between atoms: S_25  and  N_28
REMARK                            x       y       z     vdW  Elec       q    Type
REMARK                         _______ _______ _______ _____ _____    ______ ____
ROOT
ATOM      1  O   UNL     1       1.466   8.676  18.035  0.00  0.00    +0.000 OA
ATOM      2  C   UNL     1       1.680   8.362  19.200  0.00  0.00    +0.000 C 
ATOM      3  N   UNL     1       2.329   7.213  19.636  0.00  0.00    +0.000 N 
ATOM      4  H   UNL     1       2.578   7.191  20.625  0.00  0.00    +0.000 HD
ENDROOT
BRANCH   3   5
ATOM      5  C   UNL     1       2.759   6.126  18.844  0.00  0.00    +0.000 A 
ATOM      6  C   UNL     1       2.324   4.812  19.051  0.00  0.00    +0.000 A 
ATOM      7  C   UNL     1       2.806   3.765  18.263  0.00  0.00    +0.000 A 
ATOM      8  C   UNL     1       3.740   4.016  17.262  0.00  0.00    +0.000 A 
ATOM      9  C   UNL     1       4.195   5.323  17.053  0.00  0.00    +0.000 A 
ATOM     10  C   UNL     1       3.708   6.377  17.839  0.00  0.00    +0.000 A 
BRANCH   9  11
ATOM     11  S   UNL     1       5.540   5.587  15.906  0.00  0.00    +0.000 S 
ATOM     12  O   UNL     1       5.694   4.360  15.153  0.00  0.00    +0.000 OA
ATOM     13  O   UNL     1       5.279   6.843  15.233  0.00  0.00    +0.000 OA
BRANCH  11  14
ATOM     14  N   UNL     1       6.911   5.815  16.835  0.00  0.00    +0.000 NA
ATOM     15  C   UNL     1       7.332   4.836  17.840  0.00  0.00    +0.000 C 
ATOM     16  C   UNL     1       7.511   5.660  19.099  0.00  0.00    +0.000 C 
ATOM     17  C   UNL     1       8.020   6.994  18.579  0.00  0.00    +0.000 C 
ATOM     18  C   UNL     1       7.342   7.168  17.220  0.00  0.00    +0.000 C 
ENDBRANCH  11  14
ENDBRANCH   9  11
ENDBRANCH   3   5
BRANCH   2  19
ATOM     19  C   UNL     1       1.200   9.263  20.344  0.00  0.00    +0.000 C 
BRANCH  19  20
ATOM     20  O   UNL     1       1.411   8.719  21.647  0.00  0.00    +0.000 OA
BRANCH  20  21
ATOM     21  C   UNL     1       0.824   9.412  22.649  0.00  0.00    +0.000 C 
ATOM     22  O   UNL     1       1.191   9.436  23.814  0.00  0.00    +0.000 OA
BRANCH  21  23
ATOM     23  C   UNL     1      -0.337  10.132  22.092  0.00  0.00    +0.000 C 
ATOM     24  C   UNL     1      -0.863  11.171  22.759  0.00  0.00    +0.000 C 
BRANCH  24  25
ATOM     25  C   UNL     1      -2.013  11.962  22.299  0.00  0.00    +0.000 A 
ATOM     26  C   UNL     1      -3.054  12.224  23.198  0.00  0.00    +0.000 A 
ATOM     27  C   UNL     1      -4.145  13.009  22.816  0.00  0.00    +0.000 A 
ATOM     28  C   UNL     1      -4.205  13.567  21.539  0.00  0.00    +0.000 A 
ATOM     29  C   UNL     1      -3.183  13.301  20.629  0.00  0.00    +0.000 A 
ATOM     30  C   UNL     1      -2.089  12.514  21.013  0.00  0.00    +0.000 A 
BRANCH  28  31
ATOM     31  O   UNL     1      -5.312  14.326  21.287  0.00  0.00    +0.000 OA
BRANCH  31  32
ATOM     32  C   UNL     1      -5.348  15.582  21.944  0.00  0.00    +0.000 C 
ATOM     33  F   UNL     1      -5.728  16.531  21.053  0.00  0.00    +0.000 F 
ATOM     34  F   UNL     1      -6.323  15.516  22.886  0.00  0.00    +0.000 F 
ENDBRANCH  31  32
ENDBRANCH  28  31
ENDBRANCH  24  25
ENDBRANCH  21  23
ENDBRANCH  20  21
ENDBRANCH  19  20
ENDBRANCH   2  19
TORSDOF 10
ENDMDL
MODEL 4
REMARK VINA RESULT:      -7.8      4.350      8.942
REMARK  Name = 
REMARK  10 active torsions:
REMARK  status: ('A' for Active; 'I' for Inactive)
REMARK    1  A    between atoms: C_2  and  C_3
REMARK    2  A    between atoms: C_3  and  O_4
REMARK    3  A    between atoms: O_4  and  C_5
REMARK    4  A    between atoms: C_5  and  C_7
REMARK    5  A    between atoms: C_8  and  C_9
REMARK    6  A    between atoms: C_12  and  O_13
REMARK    7  A    between atoms: O_13  and  C_14
REMARK    8  A    between atoms: N_19  and  C_20
REMARK    9  A    between atoms: C_24  and  S_25
REMARK   10  A    between atoms: S_25  and  N_28
REMARK                            x       y       z     vdW  Elec       q    Type
REMARK                         _______ _______ _______ _____ _____    ______ ____
ROOT
ATOM      1  O   UNL     1      -0.734   8.100  21.967  0.00  0.00    +0.000 OA
ATOM      2  C   UNL     1      -0.165   9.184  21.926  0.00  0.00    +0.000 C 
ATOM      3  N   UNL     1       0.782   9.581  20.989  0.00  0.00    +0.000 N 
ATOM      4  H   UNL     1       1.024  10.572  20.993  0.00  0.00    +0.000 HD
ENDROOT
BRANCH   3   5
ATOM      5  C   UNL     1       1.368   8.784  19.980  0.00  0.00    +0.000 A 
ATOM      6  C   UNL     1       1.583   9.241  18.676  0.00  0.00    +0.000 A 
ATOM      7  C   UNL     1       2.134   8.403  17.704  0.00  0.00    +0.000 A 
ATOM      8  C   UNL     1       2.468   7.090  18.023  0.00  0.00    +0.000 A 
ATOM      9  C   UNL     1       2.245   6.615  19.320  0.00  0.00    +0.000 A 
ATOM     10  C   UNL     1       1.698   7.455  20.298  0.00  0.00    +0.000 A 
BRANCH   9  11
ATOM     11  S   UNL     1       2.488   4.874  19.647  0.00  0.00    +0.000 S 
ATOM     12  O   UNL     1       2.534   4.722  21.086  0.00  0.00    +0.000 OA
ATOM     13  O   UNL     1       1.510   4.156  18.856  0.00  0.00    +0.000 OA
BRANCH  11  14
ATOM     14  N   UNL     1       3.990   4.485  19.025  0.00  0.00    +0.000 NA
ATOM     15  C   UNL     1       5.195   5.225  19.404  0.00  0.00    +0.000 C 
ATOM     16  C   UNL     1       5.816   5.617  18.078  0.00  0.00    +0.000 C 
ATOM     17  C   UNL     1       5.481   4.445  17.172  0.00  0.00    +0.000 C 
ATOM     18  C   UNL     1       4.122   3.945  17.663  0.00  0.00    +0.000 C 
ENDBRANCH  11  14
ENDBRANCH   9  11
ENDBRANCH   3   5
BRANCH   2  19
ATOM     19  C   UNL     1      -0.459  10.253  22.985  0.00  0.00    +0.000 C 
BRANCH  19  20
ATOM     20  O   UNL     1      -0.012  11.563  22.638  0.00  0.00    +0.000 OA
BRANCH  20  21
ATOM     21  C   UNL     1      -0.997  12.424  22.298  0.00  0.00    +0.000 C 
ATOM     22  O   UNL     1      -1.593  13.169  23.062  0.00  0.00    +0.000 OA
BRANCH  21  23
ATOM     23  C   UNL     1      -1.229  12.308  20.845  0.00  0.00    +0.000 C 
ATOM     24  C   UNL     1      -2.238  11.553  20.387  0.00  0.00    +0.000 C 
BRANCH  24  25
ATOM     25  C   UNL     1      -2.564  11.368  18.965  0.00  0.00    +0.000 A 
ATOM     26  C   UNL     1      -3.807  11.810  18.496  0.00  0.00    +0.000 A 
ATOM     27  C   UNL     1      -4.140  11.694  17.144  0.00  0.00    +0.000 A 
ATOM     28  C   UNL     1      -3.230  11.158  16.232  0.00  0.00    +0.000 A 
ATOM     29  C   UNL     1      -1.995  10.700  16.690  0.00  0.00    +0.000 A 
ATOM     30  C   UNL     1      -1.662  10.817  18.046  0.00  0.00    +0.000 A 
BRANCH  28  31
ATOM     31  O   UNL     1      -3.663  11.109  14.938  0.00  0.00    +0.000 OA
BRANCH  31  32
ATOM     32  C   UNL     1      -3.563   9.842  14.312  0.00  0.00    +0.000 C 
ATOM     33  F   UNL     1      -4.615   9.683  13.471  0.00  0.00    +0.000 F 
ATOM     34  F   UNL     1      -2.445   9.859  13.542  0.00  0.00    +0.000 F 
ENDBRANCH  31  32
ENDBRANCH  28  31
ENDBRANCH  24  25
ENDBRANCH  21  23
ENDBRANCH  20  21
ENDBRANCH  19  20
ENDBRANCH   2  19
TORSDOF 10
ENDMDL
MODEL 5
REMARK VINA RESULT:      -7.8      8.563     11.496
REMARK  Name = 
REMARK  10 active torsions:
REMARK  status: ('A' for Active; 'I' for Inactive)
REMARK    1  A    between atoms: C_2  and  C_3
REMARK    2  A    between atoms: C_3  and  O_4
REMARK    3  A    between atoms: O_4  and  C_5
REMARK    4  A    between atoms: C_5  and  C_7
REMARK    5  A    between atoms: C_8  and  C_9
REMARK    6  A    between atoms: C_12  and  O_13
REMARK    7  A    between atoms: O_13  and  C_14
REMARK    8  A    between atoms: N_19  and  C_20
REMARK    9  A    between atoms: C_24  and  S_25
REMARK   10  A    between atoms: S_25  and  N_28
REMARK                            x       y       z     vdW  Elec       q    Type
REMARK                         _______ _______ _______ _____ _____    ______ ____
ROOT
ATOM      1  O   UNL     1       8.148   6.817  18.675  0.00  0.00    +0.000 OA
ATOM      2  C   UNL     1       7.654   7.589  17.862  0.00  0.00    +0.000 C 
ATOM      3  N   UNL     1       6.534   7.348  17.076  0.00  0.00    +0.000 N 
ATOM      4  H   UNL     1       6.153   8.156  16.584  0.00  0.00    +0.000 HD
ENDROOT
BRANCH   3   5
ATOM      5  C   UNL     1       5.818   6.135  16.962  0.00  0.00    +0.000 A 
ATOM      6  C   UNL     1       6.230   5.080  16.141  0.00  0.00    +0.000 A 
ATOM      7  C   UNL     1       5.468   3.914  16.035  0.00  0.00    +0.000 A 
ATOM      8  C   UNL     1       4.276   3.792  16.743  0.00  0.00    +0.000 A 
ATOM      9  C   UNL     1       3.844   4.846  17.556  0.00  0.00    +0.000 A 
ATOM     10  C   UNL     1       4.609   6.014  17.669  0.00  0.00    +0.000 A 
BRANCH   9  11
ATOM     11  S   UNL     1       2.216   4.749  18.289  0.00  0.00    +0.000 S 
ATOM     12  O   UNL     1       2.037   5.955  19.070  0.00  0.00    +0.000 OA
ATOM     13  O   UNL     1       1.294   4.412  17.223  0.00  0.00    +0.000 OA
BRANCH  11  14
ATOM     14  N   UNL     1       2.247   3.442  19.330  0.00  0.00    +0.000 NA
ATOM     15  C   UNL     1       1.017   2.840  19.848  0.00  0.00    +0.000 C 
ATOM     16  C   UNL     1       1.227   2.814  21.349  0.00  0.00    +0.000 C 
ATOM     17  C   UNL     1       2.719   2.567  21.491  0.00  0.00    +0.000 C 
ATOM     18  C   UNL     1       3.349   3.271  20.289  0.00  0.00    +0.000 C 
ENDBRANCH  11  14
ENDBRANCH   9  11
ENDBRANCH   3   5
BRANCH   2  19
ATOM     19  C   UNL     1       8.285   8.964  17.618  0.00  0.00    +0.000 C 
BRANCH  19  20
ATOM     20  O   UNL     1       8.713   9.633  18.805  0.00  0.00    +0.000 OA
BRANCH  20  21
ATOM     21  C   UNL     1       9.464  10.736  18.591  0.00  0.00    +0.000 C 
ATOM     22  O   UNL     1      10.317  10.867  17.726  0.00  0.00    +0.000 OA
BRANCH  21  23
ATOM     23  C   UNL     1       9.075  11.757  19.584  0.00  0.00    +0.000 C 
ATOM     24  C   UNL     1       9.539  11.678  20.840  0.00  0.00    +0.000 C 
BRANCH  24  25
ATOM     25  C   UNL     1       9.222  12.638  21.908  0.00  0.00    +0.000 A 
ATOM     26  C   UNL     1       8.566  12.177  23.056  0.00  0.00    +0.000 A 
ATOM     27  C   UNL     1       8.285  13.045  24.114  0.00  0.00    +0.000 A 
ATOM     28  C   UNL     1       8.676  14.384  24.055  0.00  0.00    +0.000 A 
ATOM     29  C   UNL     1       9.316  14.859  22.912  0.00  0.00    +0.000 A 
ATOM     30  C   UNL     1       9.597  13.987  21.851  0.00  0.00    +0.000 A 
BRANCH  28  31
ATOM     31  O   UNL     1       8.359  15.130  25.154  0.00  0.00    +0.000 OA
BRANCH  31  32
ATOM     32  C   UNL     1       7.206  15.944  25.023  0.00  0.00    +0.000 C 
ATOM     33  F   UNL     1       7.595  17.234  24.870  0.00  0.00    +0.000 F 
ATOM     34  F   UNL     1       6.587  15.582  23.871  0.00  0.00    +0.000 F 
ENDBRANCH  31  32
ENDBRANCH  28  31
ENDBRANCH  24  25
ENDBRANCH  21  23
ENDBRANCH  20  21
ENDBRANCH  19  20
ENDBRANCH   2  19
TORSDOF 10
ENDMDL
MODEL 6
REMARK VINA RESULT:      -7.7      6.183     11.222
REMARK  Name = 
REMARK  10 active torsions:
REMARK  status: ('A' for Active; 'I' for Inactive)
REMARK    1  A    between atoms: C_2  and  C_3
REMARK    2  A    between atoms: C_3  and  O_4
REMARK    3  A    between atoms: O_4  and  C_5
REMARK    4  A    between atoms: C_5  and  C_7
REMARK    5  A    between atoms: C_8  and  C_9
REMARK    6  A    between atoms: C_12  and  O_13
REMARK    7  A    between atoms: O_13  and  C_14
REMARK    8  A    between atoms: N_19  and  C_20
REMARK    9  A    between atoms: C_24  and  S_25
REMARK   10  A    between atoms: S_25  and  N_28
REMARK                            x       y       z     vdW  Elec       q    Type
REMARK                         _______ _______ _______ _____ _____    ______ ____
ROOT
ATOM      1  O   UNL     1       2.315   8.670  18.252  0.00  0.00    +0.000 OA
ATOM      2  C   UNL     1       1.879   8.223  19.305  0.00  0.00    +0.000 C 
ATOM      3  N   UNL     1       2.106   6.950  19.815  0.00  0.00    +0.000 N 
ATOM      4  H   UNL     1       1.817   6.799  20.782  0.00  0.00    +0.000 HD
ENDROOT
BRANCH   3   5
ATOM      5  C   UNL     1       2.774   5.883  19.174  0.00  0.00    +0.000 A 
ATOM      6  C   UNL     1       2.699   4.559  19.618  0.00  0.00    +0.000 A 
ATOM      7  C   UNL     1       3.406   3.543  18.971  0.00  0.00    +0.000 A 
ATOM      8  C   UNL     1       4.208   3.841  17.874  0.00  0.00    +0.000 A 
ATOM      9  C   UNL     1       4.304   5.164  17.426  0.00  0.00    +0.000 A 
ATOM     10  C   UNL     1       3.591   6.184  18.071  0.00  0.00    +0.000 A 
BRANCH   9  11
ATOM     11  S   UNL     1       5.496   5.551  16.151  0.00  0.00    +0.000 S 
ATOM     12  O   UNL     1       5.667   4.350  15.360  0.00  0.00    +0.000 OA
ATOM     13  O   UNL     1       5.066   6.789  15.535  0.00  0.00    +0.000 OA
BRANCH  11  14
ATOM     14  N   UNL     1       6.934   5.878  16.937  0.00  0.00    +0.000 NA
ATOM     15  C   UNL     1       7.543   4.919  17.860  0.00  0.00    +0.000 C 
ATOM     16  C   UNL     1       7.786   5.728  19.119  0.00  0.00    +0.000 C 
ATOM     17  C   UNL     1       8.120   7.112  18.589  0.00  0.00    +0.000 C 
ATOM     18  C   UNL     1       7.288   7.255  17.315  0.00  0.00    +0.000 C 
ENDBRANCH  11  14
ENDBRANCH   9  11
ENDBRANCH   3   5
BRANCH   2  19
ATOM     19  C   UNL     1       0.972   9.082  20.195  0.00  0.00    +0.000 C 
BRANCH  19  20
ATOM     20  O   UNL     1       0.651   8.489  21.453  0.00  0.00    +0.000 OA
BRANCH  20  21
ATOM     21  C   UNL     1       0.592   9.357  22.487  0.00  0.00    +0.000 C 
ATOM     22  O   UNL     1       1.474   9.556  23.308  0.00  0.00    +0.000 OA
BRANCH  21  23
ATOM     23  C   UNL     1      -0.724  10.025  22.452  0.00  0.00    +0.000 C 
ATOM     24  C   UNL     1      -0.815  11.337  22.715  0.00  0.00    +0.000 C 
BRANCH  24  25
ATOM     25  C   UNL     1      -2.069  12.106  22.705  0.00  0.00    +0.000 A 
ATOM     26  C   UNL     1      -2.370  12.890  21.585  0.00  0.00    +0.000 A 
ATOM     27  C   UNL     1      -3.571  13.602  21.516  0.00  0.00    +0.000 A 
ATOM     28  C   UNL     1      -4.502  13.523  22.552  0.00  0.00    +0.000 A 
ATOM     29  C   UNL     1      -4.207  12.759  23.679  0.00  0.00    +0.000 A 
ATOM     30  C   UNL     1      -3.002  12.046  23.748  0.00  0.00    +0.000 A 
BRANCH  28  31
ATOM     31  O   UNL     1      -5.643  14.251  22.364  0.00  0.00    +0.000 OA
BRANCH  31  32
ATOM     32  C   UNL     1      -5.916  15.220  23.362  0.00  0.00    +0.000 C 
ATOM     33  F   UNL     1      -4.801  15.964  23.566  0.00  0.00    +0.000 F 
ATOM     34  F   UNL     1      -6.860  16.057  22.864  0.00  0.00    +0.000 F 
ENDBRANCH  31  32
ENDBRANCH  28  31
ENDBRANCH  24  25
ENDBRANCH  21  23
ENDBRANCH  20  21
ENDBRANCH  19  20
ENDBRANCH   2  19
TORSDOF 10
ENDMDL
MODEL 7
REMARK VINA RESULT:      -7.6      6.481     10.908
REMARK  Name = 
REMARK  10 active torsions:
REMARK  status: ('A' for Active; 'I' for Inactive)
REMARK    1  A    between atoms: C_2  and  C_3
REMARK    2  A    between atoms: C_3  and  O_4
REMARK    3  A    between atoms: O_4  and  C_5
REMARK    4  A    between atoms: C_5  and  C_7
REMARK    5  A    between atoms: C_8  and  C_9
REMARK    6  A    between atoms: C_12  and  O_13
REMARK    7  A    between atoms: O_13  and  C_14
REMARK    8  A    between atoms: N_19  and  C_20
REMARK    9  A    between atoms: C_24  and  S_25
REMARK   10  A    between atoms: S_25  and  N_28
REMARK                            x       y       z     vdW  Elec       q    Type
REMARK                         _______ _______ _______ _____ _____    ______ ____
ROOT
ATOM      1  O   UNL     1       1.211   5.697  20.867  0.00  0.00    +0.000 OA
ATOM      2  C   UNL     1       1.724   6.716  20.420  0.00  0.00    +0.000 C 
ATOM      3  N   UNL     1       2.510   6.807  19.277  0.00  0.00    +0.000 N 
ATOM      4  H   UNL     1       2.710   7.753  18.949  0.00  0.00    +0.000 HD
ENDROOT
BRANCH   3   5
ATOM      5  C   UNL     1       2.975   5.741  18.476  0.00  0.00    +0.000 A 
ATOM      6  C   UNL     1       2.493   4.433  18.591  0.00  0.00    +0.000 A 
ATOM      7  C   UNL     1       3.010   3.406  17.799  0.00  0.00    +0.000 A 
ATOM      8  C   UNL     1       4.028   3.672  16.888  0.00  0.00    +0.000 A 
ATOM      9  C   UNL     1       4.531   4.972  16.773  0.00  0.00    +0.000 A 
ATOM     10  C   UNL     1       4.009   6.007  17.562  0.00  0.00    +0.000 A 
BRANCH   9  11
ATOM     11  S   UNL     1       5.972   5.245  15.750  0.00  0.00    +0.000 S 
ATOM     12  O   UNL     1       6.282   3.979  15.119  0.00  0.00    +0.000 OA
ATOM     13  O   UNL     1       5.704   6.425  14.953  0.00  0.00    +0.000 OA
BRANCH  11  14
ATOM     14  N   UNL     1       7.219   5.640  16.790  0.00  0.00    +0.000 NA
ATOM     15  C   UNL     1       7.614   4.755  17.888  0.00  0.00    +0.000 C 
ATOM     16  C   UNL     1       7.599   5.656  19.107  0.00  0.00    +0.000 C 
ATOM     17  C   UNL     1       8.047   7.000  18.558  0.00  0.00    +0.000 C 
ATOM     18  C   UNL     1       7.497   7.043  17.131  0.00  0.00    +0.000 C 
ENDBRANCH  11  14
ENDBRANCH   9  11
ENDBRANCH   3   5
BRANCH   2  19
ATOM     19  C   UNL     1       1.544   8.055  21.145  0.00  0.00    +0.000 C 
BRANCH  19  20
ATOM     20  O   UNL     1       0.237   8.616  21.026  0.00  0.00    +0.000 OA
BRANCH  20  21
ATOM     21  C   UNL     1       0.107   9.860  21.539  0.00  0.00    +0.000 C 
ATOM     22  O   UNL     1      -0.504  10.157  22.554  0.00  0.00    +0.000 OA
BRANCH  21  23
ATOM     23  C   UNL     1       0.833  10.797  20.660  0.00  0.00    +0.000 C 
ATOM     24  C   UNL     1       0.932  12.091  20.999  0.00  0.00    +0.000 C 
BRANCH  24  25
ATOM     25  C   UNL     1       1.632  13.112  20.205  0.00  0.00    +0.000 A 
ATOM     26  C   UNL     1       1.907  12.846  18.858  0.00  0.00    +0.000 A 
ATOM     27  C   UNL     1       2.531  13.805  18.056  0.00  0.00    +0.000 A 
ATOM     28  C   UNL     1       2.869  15.055  18.577  0.00  0.00    +0.000 A 
ATOM     29  C   UNL     1       2.614  15.326  19.920  0.00  0.00    +0.000 A 
ATOM     30  C   UNL     1       1.988  14.363  20.724  0.00  0.00    +0.000 A 
BRANCH  28  31
ATOM     31  O   UNL     1       3.460  15.912  17.693  0.00  0.00    +0.000 OA
BRANCH  31  32
ATOM     32  C   UNL     1       2.715  17.080  17.391  0.00  0.00    +0.000 C 
ATOM     33  F   UNL     1       2.794  17.317  16.058  0.00  0.00    +0.000 F 
ATOM     34  F   UNL     1       1.413  16.810  17.664  0.00  0.00    +0.000 F 
ENDBRANCH  31  32
ENDBRANCH  28  31
ENDBRANCH  24  25
ENDBRANCH  21  23
ENDBRANCH  20  21
ENDBRANCH  19  20
ENDBRANCH   2  19
TORSDOF 10
ENDMDL
MODEL 8
REMARK VINA RESULT:      -7.6      6.072     10.624
REMARK  Name = 
REMARK  10 active torsions:
REMARK  status: ('A' for Active; 'I' for Inactive)
REMARK    1  A    between atoms: C_2  and  C_3
REMARK    2  A    between atoms: C_3  and  O_4
REMARK    3  A    between atoms: O_4  and  C_5
REMARK    4  A    between atoms: C_5  and  C_7
REMARK    5  A    between atoms: C_8  and  C_9
REMARK    6  A    between atoms: C_12  and  O_13
REMARK    7  A    between atoms: O_13  and  C_14
REMARK    8  A    between atoms: N_19  and  C_20
REMARK    9  A    between atoms: C_24  and  S_25
REMARK   10  A    between atoms: S_25  and  N_28
REMARK                            x       y       z     vdW  Elec       q    Type
REMARK                         _______ _______ _______ _____ _____    ______ ____
ROOT
ATOM      1  O   UNL     1       2.018   7.841  19.419  0.00  0.00    +0.000 OA
ATOM      2  C   UNL     1       2.383   8.340  18.361  0.00  0.00    +0.000 C 
ATOM      3  N   UNL     1       3.247   7.766  17.437  0.00  0.00    +0.000 N 
ATOM      4  H   UNL     1       3.308   8.235  16.533  0.00  0.00    +0.000 HD
ENDROOT
BRANCH   3   5
ATOM      5  C   UNL     1       3.970   6.561  17.581  0.00  0.00    +0.000 A 
ATOM      6  C   UNL     1       5.364   6.492  17.494  0.00  0.00    +0.000 A 
ATOM      7  C   UNL     1       6.031   5.271  17.609  0.00  0.00    +0.000 A 
ATOM      8  C   UNL     1       5.309   4.097  17.801  0.00  0.00    +0.000 A 
ATOM      9  C   UNL     1       3.913   4.148  17.875  0.00  0.00    +0.000 A 
ATOM     10  C   UNL     1       3.242   5.373  17.767  0.00  0.00    +0.000 A 
BRANCH   9  11
ATOM     11  S   UNL     1       3.002   2.610  17.915  0.00  0.00    +0.000 S 
ATOM     12  O   UNL     1       1.952   2.721  16.924  0.00  0.00    +0.000 OA
ATOM     13  O   UNL     1       3.977   1.541  17.847  0.00  0.00    +0.000 OA
BRANCH  11  14
ATOM     14  N   UNL     1       2.296   2.522  19.428  0.00  0.00    +0.000 NA
ATOM     15  C   UNL     1       0.920   2.965  19.662  0.00  0.00    +0.000 C 
ATOM     16  C   UNL     1       1.038   3.920  20.833  0.00  0.00    +0.000 C 
ATOM     17  C   UNL     1       2.161   3.322  21.664  0.00  0.00    +0.000 C 
ATOM     18  C   UNL     1       3.105   2.684  20.645  0.00  0.00    +0.000 C 
ENDBRANCH  11  14
ENDBRANCH   9  11
ENDBRANCH   3   5
BRANCH   2  19
ATOM     19  C   UNL     1       1.898   9.737  17.957  0.00  0.00    +0.000 C 
BRANCH  19  20
ATOM     20  O   UNL     1       0.994  10.336  18.884  0.00  0.00    +0.000 OA
BRANCH  20  21
ATOM     21  C   UNL     1      -0.312  10.214  18.557  0.00  0.00    +0.000 C 
ATOM     22  O   UNL     1      -0.749   9.776  17.503  0.00  0.00    +0.000 OA
BRANCH  21  23
ATOM     23  C   UNL     1      -1.119  10.701  19.693  0.00  0.00    +0.000 C 
ATOM     24  C   UNL     1      -1.285  12.019  19.878  0.00  0.00    +0.000 C 
BRANCH  24  25
ATOM     25  C   UNL     1      -2.069  12.616  20.970  0.00  0.00    +0.000 A 
ATOM     26  C   UNL     1      -1.936  12.091  22.261  0.00  0.00    +0.000 A 
ATOM     27  C   UNL     1      -2.628  12.656  23.335  0.00  0.00    +0.000 A 
ATOM     28  C   UNL     1      -3.446  13.771  23.144  0.00  0.00    +0.000 A 
ATOM     29  C   UNL     1      -3.599  14.293  21.861  0.00  0.00    +0.000 A 
ATOM     30  C   UNL     1      -2.904  13.726  20.784  0.00  0.00    +0.000 A 
BRANCH  28  31
ATOM     31  O   UNL     1      -4.058  14.242  24.270  0.00  0.00    +0.000 OA
BRANCH  31  32
ATOM     32  C   UNL     1      -3.442  15.369  24.869  0.00  0.00    +0.000 C 
ATOM     33  F   UNL     1      -4.405  16.248  25.243  0.00  0.00    +0.000 F 
ATOM     34  F   UNL     1      -2.838  14.942  26.006  0.00  0.00    +0.000 F 
ENDBRANCH  31  32
ENDBRANCH  28  31
ENDBRANCH  24  25
ENDBRANCH  21  23
ENDBRANCH  20  21
ENDBRANCH  19  20
ENDBRANCH   2  19
TORSDOF 10
ENDMDL
MODEL 9
REMARK VINA RESULT:      -7.6      4.518      7.088
REMARK  Name = 
REMARK  10 active torsions:
REMARK  status: ('A' for Active; 'I' for Inactive)
REMARK    1  A    between atoms: C_2  and  C_3
REMARK    2  A    between atoms: C_3  and  O_4
REMARK    3  A    between atoms: O_4  and  C_5
REMARK    4  A    between atoms: C_5  and  C_7
REMARK    5  A    between atoms: C_8  and  C_9
REMARK    6  A    between atoms: C_12  and  O_13
REMARK    7  A    between atoms: O_13  and  C_14
REMARK    8  A    between atoms: N_19  and  C_20
REMARK    9  A    between atoms: C_24  and  S_25
REMARK   10  A    between atoms: S_25  and  N_28
REMARK                            x       y       z     vdW  Elec       q    Type
REMARK                         _______ _______ _______ _____ _____    ______ ____
ROOT
ATOM      1  O   UNL     1       0.603   4.887  20.665  0.00  0.00    +0.000 OA
ATOM      2  C   UNL     1       1.825   4.889  20.585  0.00  0.00    +0.000 C 
ATOM      3  N   UNL     1       2.620   5.948  20.161  0.00  0.00    +0.000 N 
ATOM      4  H   UNL     1       3.622   5.844  20.321  0.00  0.00    +0.000 HD
ENDROOT
BRANCH   3   5
ATOM      5  C   UNL     1       2.183   7.178  19.623  0.00  0.00    +0.000 A 
ATOM      6  C   UNL     1       2.415   7.557  18.297  0.00  0.00    +0.000 A 
ATOM      7  C   UNL     1       1.993   8.801  17.821  0.00  0.00    +0.000 A 
ATOM      8  C   UNL     1       1.341   9.689  18.672  0.00  0.00    +0.000 A 
ATOM      9  C   UNL     1       1.114   9.329  20.005  0.00  0.00    +0.000 A 
ATOM     10  C   UNL     1       1.531   8.079  20.483  0.00  0.00    +0.000 A 
BRANCH   9  11
ATOM     11  S   UNL     1       0.463  10.562  21.124  0.00  0.00    +0.000 S 
ATOM     12  O   UNL     1      -0.321   9.853  22.115  0.00  0.00    +0.000 OA
ATOM     13  O   UNL     1       1.575  11.401  21.520  0.00  0.00    +0.000 OA
BRANCH  11  14
ATOM     14  N   UNL     1      -0.566  11.520  20.220  0.00  0.00    +0.000 NA
ATOM     15  C   UNL     1      -0.058  12.536  19.297  0.00  0.00    +0.000 C 
ATOM     16  C   UNL     1      -0.797  13.797  19.700  0.00  0.00    +0.000 C 
ATOM     17  C   UNL     1      -2.160  13.283  20.133  0.00  0.00    +0.000 C 
ATOM     18  C   UNL     1      -1.884  11.908  20.744  0.00  0.00    +0.000 C 
ENDBRANCH  11  14
ENDBRANCH   9  11
ENDBRANCH   3   5
BRANCH   2  19
ATOM     19  C   UNL     1       2.627   3.635  20.954  0.00  0.00    +0.000 C 
BRANCH  19  20
ATOM     20  O   UNL     1       2.588   2.603  19.969  0.00  0.00    +0.000 OA
BRANCH  20  21
ATOM     21  C   UNL     1       3.801   2.195  19.532  0.00  0.00    +0.000 C 
ATOM     22  O   UNL     1       4.130   1.040  19.306  0.00  0.00    +0.000 OA
BRANCH  21  23
ATOM     23  C   UNL     1       4.658   3.386  19.374  0.00  0.00    +0.000 C 
ATOM     24  C   UNL     1       4.899   3.878  18.150  0.00  0.00    +0.000 C 
BRANCH  24  25
ATOM     25  C   UNL     1       5.732   5.059  17.875  0.00  0.00    +0.000 A 
ATOM     26  C   UNL     1       6.821   5.326  18.713  0.00  0.00    +0.000 A 
ATOM     27  C   UNL     1       7.664   6.412  18.462  0.00  0.00    +0.000 A 
ATOM     28  C   UNL     1       7.450   7.234  17.355  0.00  0.00    +0.000 A 
ATOM     29  C   UNL     1       6.361   6.988  16.522  0.00  0.00    +0.000 A 
ATOM     30  C   UNL     1       5.515   5.899  16.774  0.00  0.00    +0.000 A 
BRANCH  28  31
ATOM     31  O   UNL     1       8.348   8.253  17.206  0.00  0.00    +0.000 OA
BRANCH  31  32
ATOM     32  C   UNL     1       8.223   9.312  18.140  0.00  0.00    +0.000 C 
ATOM     33  F   UNL     1       9.420   9.941  18.252  0.00  0.00    +0.000 F 
ATOM     34  F   UNL     1       7.355  10.214  17.614  0.00  0.00    +0.000 F 
ENDBRANCH  31  32
ENDBRANCH  28  31
ENDBRANCH  24  25
ENDBRANCH  21  23
ENDBRANCH  20  21
ENDBRANCH  19  20
ENDBRANCH   2  19
TORSDOF 10
ENDMDL
