MODEL 1
REMARK VINA RESULT:      -5.7      0.000      0.000
REMARK  Name = 
REMARK  17 active torsions:
REMARK  status: ('A' for Active; 'I' for Inactive)
REMARK    1  A    between atoms: C_1  and  C_2
REMARK    2  A    between atoms: C_2  and  C_3
REMARK    3  A    between atoms: C_3  and  C_4
REMARK    4  A    between atoms: C_4  and  C_5
REMARK    5  A    between atoms: C_5  and  C_6
REMARK    6  A    between atoms: C_6  and  C_7
REMARK    7  A    between atoms: C_7  and  C_8
REMARK    8  A    between atoms: C_8  and  C_9
REMARK    9  A    between atoms: C_9  and  C_10
REMARK   10  A    between atoms: C_10  and  C_11
REMARK   11  A    between atoms: C_11  and  C_12
REMARK   12  A    between atoms: C_12  and  C_13
REMARK   13  A    between atoms: C_13  and  C_14
REMARK   14  A    between atoms: C_15  and  C_16
REMARK   15  A    between atoms: C_18  and  C_19
REMARK   16  A    between atoms: C_19  and  O_21
REMARK   17  A    between atoms: O_21  and  C_22
REMARK                            x       y       z     vdW  Elec       q    Type
REMARK                         _______ _______ _______ _____ _____    ______ ____
ROOT
ATOM      1  C   UNL     1       6.082   5.780  17.427  0.00  0.00    +0.000 C 
ENDROOT
BRANCH   1   2
ATOM      2  C   UNL     1       5.471   5.540  18.795  0.00  0.00    +0.000 C 
BRANCH   2   3
ATOM      3  C   UNL     1       5.181   4.061  18.977  0.00  0.00    +0.000 C 
BRANCH   3   4
ATOM      4  C   UNL     1       4.641   3.477  17.686  0.00  0.00    +0.000 C 
BRANCH   4   5
ATOM      5  C   UNL     1       3.407   2.643  17.974  0.00  0.00    +0.000 C 
BRANCH   5   6
ATOM      6  C   UNL     1       2.237   3.153  17.153  0.00  0.00    +0.000 C 
BRANCH   6   7
ATOM      7  C   UNL     1       1.510   4.245  17.918  0.00  0.00    +0.000 C 
BRANCH   7   8
ATOM      8  C   UNL     1       1.158   3.756  19.310  0.00  0.00    +0.000 C 
BRANCH   8   9
ATOM      9  C   UNL     1       1.601   4.775  20.346  0.00  0.00    +0.000 C 
BRANCH   9  11
ATOM     10  C   UNL     1       2.014   2.590  21.462  0.00  0.00    +0.000 C 
ATOM     11  C   UNL     1       2.320   4.072  21.487  0.00  0.00    +0.000 C 
ENDBRANCH   9  11
ENDBRANCH   8   9
ENDBRANCH   7   8
ENDBRANCH   6   7
ENDBRANCH   5   6
ENDBRANCH   4   5
ENDBRANCH   3   4
ENDBRANCH   2   3
ENDBRANCH   1   2
BRANCH   1  12
ATOM     12  C   UNL     1       6.586   7.208  17.334  0.00  0.00    +0.000 C 
BRANCH  12  13
ATOM     13  C   UNL     1       7.860   7.357  18.135  0.00  0.00    +0.000 C 
BRANCH  13  14
ATOM     14  C   UNL     1       8.347   8.795  18.056  0.00  0.00    +0.000 C 
ATOM     15  C   UNL     1       8.765  10.029  17.989  0.00  0.00    +0.000 C 
BRANCH  15  16
ATOM     16  C   UNL     1       9.268  11.371  18.199  0.00  0.00    +0.000 C 
ATOM     17  N   UNL     1       8.869  12.537  18.427  0.00  0.00    +0.000 NA
ATOM     18  C   UNL     1      10.421  12.155  17.963  0.00  0.00    +0.000 C 
BRANCH  18  19
ATOM     19  C   UNL     1      11.414  13.199  18.339  0.00  0.00    +0.000 C 
ATOM     20  O   UNL     1      12.095  13.197  19.353  0.00  0.00    +0.000 OA
BRANCH  19  21
ATOM     21  O   UNL     1      11.652  13.940  17.212  0.00  0.00    +0.000 OA
ATOM     22  C   UNL     1      11.175  15.292  17.115  0.00  0.00    +0.000 C 
ENDBRANCH  19  21
ENDBRANCH  18  19
ENDBRANCH  15  16
ENDBRANCH  13  14
ENDBRANCH  12  13
ENDBRANCH   1  12
TORSDOF 15
ENDMDL
MODEL 2
REMARK VINA RESULT:      -5.7      1.546      2.171
REMARK  Name = 
REMARK  17 active torsions:
REMARK  status: ('A' for Active; 'I' for Inactive)
REMARK    1  A    between atoms: C_1  and  C_2
REMARK    2  A    between atoms: C_2  and  C_3
REMARK    3  A    between atoms: C_3  and  C_4
REMARK    4  A    between atoms: C_4  and  C_5
REMARK    5  A    between atoms: C_5  and  C_6
REMARK    6  A    between atoms: C_6  and  C_7
REMARK    7  A    between atoms: C_7  and  C_8
REMARK    8  A    between atoms: C_8  and  C_9
REMARK    9  A    between atoms: C_9  and  C_10
REMARK   10  A    between atoms: C_10  and  C_11
REMARK   11  A    between atoms: C_11  and  C_12
REMARK   12  A    between atoms: C_12  and  C_13
REMARK   13  A    between atoms: C_13  and  C_14
REMARK   14  A    between atoms: C_15  and  C_16
REMARK   15  A    between atoms: C_18  and  C_19
REMARK   16  A    between atoms: C_19  and  O_21
REMARK   17  A    between atoms: O_21  and  C_22
REMARK                            x       y       z     vdW  Elec       q    Type
REMARK                         _______ _______ _______ _____ _____    ______ ____
ROOT
ATOM      1  C   UNL     1       7.123   4.440  16.225  0.00  0.00    +0.000 C 
ENDROOT
BRANCH   1   2
ATOM      2  C   UNL     1       5.788   3.857  15.800  0.00  0.00    +0.000 C 
BRANCH   2   3
ATOM      3  C   UNL     1       4.660   4.760  16.265  0.00  0.00    +0.000 C 
BRANCH   3   4
ATOM      4  C   UNL     1       3.790   4.026  17.267  0.00  0.00    +0.000 C 
BRANCH   4   5
ATOM      5  C   UNL     1       4.073   4.537  18.667  0.00  0.00    +0.000 C 
BRANCH   5   6
ATOM      6  C   UNL     1       3.731   6.013  18.756  0.00  0.00    +0.000 C 
BRANCH   6   7
ATOM      7  C   UNL     1       2.417   6.191  19.494  0.00  0.00    +0.000 C 
BRANCH   7   8
ATOM      8  C   UNL     1       2.266   5.115  20.552  0.00  0.00    +0.000 C 
BRANCH   8   9
ATOM      9  C   UNL     1       0.996   4.319  20.307  0.00  0.00    +0.000 C 
BRANCH   9  11
ATOM     10  C   UNL     1       2.446   2.789  21.629  0.00  0.00    +0.000 C 
ATOM     11  C   UNL     1       1.169   2.899  20.823  0.00  0.00    +0.000 C 
ENDBRANCH   9  11
ENDBRANCH   8   9
ENDBRANCH   7   8
ENDBRANCH   6   7
ENDBRANCH   5   6
ENDBRANCH   4   5
ENDBRANCH   3   4
ENDBRANCH   2   3
ENDBRANCH   1   2
BRANCH   1  12
ATOM     12  C   UNL     1       6.946   5.894  16.623  0.00  0.00    +0.000 C 
BRANCH  12  13
ATOM     13  C   UNL     1       7.582   6.139  17.973  0.00  0.00    +0.000 C 
BRANCH  13  14
ATOM     14  C   UNL     1       7.945   7.609  18.107  0.00  0.00    +0.000 C 
ATOM     15  C   UNL     1       8.256   8.870  18.223  0.00  0.00    +0.000 C 
BRANCH  15  16
ATOM     16  C   UNL     1       8.862  10.170  18.429  0.00  0.00    +0.000 C 
ATOM     17  N   UNL     1       9.101  11.241  17.824  0.00  0.00    +0.000 NA
ATOM     18  C   UNL     1       9.771  10.827  19.290  0.00  0.00    +0.000 C 
BRANCH  18  19
ATOM     19  C   UNL     1      10.246  12.006  20.065  0.00  0.00    +0.000 C 
ATOM     20  O   UNL     1      10.302  12.076  21.283  0.00  0.00    +0.000 OA
BRANCH  19  21
ATOM     21  O   UNL     1      10.901  12.821  19.182  0.00  0.00    +0.000 OA
ATOM     22  C   UNL     1      12.188  13.368  19.512  0.00  0.00    +0.000 C 
ENDBRANCH  19  21
ENDBRANCH  18  19
ENDBRANCH  15  16
ENDBRANCH  13  14
ENDBRANCH  12  13
ENDBRANCH   1  12
TORSDOF 15
ENDMDL
MODEL 3
REMARK VINA RESULT:      -5.6      6.275      8.415
REMARK  Name = 
REMARK  17 active torsions:
REMARK  status: ('A' for Active; 'I' for Inactive)
REMARK    1  A    between atoms: C_1  and  C_2
REMARK    2  A    between atoms: C_2  and  C_3
REMARK    3  A    between atoms: C_3  and  C_4
REMARK    4  A    between atoms: C_4  and  C_5
REMARK    5  A    between atoms: C_5  and  C_6
REMARK    6  A    between atoms: C_6  and  C_7
REMARK    7  A    between atoms: C_7  and  C_8
REMARK    8  A    between atoms: C_8  and  C_9
REMARK    9  A    between atoms: C_9  and  C_10
REMARK   10  A    between atoms: C_10  and  C_11
REMARK   11  A    between atoms: C_11  and  C_12
REMARK   12  A    between atoms: C_12  and  C_13
REMARK   13  A    between atoms: C_13  and  C_14
REMARK   14  A    between atoms: C_15  and  C_16
REMARK   15  A    between atoms: C_18  and  C_19
REMARK   16  A    between atoms: C_19  and  O_21
REMARK   17  A    between atoms: O_21  and  C_22
REMARK                            x       y       z     vdW  Elec       q    Type
REMARK                         _______ _______ _______ _____ _____    ______ ____
ROOT
ATOM      1  C   UNL     1       7.262   6.600  17.432  0.00  0.00    +0.000 C 
ENDROOT
BRANCH   1   2
ATOM      2  C   UNL     1       7.624   5.463  18.369  0.00  0.00    +0.000 C 
BRANCH   2   3
ATOM      3  C   UNL     1       6.697   5.472  19.571  0.00  0.00    +0.000 C 
BRANCH   3   4
ATOM      4  C   UNL     1       5.269   5.225  19.126  0.00  0.00    +0.000 C 
BRANCH   4   5
ATOM      5  C   UNL     1       5.089   3.764  18.761  0.00  0.00    +0.000 C 
BRANCH   5   6
ATOM      6  C   UNL     1       3.908   3.609  17.818  0.00  0.00    +0.000 C 
BRANCH   6   7
ATOM      7  C   UNL     1       3.178   2.313  18.119  0.00  0.00    +0.000 C 
BRANCH   7   8
ATOM      8  C   UNL     1       1.703   2.588  18.340  0.00  0.00    +0.000 C 
BRANCH   8   9
ATOM      9  C   UNL     1       1.505   4.022  18.801  0.00  0.00    +0.000 C 
BRANCH   9  11
ATOM     10  C   UNL     1       2.087   3.843  21.213  0.00  0.00    +0.000 C 
ATOM     11  C   UNL     1       0.961   4.038  20.221  0.00  0.00    +0.000 C 
ENDBRANCH   9  11
ENDBRANCH   8   9
ENDBRANCH   7   8
ENDBRANCH   6   7
ENDBRANCH   5   6
ENDBRANCH   4   5
ENDBRANCH   3   4
ENDBRANCH   2   3
ENDBRANCH   1   2
BRANCH   1  12
ATOM     12  C   UNL     1       7.028   6.060  16.034  0.00  0.00    +0.000 C 
BRANCH  12  13
ATOM     13  C   UNL     1       7.248   4.564  16.017  0.00  0.00    +0.000 C 
BRANCH  13  14
ATOM     14  C   UNL     1       6.592   3.965  14.784  0.00  0.00    +0.000 C 
ATOM     15  C   UNL     1       6.028   3.451  13.726  0.00  0.00    +0.000 C 
BRANCH  15  16
ATOM     16  C   UNL     1       5.440   3.144  12.438  0.00  0.00    +0.000 C 
ATOM     17  N   UNL     1       5.668   2.493  11.393  0.00  0.00    +0.000 NA
ATOM     18  C   UNL     1       4.467   3.634  11.537  0.00  0.00    +0.000 C 
BRANCH  18  19
ATOM     19  C   UNL     1       3.374   3.459  10.541  0.00  0.00    +0.000 C 
ATOM     20  O   UNL     1       2.539   2.568  10.556  0.00  0.00    +0.000 OA
BRANCH  19  21
ATOM     21  O   UNL     1       3.285   4.633   9.843  0.00  0.00    +0.000 OA
ATOM     22  C   UNL     1       2.147   4.899   9.007  0.00  0.00    +0.000 C 
ENDBRANCH  19  21
ENDBRANCH  18  19
ENDBRANCH  15  16
ENDBRANCH  13  14
ENDBRANCH  12  13
ENDBRANCH   1  12
TORSDOF 15
ENDMDL
MODEL 4
REMARK VINA RESULT:      -5.5      1.504      2.910
REMARK  Name = 
REMARK  17 active torsions:
REMARK  status: ('A' for Active; 'I' for Inactive)
REMARK    1  A    between atoms: C_1  and  C_2
REMARK    2  A    between atoms: C_2  and  C_3
REMARK    3  A    between atoms: C_3  and  C_4
REMARK    4  A    between atoms: C_4  and  C_5
REMARK    5  A    between atoms: C_5  and  C_6
REMARK    6  A    between atoms: C_6  and  C_7
REMARK    7  A    between atoms: C_7  and  C_8
REMARK    8  A    between atoms: C_8  and  C_9
REMARK    9  A    between atoms: C_9  and  C_10
REMARK   10  A    between atoms: C_10  and  C_11
REMARK   11  A    between atoms: C_11  and  C_12
REMARK   12  A    between atoms: C_12  and  C_13
REMARK   13  A    between atoms: C_13  and  C_14
REMARK   14  A    between atoms: C_15  and  C_16
REMARK   15  A    between atoms: C_18  and  C_19
REMARK   16  A    between atoms: C_19  and  O_21
REMARK   17  A    between atoms: O_21  and  C_22
REMARK                            x       y       z     vdW  Elec       q    Type
REMARK                         _______ _______ _______ _____ _____    ______ ____
ROOT
ATOM      1  C   UNL     1       4.985   6.051  18.109  0.00  0.00    +0.000 C 
ENDROOT
BRANCH   1   2
ATOM      2  C   UNL     1       3.556   6.560  18.114  0.00  0.00    +0.000 C 
BRANCH   2   3
ATOM      3  C   UNL     1       2.922   6.303  19.469  0.00  0.00    +0.000 C 
BRANCH   3   4
ATOM      4  C   UNL     1       1.916   5.173  19.363  0.00  0.00    +0.000 C 
BRANCH   4   5
ATOM      5  C   UNL     1       1.305   4.898  20.723  0.00  0.00    +0.000 C 
BRANCH   5   6
ATOM      6  C   UNL     1       1.166   3.401  20.934  0.00  0.00    +0.000 C 
BRANCH   6   7
ATOM      7  C   UNL     1       2.428   2.698  20.466  0.00  0.00    +0.000 C 
BRANCH   7   8
ATOM      8  C   UNL     1       2.148   1.926  19.191  0.00  0.00    +0.000 C 
BRANCH   8   9
ATOM      9  C   UNL     1       3.455   1.507  18.539  0.00  0.00    +0.000 C 
BRANCH   9  11
ATOM     10  C   UNL     1       2.694   3.254  16.938  0.00  0.00    +0.000 C 
ATOM     11  C   UNL     1       3.900   2.569  17.546  0.00  0.00    +0.000 C 
ENDBRANCH   9  11
ENDBRANCH   8   9
ENDBRANCH   7   8
ENDBRANCH   6   7
ENDBRANCH   5   6
ENDBRANCH   4   5
ENDBRANCH   3   4
ENDBRANCH   2   3
ENDBRANCH   1   2
BRANCH   1  12
ATOM     12  C   UNL     1       5.610   6.284  16.747  0.00  0.00    +0.000 C 
BRANCH  12  13
ATOM     13  C   UNL     1       7.118   6.236  16.857  0.00  0.00    +0.000 C 
BRANCH  13  14
ATOM     14  C   UNL     1       7.627   7.538  17.455  0.00  0.00    +0.000 C 
ATOM     15  C   UNL     1       8.064   8.654  17.968  0.00  0.00    +0.000 C 
BRANCH  15  16
ATOM     16  C   UNL     1       8.809   9.795  18.459  0.00  0.00    +0.000 C 
ATOM     17  N   UNL     1       9.296  10.261  19.515  0.00  0.00    +0.000 NA
ATOM     18  C   UNL     1       9.124  11.128  18.106  0.00  0.00    +0.000 C 
BRANCH  18  19
ATOM     19  C   UNL     1      10.043  12.296  18.026  0.00  0.00    +0.000 C 
ATOM     20  O   UNL     1      11.003  12.393  17.277  0.00  0.00    +0.000 OA
BRANCH  19  21
ATOM     21  O   UNL     1       9.425  13.330  18.676  0.00  0.00    +0.000 OA
ATOM     22  C   UNL     1       8.256  13.950  18.114  0.00  0.00    +0.000 C 
ENDBRANCH  19  21
ENDBRANCH  18  19
ENDBRANCH  15  16
ENDBRANCH  13  14
ENDBRANCH  12  13
ENDBRANCH   1  12
TORSDOF 15
ENDMDL
MODEL 5
REMARK VINA RESULT:      -5.5      1.732      2.729
REMARK  Name = 
REMARK  17 active torsions:
REMARK  status: ('A' for Active; 'I' for Inactive)
REMARK    1  A    between atoms: C_1  and  C_2
REMARK    2  A    between atoms: C_2  and  C_3
REMARK    3  A    between atoms: C_3  and  C_4
REMARK    4  A    between atoms: C_4  and  C_5
REMARK    5  A    between atoms: C_5  and  C_6
REMARK    6  A    between atoms: C_6  and  C_7
REMARK    7  A    between atoms: C_7  and  C_8
REMARK    8  A    between atoms: C_8  and  C_9
REMARK    9  A    between atoms: C_9  and  C_10
REMARK   10  A    between atoms: C_10  and  C_11
REMARK   11  A    between atoms: C_11  and  C_12
REMARK   12  A    between atoms: C_12  and  C_13
REMARK   13  A    between atoms: C_13  and  C_14
REMARK   14  A    between atoms: C_15  and  C_16
REMARK   15  A    between atoms: C_18  and  C_19
REMARK   16  A    between atoms: C_19  and  O_21
REMARK   17  A    between atoms: O_21  and  C_22
REMARK                            x       y       z     vdW  Elec       q    Type
REMARK                         _______ _______ _______ _____ _____    ______ ____
ROOT
ATOM      1  C   UNL     1       5.594   4.483  17.059  0.00  0.00    +0.000 C 
ENDROOT
BRANCH   1   2
ATOM      2  C   UNL     1       4.116   4.195  17.241  0.00  0.00    +0.000 C 
BRANCH   2   3
ATOM      3  C   UNL     1       3.934   2.866  17.951  0.00  0.00    +0.000 C 
BRANCH   3   4
ATOM      4  C   UNL     1       2.570   2.288  17.625  0.00  0.00    +0.000 C 
BRANCH   4   5
ATOM      5  C   UNL     1       1.485   3.149  18.244  0.00  0.00    +0.000 C 
BRANCH   5   6
ATOM      6  C   UNL     1       1.606   3.123  19.757  0.00  0.00    +0.000 C 
BRANCH   6   7
ATOM      7  C   UNL     1       0.949   4.359  20.345  0.00  0.00    +0.000 C 
BRANCH   7   8
ATOM      8  C   UNL     1       2.005   5.292  20.903  0.00  0.00    +0.000 C 
BRANCH   8   9
ATOM      9  C   UNL     1       2.688   6.041  19.772  0.00  0.00    +0.000 C 
BRANCH   9  11
ATOM     10  C   UNL     1       1.478   7.865  20.955  0.00  0.00    +0.000 C 
ATOM     11  C   UNL     1       2.090   7.433  19.639  0.00  0.00    +0.000 C 
ENDBRANCH   9  11
ENDBRANCH   8   9
ENDBRANCH   7   8
ENDBRANCH   6   7
ENDBRANCH   5   6
ENDBRANCH   4   5
ENDBRANCH   3   4
ENDBRANCH   2   3
ENDBRANCH   1   2
BRANCH   1  12
ATOM     12  C   UNL     1       5.901   5.901  17.502  0.00  0.00    +0.000 C 
BRANCH  12  13
ATOM     13  C   UNL     1       7.087   6.436  16.732  0.00  0.00    +0.000 C 
BRANCH  13  14
ATOM     14  C   UNL     1       7.662   7.644  17.453  0.00  0.00    +0.000 C 
ATOM     15  C   UNL     1       8.156   8.680  18.072  0.00  0.00    +0.000 C 
BRANCH  15  16
ATOM     16  C   UNL     1       8.813   9.898  18.501  0.00  0.00    +0.000 C 
ATOM     17  N   UNL     1       9.406  10.900  18.038  0.00  0.00    +0.000 NA
ATOM     18  C   UNL     1       9.414  10.470  19.645  0.00  0.00    +0.000 C 
BRANCH  18  19
ATOM     19  C   UNL     1       9.722  11.611  20.551  0.00  0.00    +0.000 C 
ATOM     20  O   UNL     1       8.965  12.071  21.393  0.00  0.00    +0.000 OA
BRANCH  19  21
ATOM     21  O   UNL     1      11.076  11.805  20.496  0.00  0.00    +0.000 OA
ATOM     22  C   UNL     1      11.618  13.007  19.928  0.00  0.00    +0.000 C 
ENDBRANCH  19  21
ENDBRANCH  18  19
ENDBRANCH  15  16
ENDBRANCH  13  14
ENDBRANCH  12  13
ENDBRANCH   1  12
TORSDOF 15
ENDMDL
MODEL 6
REMARK VINA RESULT:      -5.4      6.394      8.038
REMARK  Name = 
REMARK  17 active torsions:
REMARK  status: ('A' for Active; 'I' for Inactive)
REMARK    1  A    between atoms: C_1  and  C_2
REMARK    2  A    between atoms: C_2  and  C_3
REMARK    3  A    between atoms: C_3  and  C_4
REMARK    4  A    between atoms: C_4  and  C_5
REMARK    5  A    between atoms: C_5  and  C_6
REMARK    6  A    between atoms: C_6  and  C_7
REMARK    7  A    between atoms: C_7  and  C_8
REMARK    8  A    between atoms: C_8  and  C_9
REMARK    9  A    between atoms: C_9  and  C_10
REMARK   10  A    between atoms: C_10  and  C_11
REMARK   11  A    between atoms: C_11  and  C_12
REMARK   12  A    between atoms: C_12  and  C_13
REMARK   13  A    between atoms: C_13  and  C_14
REMARK   14  A    between atoms: C_15  and  C_16
REMARK   15  A    between atoms: C_18  and  C_19
REMARK   16  A    between atoms: C_19  and  O_21
REMARK   17  A    between atoms: O_21  and  C_22
REMARK                            x       y       z     vdW  Elec       q    Type
REMARK                         _______ _______ _______ _____ _____    ______ ____
ROOT
ATOM      1  C   UNL     1       4.652   6.246  16.912  0.00  0.00    +0.000 C 
ENDROOT
BRANCH   1   2
ATOM      2  C   UNL     1       3.533   5.455  17.564  0.00  0.00    +0.000 C 
BRANCH   2   3
ATOM      3  C   UNL     1       2.523   6.405  18.182  0.00  0.00    +0.000 C 
BRANCH   3   4
ATOM      4  C   UNL     1       2.814   6.577  19.661  0.00  0.00    +0.000 C 
BRANCH   4   5
ATOM      5  C   UNL     1       1.618   6.123  20.477  0.00  0.00    +0.000 C 
BRANCH   5   6
ATOM      6  C   UNL     1       1.835   4.700  20.960  0.00  0.00    +0.000 C 
BRANCH   6   7
ATOM      7  C   UNL     1       0.896   3.760  20.227  0.00  0.00    +0.000 C 
BRANCH   7   8
ATOM      8  C   UNL     1       1.639   2.505  19.811  0.00  0.00    +0.000 C 
BRANCH   8   9
ATOM      9  C   UNL     1       3.049   2.524  20.377  0.00  0.00    +0.000 C 
BRANCH   9  11
ATOM     10  C   UNL     1       3.321   1.873  17.991  0.00  0.00    +0.000 C 
ATOM     11  C   UNL     1       4.047   2.164  19.287  0.00  0.00    +0.000 C 
ENDBRANCH   9  11
ENDBRANCH   8   9
ENDBRANCH   7   8
ENDBRANCH   6   7
ENDBRANCH   5   6
ENDBRANCH   4   5
ENDBRANCH   3   4
ENDBRANCH   2   3
ENDBRANCH   1   2
BRANCH   1  12
ATOM     12  C   UNL     1       5.863   6.270  17.825  0.00  0.00    +0.000 C 
BRANCH  12  13
ATOM     13  C   UNL     1       6.740   5.068  17.547  0.00  0.00    +0.000 C 
BRANCH  13  14
ATOM     14  C   UNL     1       6.786   4.805  16.051  0.00  0.00    +0.000 C 
ATOM     15  C   UNL     1       6.826   4.578  14.768  0.00  0.00    +0.000 C 
BRANCH  15  16
ATOM     16  C   UNL     1       6.694   4.107  13.404  0.00  0.00    +0.000 C 
ATOM     17  N   UNL     1       7.267   4.168  12.291  0.00  0.00    +0.000 NA
ATOM     18  C   UNL     1       5.721   3.595  12.515  0.00  0.00    +0.000 C 
BRANCH  18  19
ATOM     19  C   UNL     1       5.270   2.695  11.418  0.00  0.00    +0.000 C 
ATOM     20  O   UNL     1       5.483   1.494  11.354  0.00  0.00    +0.000 OA
BRANCH  19  21
ATOM     21  O   UNL     1       4.319   3.381  10.711  0.00  0.00    +0.000 OA
ATOM     22  C   UNL     1       2.976   2.880  10.618  0.00  0.00    +0.000 C 
ENDBRANCH  19  21
ENDBRANCH  18  19
ENDBRANCH  15  16
ENDBRANCH  13  14
ENDBRANCH  12  13
ENDBRANCH   1  12
TORSDOF 15
ENDMDL
MODEL 7
REMARK VINA RESULT:      -5.4      1.581      2.254
REMARK  Name = 
REMARK  17 active torsions:
REMARK  status: ('A' for Active; 'I' for Inactive)
REMARK    1  A    between atoms: C_1  and  C_2
REMARK    2  A    between atoms: C_2  and  C_3
REMARK    3  A    between atoms: C_3  and  C_4
REMARK    4  A    between atoms: C_4  and  C_5
REMARK    5  A    between atoms: C_5  and  C_6
REMARK    6  A    between atoms: C_6  and  C_7
REMARK    7  A    between atoms: C_7  and  C_8
REMARK    8  A    between atoms: C_8  and  C_9
REMARK    9  A    between atoms: C_9  and  C_10
REMARK   10  A    between atoms: C_10  and  C_11
REMARK   11  A    between atoms: C_11  and  C_12
REMARK   12  A    between atoms: C_12  and  C_13
REMARK   13  A    between atoms: C_13  and  C_14
REMARK   14  A    between atoms: C_15  and  C_16
REMARK   15  A    between atoms: C_18  and  C_19
REMARK   16  A    between atoms: C_19  and  O_21
REMARK   17  A    between atoms: O_21  and  C_22
REMARK                            x       y       z     vdW  Elec       q    Type
REMARK                         _______ _______ _______ _____ _____    ______ ____
ROOT
ATOM      1  C   UNL     1       7.092   5.406  16.271  0.00  0.00    +0.000 C 
ENDROOT
BRANCH   1   2
ATOM      2  C   UNL     1       5.596   5.583  16.092  0.00  0.00    +0.000 C 
BRANCH   2   3
ATOM      3  C   UNL     1       4.905   4.233  16.165  0.00  0.00    +0.000 C 
BRANCH   3   4
ATOM      4  C   UNL     1       3.819   4.265  17.223  0.00  0.00    +0.000 C 
BRANCH   4   5
ATOM      5  C   UNL     1       4.386   4.795  18.526  0.00  0.00    +0.000 C 
BRANCH   5   6
ATOM      6  C   UNL     1       3.636   6.047  18.944  0.00  0.00    +0.000 C 
BRANCH   6   7
ATOM      7  C   UNL     1       2.218   5.686  19.346  0.00  0.00    +0.000 C 
BRANCH   7   8
ATOM      8  C   UNL     1       2.231   4.903  20.645  0.00  0.00    +0.000 C 
BRANCH   8   9
ATOM      9  C   UNL     1       1.198   3.790  20.591  0.00  0.00    +0.000 C 
BRANCH   9  11
ATOM     10  C   UNL     1       0.961   2.421  18.527  0.00  0.00    +0.000 C 
ATOM     11  C   UNL     1       1.750   2.611  19.806  0.00  0.00    +0.000 C 
ENDBRANCH   9  11
ENDBRANCH   8   9
ENDBRANCH   7   8
ENDBRANCH   6   7
ENDBRANCH   5   6
ENDBRANCH   4   5
ENDBRANCH   3   4
ENDBRANCH   2   3
ENDBRANCH   1   2
BRANCH   1  12
ATOM     12  C   UNL     1       7.552   6.144  17.514  0.00  0.00    +0.000 C 
BRANCH  12  13
ATOM     13  C   UNL     1       6.840   7.475  17.614  0.00  0.00    +0.000 C 
BRANCH  13  14
ATOM     14  C   UNL     1       7.843   8.568  17.945  0.00  0.00    +0.000 C 
ATOM     15  C   UNL     1       8.704   9.506  18.228  0.00  0.00    +0.000 C 
BRANCH  15  16
ATOM     16  C   UNL     1       9.426  10.699  18.620  0.00  0.00    +0.000 C 
ATOM     17  N   UNL     1      10.404  11.063  19.314  0.00  0.00    +0.000 NA
ATOM     18  C   UNL     1       9.259  12.100  18.698  0.00  0.00    +0.000 C 
BRANCH  18  19
ATOM     19  C   UNL     1       9.747  13.502  18.583  0.00  0.00    +0.000 C 
ATOM     20  O   UNL     1      10.117  14.041  17.550  0.00  0.00    +0.000 OA
BRANCH  19  21
ATOM     21  O   UNL     1       9.387  14.142  19.738  0.00  0.00    +0.000 OA
ATOM     22  C   UNL     1      10.388  14.610  20.656  0.00  0.00    +0.000 C 
ENDBRANCH  19  21
ENDBRANCH  18  19
ENDBRANCH  15  16
ENDBRANCH  13  14
ENDBRANCH  12  13
ENDBRANCH   1  12
TORSDOF 15
ENDMDL
MODEL 8
REMARK VINA RESULT:      -5.4      5.361      7.490
REMARK  Name = 
REMARK  17 active torsions:
REMARK  status: ('A' for Active; 'I' for Inactive)
REMARK    1  A    between atoms: C_1  and  C_2
REMARK    2  A    between atoms: C_2  and  C_3
REMARK    3  A    between atoms: C_3  and  C_4
REMARK    4  A    between atoms: C_4  and  C_5
REMARK    5  A    between atoms: C_5  and  C_6
REMARK    6  A    between atoms: C_6  and  C_7
REMARK    7  A    between atoms: C_7  and  C_8
REMARK    8  A    between atoms: C_8  and  C_9
REMARK    9  A    between atoms: C_9  and  C_10
REMARK   10  A    between atoms: C_10  and  C_11
REMARK   11  A    between atoms: C_11  and  C_12
REMARK   12  A    between atoms: C_12  and  C_13
REMARK   13  A    between atoms: C_13  and  C_14
REMARK   14  A    between atoms: C_15  and  C_16
REMARK   15  A    between atoms: C_18  and  C_19
REMARK   16  A    between atoms: C_19  and  O_21
REMARK   17  A    between atoms: O_21  and  C_22
REMARK                            x       y       z     vdW  Elec       q    Type
REMARK                         _______ _______ _______ _____ _____    ______ ____
ROOT
ATOM      1  C   UNL     1       2.911   2.562  20.332  0.00  0.00    +0.000 C 
ENDROOT
BRANCH   1   2
ATOM      2  C   UNL     1       2.071   3.409  21.270  0.00  0.00    +0.000 C 
BRANCH   2   3
ATOM      3  C   UNL     1       2.535   4.853  21.215  0.00  0.00    +0.000 C 
BRANCH   3   4
ATOM      4  C   UNL     1       1.382   5.751  20.809  0.00  0.00    +0.000 C 
BRANCH   4   5
ATOM      5  C   UNL     1       1.563   6.204  19.373  0.00  0.00    +0.000 C 
BRANCH   5   6
ATOM      6  C   UNL     1       2.362   7.495  19.335  0.00  0.00    +0.000 C 
BRANCH   6   7
ATOM      7  C   UNL     1       2.409   8.028  17.915  0.00  0.00    +0.000 C 
BRANCH   7   8
ATOM      8  C   UNL     1       2.130   9.519  17.912  0.00  0.00    +0.000 C 
BRANCH   8   9
ATOM      9  C   UNL     1       0.902   9.820  18.753  0.00  0.00    +0.000 C 
BRANCH   9  11
ATOM     10  C   UNL     1      -1.538  10.302  18.683  0.00  0.00    +0.000 C 
ATOM     11  C   UNL     1      -0.319   9.955  17.856  0.00  0.00    +0.000 C 
ENDBRANCH   9  11
ENDBRANCH   8   9
ENDBRANCH   7   8
ENDBRANCH   6   7
ENDBRANCH   5   6
ENDBRANCH   4   5
ENDBRANCH   3   4
ENDBRANCH   2   3
ENDBRANCH   1   2
BRANCH   1  12
ATOM     12  C   UNL     1       2.008   1.725  19.447  0.00  0.00    +0.000 C 
BRANCH  12  13
ATOM     13  C   UNL     1       1.347   2.605  18.408  0.00  0.00    +0.000 C 
BRANCH  13  14
ATOM     14  C   UNL     1       2.405   3.421  17.683  0.00  0.00    +0.000 C 
ATOM     15  C   UNL     1       3.312   4.121  17.062  0.00  0.00    +0.000 C 
BRANCH  15  16
ATOM     16  C   UNL     1       4.499   4.790  16.569  0.00  0.00    +0.000 C 
ATOM     17  N   UNL     1       4.895   5.913  16.178  0.00  0.00    +0.000 NA
ATOM     18  C   UNL     1       5.749   4.500  15.975  0.00  0.00    +0.000 C 
BRANCH  18  19
ATOM     19  C   UNL     1       7.207   4.726  15.778  0.00  0.00    +0.000 C 
ATOM     20  O   UNL     1       7.705   5.423  14.907  0.00  0.00    +0.000 OA
BRANCH  19  21
ATOM     21  O   UNL     1       7.831   4.300  16.920  0.00  0.00    +0.000 OA
ATOM     22  C   UNL     1       7.727   5.060  18.134  0.00  0.00    +0.000 C 
ENDBRANCH  19  21
ENDBRANCH  18  19
ENDBRANCH  15  16
ENDBRANCH  13  14
ENDBRANCH  12  13
ENDBRANCH   1  12
TORSDOF 15
ENDMDL
MODEL 9
REMARK VINA RESULT:      -5.4      1.159      2.583
REMARK  Name = 
REMARK  17 active torsions:
REMARK  status: ('A' for Active; 'I' for Inactive)
REMARK    1  A    between atoms: C_1  and  C_2
REMARK    2  A    between atoms: C_2  and  C_3
REMARK    3  A    between atoms: C_3  and  C_4
REMARK    4  A    between atoms: C_4  and  C_5
REMARK    5  A    between atoms: C_5  and  C_6
REMARK    6  A    between atoms: C_6  and  C_7
REMARK    7  A    between atoms: C_7  and  C_8
REMARK    8  A    between atoms: C_8  and  C_9
REMARK    9  A    between atoms: C_9  and  C_10
REMARK   10  A    between atoms: C_10  and  C_11
REMARK   11  A    between atoms: C_11  and  C_12
REMARK   12  A    between atoms: C_12  and  C_13
REMARK   13  A    between atoms: C_13  and  C_14
REMARK   14  A    between atoms: C_15  and  C_16
REMARK   15  A    between atoms: C_18  and  C_19
REMARK   16  A    between atoms: C_19  and  O_21
REMARK   17  A    between atoms: O_21  and  C_22
REMARK                            x       y       z     vdW  Elec       q    Type
REMARK                         _______ _______ _______ _____ _____    ______ ____
ROOT
ATOM      1  C   UNL     1       5.628   5.646  18.854  0.00  0.00    +0.000 C 
ENDROOT
BRANCH   1   2
ATOM      2  C   UNL     1       4.223   5.830  19.393  0.00  0.00    +0.000 C 
BRANCH   2   3
ATOM      3  C   UNL     1       3.836   4.633  20.243  0.00  0.00    +0.000 C 
BRANCH   3   4
ATOM      4  C   UNL     1       2.447   4.833  20.816  0.00  0.00    +0.000 C 
BRANCH   4   5
ATOM      5  C   UNL     1       2.094   3.672  21.728  0.00  0.00    +0.000 C 
BRANCH   5   6
ATOM      6  C   UNL     1       1.452   2.559  20.920  0.00  0.00    +0.000 C 
BRANCH   6   7
ATOM      7  C   UNL     1       0.734   3.145  19.718  0.00  0.00    +0.000 C 
BRANCH   7   8
ATOM      8  C   UNL     1       0.781   2.168  18.559  0.00  0.00    +0.000 C 
BRANCH   8   9
ATOM      9  C   UNL     1       2.176   2.138  17.959  0.00  0.00    +0.000 C 
BRANCH   9  11
ATOM     10  C   UNL     1       3.876   3.455  16.708  0.00  0.00    +0.000 C 
ATOM     11  C   UNL     1       2.480   3.471  17.294  0.00  0.00    +0.000 C 
ENDBRANCH   9  11
ENDBRANCH   8   9
ENDBRANCH   7   8
ENDBRANCH   6   7
ENDBRANCH   5   6
ENDBRANCH   4   5
ENDBRANCH   3   4
ENDBRANCH   2   3
ENDBRANCH   1   2
BRANCH   1  12
ATOM     12  C   UNL     1       5.880   6.632  17.728  0.00  0.00    +0.000 C 
BRANCH  12  13
ATOM     13  C   UNL     1       7.356   6.668  17.397  0.00  0.00    +0.000 C 
BRANCH  13  14
ATOM     14  C   UNL     1       7.900   8.066  17.644  0.00  0.00    +0.000 C 
ATOM     15  C   UNL     1       8.367   9.264  17.857  0.00  0.00    +0.000 C 
BRANCH  15  16
ATOM     16  C   UNL     1       8.973  10.486  18.346  0.00  0.00    +0.000 C 
ATOM     17  N   UNL     1       8.725  11.705  18.496  0.00  0.00    +0.000 NA
ATOM     18  C   UNL     1      10.244  11.040  18.624  0.00  0.00    +0.000 C 
BRANCH  18  19
ATOM     19  C   UNL     1      11.179  11.875  19.427  0.00  0.00    +0.000 C 
ATOM     20  O   UNL     1      11.200  11.942  20.646  0.00  0.00    +0.000 OA
BRANCH  19  21
ATOM     21  O   UNL     1      12.186  12.261  18.583  0.00  0.00    +0.000 OA
ATOM     22  C   UNL     1      11.943  13.234  17.555  0.00  0.00    +0.000 C 
ENDBRANCH  19  21
ENDBRANCH  18  19
ENDBRANCH  15  16
ENDBRANCH  13  14
ENDBRANCH  12  13
ENDBRANCH   1  12
TORSDOF 15
ENDMDL
