MODEL 1
REMARK VINA RESULT:      -6.8      0.000      0.000
REMARK  Name = 
REMARK  4 active torsions:
REMARK  status: ('A' for Active; 'I' for Inactive)
REMARK    1  A    between atoms: O_1  and  C_2
REMARK    2  A    between atoms: C_6  and  C_7
REMARK    3  A    between atoms: C_7  and  C_8
REMARK    4  A    between atoms: C_8  and  C_9
REMARK                            x       y       z     vdW  Elec       q    Type
REMARK                         _______ _______ _______ _____ _____    ______ ____
ROOT
ATOM      1  C   UNL     1       6.966   4.891  17.053  0.00  0.00    +0.000 A 
ATOM      2  C   UNL     1       5.997   5.018  16.055  0.00  0.00    +0.000 A 
ATOM      3 BR   UNL     1       6.182   4.100  14.405  0.00  0.00    +0.000 Br
ATOM      4  C   UNL     1       4.875   5.831  16.251  0.00  0.00    +0.000 A 
ATOM      5  C   UNL     1       4.714   6.538  17.452  0.00  0.00    +0.000 A 
ATOM      6  C   UNL     1       5.683   6.392  18.457  0.00  0.00    +0.000 A 
ATOM      7  C   UNL     1       6.802   5.577  18.258  0.00  0.00    +0.000 A 
ATOM      8 BR   UNL     1       8.079   5.446  19.655  0.00  0.00    +0.000 Br
ENDROOT
BRANCH   1   9
ATOM      9  O   UNL     1       8.076   4.110  16.866  0.00  0.00    +0.000 OA
ATOM     10  H   UNL     1       8.183   3.965  15.908  0.00  0.00    +0.000 HD
ENDBRANCH   1   9
BRANCH   5  11
ATOM     11  C   UNL     1       3.523   7.445  17.665  0.00  0.00    +0.000 C 
BRANCH  11  12
ATOM     12  C   UNL     1       2.188   6.700  17.555  0.00  0.00    +0.000 C 
BRANCH  12  13
ATOM     13  C   UNL     1       2.039   5.635  18.617  0.00  0.00    +0.000 A 
ATOM     14  C   UNL     1       2.188   5.949  19.977  0.00  0.00    +0.000 A 
ATOM     15  C   UNL     1       2.041   4.961  20.953  0.00  0.00    +0.000 A 
ATOM     16  C   UNL     1       1.751   3.652  20.580  0.00  0.00    +0.000 A 
ATOM     17 CL   UNL     1       1.560   2.438  21.783  0.00  0.00    +0.000 Cl
ATOM     18  C   UNL     1       1.610   3.321  19.234  0.00  0.00    +0.000 A 
ATOM     19  C   UNL     1       1.756   4.309  18.256  0.00  0.00    +0.000 A 
ENDBRANCH  12  13
ENDBRANCH  11  12
ENDBRANCH   5  11
TORSDOF 4
ENDMDL
MODEL 2
REMARK VINA RESULT:      -6.8      0.027      1.139
REMARK  Name = 
REMARK  4 active torsions:
REMARK  status: ('A' for Active; 'I' for Inactive)
REMARK    1  A    between atoms: O_1  and  C_2
REMARK    2  A    between atoms: C_6  and  C_7
REMARK    3  A    between atoms: C_7  and  C_8
REMARK    4  A    between atoms: C_8  and  C_9
REMARK                            x       y       z     vdW  Elec       q    Type
REMARK                         _______ _______ _______ _____ _____    ______ ____
ROOT
ATOM      1  C   UNL     1       6.967   4.891  17.054  0.00  0.00    +0.000 A 
ATOM      2  C   UNL     1       6.001   5.018  16.053  0.00  0.00    +0.000 A 
ATOM      3 BR   UNL     1       6.188   4.096  14.405  0.00  0.00    +0.000 Br
ATOM      4  C   UNL     1       4.881   5.834  16.244  0.00  0.00    +0.000 A 
ATOM      5  C   UNL     1       4.718   6.544  17.443  0.00  0.00    +0.000 A 
ATOM      6  C   UNL     1       5.683   6.398  18.451  0.00  0.00    +0.000 A 
ATOM      7  C   UNL     1       6.801   5.579  18.257  0.00  0.00    +0.000 A 
ATOM      8 BR   UNL     1       8.074   5.448  19.658  0.00  0.00    +0.000 Br
ENDROOT
BRANCH   1   9
ATOM      9  O   UNL     1       8.075   4.106  16.871  0.00  0.00    +0.000 OA
ATOM     10  H   UNL     1       7.789   3.175  16.876  0.00  0.00    +0.000 HD
ENDBRANCH   1   9
BRANCH   5  11
ATOM     11  C   UNL     1       3.529   7.454  17.650  0.00  0.00    +0.000 C 
BRANCH  11  12
ATOM     12  C   UNL     1       2.192   6.713  17.544  0.00  0.00    +0.000 C 
BRANCH  12  13
ATOM     13  C   UNL     1       2.046   5.645  18.604  0.00  0.00    +0.000 A 
ATOM     14  C   UNL     1       1.752   4.319  18.253  0.00  0.00    +0.000 A 
ATOM     15  C   UNL     1       1.627   3.336  19.238  0.00  0.00    +0.000 A 
ATOM     16  C   UNL     1       1.787   3.671  20.580  0.00  0.00    +0.000 A 
ATOM     17 CL   UNL     1       1.642   2.459  21.791  0.00  0.00    +0.000 Cl
ATOM     18  C   UNL     1       2.068   4.986  20.946  0.00  0.00    +0.000 A 
ATOM     19  C   UNL     1       2.195   5.970  19.961  0.00  0.00    +0.000 A 
ENDBRANCH  12  13
ENDBRANCH  11  12
ENDBRANCH   5  11
TORSDOF 4
ENDMDL
MODEL 3
REMARK VINA RESULT:      -6.8      0.083      2.228
REMARK  Name = 
REMARK  4 active torsions:
REMARK  status: ('A' for Active; 'I' for Inactive)
REMARK    1  A    between atoms: O_1  and  C_2
REMARK    2  A    between atoms: C_6  and  C_7
REMARK    3  A    between atoms: C_7  and  C_8
REMARK    4  A    between atoms: C_8  and  C_9
REMARK                            x       y       z     vdW  Elec       q    Type
REMARK                         _______ _______ _______ _____ _____    ______ ____
ROOT
ATOM      1  C   UNL     1       6.955   4.924  17.029  0.00  0.00    +0.000 A 
ATOM      2  C   UNL     1       6.803   5.624  18.228  0.00  0.00    +0.000 A 
ATOM      3 BR   UNL     1       8.083   5.449  19.618  0.00  0.00    +0.000 Br
ATOM      4  C   UNL     1       5.701   6.462  18.429  0.00  0.00    +0.000 A 
ATOM      5  C   UNL     1       4.726   6.602  17.430  0.00  0.00    +0.000 A 
ATOM      6  C   UNL     1       4.894   5.910  16.221  0.00  0.00    +0.000 A 
ATOM      7  C   UNL     1       5.998   5.075  16.023  0.00  0.00    +0.000 A 
ATOM      8 BR   UNL     1       6.146   4.155  14.370  0.00  0.00    +0.000 Br
ENDROOT
BRANCH   1   9
ATOM      9  O   UNL     1       8.022   4.089  16.827  0.00  0.00    +0.000 OA
ATOM     10  H   UNL     1       8.833   4.631  16.832  0.00  0.00    +0.000 HD
ENDBRANCH   1   9
BRANCH   5  11
ATOM     11  C   UNL     1       3.514   7.479  17.646  0.00  0.00    +0.000 C 
BRANCH  11  12
ATOM     12  C   UNL     1       2.197   6.702  17.544  0.00  0.00    +0.000 C 
BRANCH  12  13
ATOM     13  C   UNL     1       2.080   5.635  18.609  0.00  0.00    +0.000 A 
ATOM     14  C   UNL     1       2.157   5.966  19.970  0.00  0.00    +0.000 A 
ATOM     15  C   UNL     1       2.040   4.976  20.949  0.00  0.00    +0.000 A 
ATOM     16  C   UNL     1       1.850   3.649  20.575  0.00  0.00    +0.000 A 
ATOM     17 CL   UNL     1       1.695   2.431  21.781  0.00  0.00    +0.000 Cl
ATOM     18  C   UNL     1       1.781   3.301  19.228  0.00  0.00    +0.000 A 
ATOM     19  C   UNL     1       1.898   4.292  18.248  0.00  0.00    +0.000 A 
ENDBRANCH  12  13
ENDBRANCH  11  12
ENDBRANCH   5  11
TORSDOF 4
ENDMDL
MODEL 4
REMARK VINA RESULT:      -6.8      0.224      2.506
REMARK  Name = 
REMARK  4 active torsions:
REMARK  status: ('A' for Active; 'I' for Inactive)
REMARK    1  A    between atoms: O_1  and  C_2
REMARK    2  A    between atoms: C_6  and  C_7
REMARK    3  A    between atoms: C_7  and  C_8
REMARK    4  A    between atoms: C_8  and  C_9
REMARK                            x       y       z     vdW  Elec       q    Type
REMARK                         _______ _______ _______ _____ _____    ______ ____
ROOT
ATOM      1  C   UNL     1       7.000   4.862  17.077  0.00  0.00    +0.000 A 
ATOM      2  C   UNL     1       6.831   5.555  18.278  0.00  0.00    +0.000 A 
ATOM      3 BR   UNL     1       8.143   5.456  19.645  0.00  0.00    +0.000 Br
ATOM      4  C   UNL     1       5.686   6.329  18.498  0.00  0.00    +0.000 A 
ATOM      5  C   UNL     1       4.688   6.411  17.516  0.00  0.00    +0.000 A 
ATOM      6  C   UNL     1       4.872   5.727  16.305  0.00  0.00    +0.000 A 
ATOM      7  C   UNL     1       6.019   4.956  16.088  0.00  0.00    +0.000 A 
ATOM      8 BR   UNL     1       6.188   4.041  14.434  0.00  0.00    +0.000 Br
ENDROOT
BRANCH   1   9
ATOM      9  O   UNL     1       8.110   4.088  16.857  0.00  0.00    +0.000 OA
ATOM     10  H   UNL     1       8.509   4.368  16.014  0.00  0.00    +0.000 HD
ENDBRANCH   1   9
BRANCH   5  11
ATOM     11  C   UNL     1       3.431   7.219  17.754  0.00  0.00    +0.000 C 
BRANCH  11  12
ATOM     12  C   UNL     1       2.155   6.391  17.573  0.00  0.00    +0.000 C 
BRANCH  12  13
ATOM     13  C   UNL     1       1.977   5.369  18.673  0.00  0.00    +0.000 A 
ATOM     14  C   UNL     1       1.448   4.099  18.396  0.00  0.00    +0.000 A 
ATOM     15  C   UNL     1       1.294   3.157  19.416  0.00  0.00    +0.000 A 
ATOM     16  C   UNL     1       1.661   3.478  20.720  0.00  0.00    +0.000 A 
ATOM     17 CL   UNL     1       1.480   2.314  21.974  0.00  0.00    +0.000 Cl
ATOM     18  C   UNL     1       2.178   4.737  21.014  0.00  0.00    +0.000 A 
ATOM     19  C   UNL     1       2.333   5.681  19.993  0.00  0.00    +0.000 A 
ENDBRANCH  12  13
ENDBRANCH  11  12
ENDBRANCH   5  11
TORSDOF 4
ENDMDL
MODEL 5
REMARK VINA RESULT:      -6.7      2.069      3.491
REMARK  Name = 
REMARK  4 active torsions:
REMARK  status: ('A' for Active; 'I' for Inactive)
REMARK    1  A    between atoms: O_1  and  C_2
REMARK    2  A    between atoms: C_6  and  C_7
REMARK    3  A    between atoms: C_7  and  C_8
REMARK    4  A    between atoms: C_8  and  C_9
REMARK                            x       y       z     vdW  Elec       q    Type
REMARK                         _______ _______ _______ _____ _____    ______ ____
ROOT
ATOM      1  C   UNL     1       6.820   5.172  15.593  0.00  0.00    +0.000 A 
ATOM      2  C   UNL     1       6.596   5.505  16.932  0.00  0.00    +0.000 A 
ATOM      3 BR   UNL     1       7.679   6.799  17.801  0.00  0.00    +0.000 Br
ATOM      4  C   UNL     1       5.575   4.884  17.658  0.00  0.00    +0.000 A 
ATOM      5  C   UNL     1       4.766   3.911  17.053  0.00  0.00    +0.000 A 
ATOM      6  C   UNL     1       4.985   3.594  15.704  0.00  0.00    +0.000 A 
ATOM      7  C   UNL     1       6.006   4.218  14.980  0.00  0.00    +0.000 A 
ATOM      8 BR   UNL     1       6.255   3.723  13.165  0.00  0.00    +0.000 Br
ENDROOT
BRANCH   1   9
ATOM      9  O   UNL     1       7.828   5.762  14.877  0.00  0.00    +0.000 OA
ATOM     10  H   UNL     1       8.049   6.608  15.309  0.00  0.00    +0.000 HD
ENDBRANCH   1   9
BRANCH   5  11
ATOM     11  C   UNL     1       3.679   3.210  17.836  0.00  0.00    +0.000 C 
BRANCH  11  12
ATOM     12  C   UNL     1       2.307   3.872  17.665  0.00  0.00    +0.000 C 
BRANCH  12  13
ATOM     13  C   UNL     1       2.108   5.028  18.618  0.00  0.00    +0.000 A 
ATOM     14  C   UNL     1       1.678   4.807  19.936  0.00  0.00    +0.000 A 
ATOM     15  C   UNL     1       1.505   5.879  20.814  0.00  0.00    +0.000 A 
ATOM     16  C   UNL     1       1.753   7.179  20.382  0.00  0.00    +0.000 A 
ATOM     17 CL   UNL     1       1.548   8.498  21.467  0.00  0.00    +0.000 Cl
ATOM     18  C   UNL     1       2.170   7.416  19.074  0.00  0.00    +0.000 A 
ATOM     19  C   UNL     1       2.345   6.344  18.195  0.00  0.00    +0.000 A 
ENDBRANCH  12  13
ENDBRANCH  11  12
ENDBRANCH   5  11
TORSDOF 4
ENDMDL
MODEL 6
REMARK VINA RESULT:      -6.7      2.085      3.505
REMARK  Name = 
REMARK  4 active torsions:
REMARK  status: ('A' for Active; 'I' for Inactive)
REMARK    1  A    between atoms: O_1  and  C_2
REMARK    2  A    between atoms: C_6  and  C_7
REMARK    3  A    between atoms: C_7  and  C_8
REMARK    4  A    between atoms: C_8  and  C_9
REMARK                            x       y       z     vdW  Elec       q    Type
REMARK                         _______ _______ _______ _____ _____    ______ ____
ROOT
ATOM      1  C   UNL     1       6.838   5.114  15.443  0.00  0.00    +0.000 A 
ATOM      2  C   UNL     1       6.596   5.485  16.768  0.00  0.00    +0.000 A 
ATOM      3 BR   UNL     1       7.675   6.795  17.617  0.00  0.00    +0.000 Br
ATOM      4  C   UNL     1       5.559   4.892  17.496  0.00  0.00    +0.000 A 
ATOM      5  C   UNL     1       4.753   3.908  16.906  0.00  0.00    +0.000 A 
ATOM      6  C   UNL     1       4.989   3.552  15.569  0.00  0.00    +0.000 A 
ATOM      7  C   UNL     1       6.026   4.149  14.844  0.00  0.00    +0.000 A 
ATOM      8 BR   UNL     1       6.298   3.602  13.048  0.00  0.00    +0.000 Br
ENDROOT
BRANCH   1   9
ATOM      9  O   UNL     1       7.860   5.677  14.726  0.00  0.00    +0.000 OA
ATOM     10  H   UNL     1       7.530   5.866  13.829  0.00  0.00    +0.000 HD
ENDBRANCH   1   9
BRANCH   5  11
ATOM     11  C   UNL     1       3.649   3.236  17.691  0.00  0.00    +0.000 C 
BRANCH  11  12
ATOM     12  C   UNL     1       2.298   3.942  17.533  0.00  0.00    +0.000 C 
BRANCH  12  13
ATOM     13  C   UNL     1       2.125   5.071  18.523  0.00  0.00    +0.000 A 
ATOM     14  C   UNL     1       2.379   6.400  18.148  0.00  0.00    +0.000 A 
ATOM     15  C   UNL     1       2.208   7.440  19.065  0.00  0.00    +0.000 A 
ATOM     16  C   UNL     1       1.791   7.160  20.364  0.00  0.00    +0.000 A 
ATOM     17 CL   UNL     1       1.572   8.442  21.490  0.00  0.00    +0.000 Cl
ATOM     18  C   UNL     1       1.545   5.846  20.754  0.00  0.00    +0.000 A 
ATOM     19  C   UNL     1       1.714   4.805  19.837  0.00  0.00    +0.000 A 
ENDBRANCH  12  13
ENDBRANCH  11  12
ENDBRANCH   5  11
TORSDOF 4
ENDMDL
MODEL 7
REMARK VINA RESULT:      -6.7      2.055      2.729
REMARK  Name = 
REMARK  4 active torsions:
REMARK  status: ('A' for Active; 'I' for Inactive)
REMARK    1  A    between atoms: O_1  and  C_2
REMARK    2  A    between atoms: C_6  and  C_7
REMARK    3  A    between atoms: C_7  and  C_8
REMARK    4  A    between atoms: C_8  and  C_9
REMARK                            x       y       z     vdW  Elec       q    Type
REMARK                         _______ _______ _______ _____ _____    ______ ____
ROOT
ATOM      1  C   UNL     1       6.829   5.174  15.820  0.00  0.00    +0.000 A 
ATOM      2  C   UNL     1       6.020   4.220  15.198  0.00  0.00    +0.000 A 
ATOM      3 BR   UNL     1       6.252   3.806  13.360  0.00  0.00    +0.000 Br
ATOM      4  C   UNL     1       5.020   3.557  15.916  0.00  0.00    +0.000 A 
ATOM      5  C   UNL     1       4.809   3.850  17.272  0.00  0.00    +0.000 A 
ATOM      6  C   UNL     1       5.637   4.797  17.895  0.00  0.00    +0.000 A 
ATOM      7  C   UNL     1       6.637   5.456  17.174  0.00  0.00    +0.000 A 
ATOM      8 BR   UNL     1       7.702   6.739  18.080  0.00  0.00    +0.000 Br
ENDROOT
BRANCH   1   9
ATOM      9  O   UNL     1       7.802   5.840  15.122  0.00  0.00    +0.000 OA
ATOM     10  H   UNL     1       8.210   5.211  14.500  0.00  0.00    +0.000 HD
ENDBRANCH   1   9
BRANCH   5  11
ATOM     11  C   UNL     1       3.710   3.164  18.052  0.00  0.00    +0.000 C 
BRANCH  11  12
ATOM     12  C   UNL     1       2.340   3.815  17.838  0.00  0.00    +0.000 C 
BRANCH  12  13
ATOM     13  C   UNL     1       2.131   5.014  18.735  0.00  0.00    +0.000 A 
ATOM     14  C   UNL     1       1.689   4.854  20.057  0.00  0.00    +0.000 A 
ATOM     15  C   UNL     1       1.506   5.966  20.883  0.00  0.00    +0.000 A 
ATOM     16  C   UNL     1       1.758   7.245  20.393  0.00  0.00    +0.000 A 
ATOM     17 CL   UNL     1       1.542   8.613  21.414  0.00  0.00    +0.000 Cl
ATOM     18  C   UNL     1       2.187   7.421  19.080  0.00  0.00    +0.000 A 
ATOM     19  C   UNL     1       2.371   6.309  18.253  0.00  0.00    +0.000 A 
ENDBRANCH  12  13
ENDBRANCH  11  12
ENDBRANCH   5  11
TORSDOF 4
ENDMDL
MODEL 8
REMARK VINA RESULT:      -6.7      2.943      3.839
REMARK  Name = 
REMARK  4 active torsions:
REMARK  status: ('A' for Active; 'I' for Inactive)
REMARK    1  A    between atoms: O_1  and  C_2
REMARK    2  A    between atoms: C_6  and  C_7
REMARK    3  A    between atoms: C_7  and  C_8
REMARK    4  A    between atoms: C_8  and  C_9
REMARK                            x       y       z     vdW  Elec       q    Type
REMARK                         _______ _______ _______ _____ _____    ______ ____
ROOT
ATOM      1  C   UNL     1       6.698   4.731  17.005  0.00  0.00    +0.000 A 
ATOM      2  C   UNL     1       5.621   4.473  16.154  0.00  0.00    +0.000 A 
ATOM      3 BR   UNL     1       5.915   3.853  14.385  0.00  0.00    +0.000 Br
ATOM      4  C   UNL     1       4.307   4.673  16.588  0.00  0.00    +0.000 A 
ATOM      5  C   UNL     1       4.053   5.147  17.884  0.00  0.00    +0.000 A 
ATOM      6  C   UNL     1       5.139   5.388  18.740  0.00  0.00    +0.000 A 
ATOM      7  C   UNL     1       6.452   5.184  18.303  0.00  0.00    +0.000 A 
ATOM      8 BR   UNL     1       7.869   5.552  19.510  0.00  0.00    +0.000 Br
ENDROOT
BRANCH   1   9
ATOM      9  O   UNL     1       7.991   4.553  16.585  0.00  0.00    +0.000 OA
ATOM     10  H   UNL     1       8.235   5.316  16.031  0.00  0.00    +0.000 HD
ENDBRANCH   1   9
BRANCH   5  11
ATOM     11  C   UNL     1       2.638   5.398  18.355  0.00  0.00    +0.000 C 
BRANCH  11  12
ATOM     12  C   UNL     1       2.584   6.215  19.650  0.00  0.00    +0.000 C 
BRANCH  12  13
ATOM     13  C   UNL     1       2.051   7.611  19.423  0.00  0.00    +0.000 A 
ATOM     14  C   UNL     1       2.219   8.252  18.186  0.00  0.00    +0.000 A 
ATOM     15  C   UNL     1       1.715   9.539  17.980  0.00  0.00    +0.000 A 
ATOM     16  C   UNL     1       1.047  10.197  19.009  0.00  0.00    +0.000 A 
ATOM     17 CL   UNL     1       0.419  11.778  18.752  0.00  0.00    +0.000 Cl
ATOM     18  C   UNL     1       0.881   9.579  20.246  0.00  0.00    +0.000 A 
ATOM     19  C   UNL     1       1.383   8.291  20.452  0.00  0.00    +0.000 A 
ENDBRANCH  12  13
ENDBRANCH  11  12
ENDBRANCH   5  11
TORSDOF 4
ENDMDL
MODEL 9
REMARK VINA RESULT:      -6.7      2.927      4.424
REMARK  Name = 
REMARK  4 active torsions:
REMARK  status: ('A' for Active; 'I' for Inactive)
REMARK    1  A    between atoms: O_1  and  C_2
REMARK    2  A    between atoms: C_6  and  C_7
REMARK    3  A    between atoms: C_7  and  C_8
REMARK    4  A    between atoms: C_8  and  C_9
REMARK                            x       y       z     vdW  Elec       q    Type
REMARK                         _______ _______ _______ _____ _____    ______ ____
ROOT
ATOM      1  C   UNL     1       6.723   4.759  17.037  0.00  0.00    +0.000 A 
ATOM      2  C   UNL     1       6.469   5.228  18.328  0.00  0.00    +0.000 A 
ATOM      3 BR   UNL     1       7.898   5.577  19.527  0.00  0.00    +0.000 Br
ATOM      4  C   UNL     1       5.157   5.442  18.763  0.00  0.00    +0.000 A 
ATOM      5  C   UNL     1       4.076   5.179  17.909  0.00  0.00    +0.000 A 
ATOM      6  C   UNL     1       4.338   4.724  16.607  0.00  0.00    +0.000 A 
ATOM      7  C   UNL     1       5.652   4.513  16.175  0.00  0.00    +0.000 A 
ATOM      8 BR   UNL     1       5.927   3.877  14.409  0.00  0.00    +0.000 Br
ENDROOT
BRANCH   1   9
ATOM      9  O   UNL     1       8.003   4.531  16.606  0.00  0.00    +0.000 OA
ATOM     10  H   UNL     1       7.979   4.416  15.638  0.00  0.00    +0.000 HD
ENDBRANCH   1   9
BRANCH   5  11
ATOM     11  C   UNL     1       2.652   5.376  18.377  0.00  0.00    +0.000 C 
BRANCH  11  12
ATOM     12  C   UNL     1       2.564   6.183  19.676  0.00  0.00    +0.000 C 
BRANCH  12  13
ATOM     13  C   UNL     1       2.043   7.583  19.445  0.00  0.00    +0.000 A 
ATOM     14  C   UNL     1       2.213   8.217  18.205  0.00  0.00    +0.000 A 
ATOM     15  C   UNL     1       1.721   9.508  17.996  0.00  0.00    +0.000 A 
ATOM     16  C   UNL     1       1.062  10.176  19.024  0.00  0.00    +0.000 A 
ATOM     17 CL   UNL     1       0.448  11.762  18.763  0.00  0.00    +0.000 Cl
ATOM     18  C   UNL     1       0.893   9.564  20.264  0.00  0.00    +0.000 A 
ATOM     19  C   UNL     1       1.384   8.272  20.474  0.00  0.00    +0.000 A 
ENDBRANCH  12  13
ENDBRANCH  11  12
ENDBRANCH   5  11
TORSDOF 4
ENDMDL
