MODEL 1
REMARK VINA RESULT:      -6.5      0.000      0.000
REMARK  Name = 
REMARK  4 active torsions:
REMARK  status: ('A' for Active; 'I' for Inactive)
REMARK    1  A    between atoms: C_2  and  C_3
REMARK    2  A    between atoms: C_4  and  C_5
REMARK    3  A    between atoms: N_10  and  C_11
REMARK    4  A    between atoms: C_11  and  C_12
REMARK                            x       y       z     vdW  Elec       q    Type
REMARK                         _______ _______ _______ _____ _____    ______ ____
ROOT
ATOM      1  O   UNL     1       8.164   6.897  18.741  0.00  0.00    +0.000 OA
ATOM      2  C   UNL     1       7.787   7.740  17.940  0.00  0.00    +0.000 C 
ATOM      3  N   UNL     1       6.815   7.539  16.994  0.00  0.00    +0.000 N 
ATOM      4  H   UNL     1       6.555   8.284  16.362  0.00  0.00    +0.000 HD
ENDROOT
BRANCH   2   5
ATOM      5  C   UNL     1       8.330   9.120  17.909  0.00  0.00    +0.000 C 
ATOM      6  C   UNL     1       9.065   9.593  18.928  0.00  0.00    +0.000 C 
BRANCH   6   7
ATOM      7  C   UNL     1       9.549  10.934  18.916  0.00  0.00    +0.000 A 
ATOM      8  C   UNL     1      10.088  11.679  17.877  0.00  0.00    +0.000 A 
ATOM      9  C   UNL     1      10.467  12.996  18.264  0.00  0.00    +0.000 A 
ATOM     10  C   UNL     1      10.200  13.234  19.592  0.00  0.00    +0.000 A 
ATOM     11  S   UNL     1       9.481  11.883  20.352  0.00  0.00    +0.000 S 
ENDBRANCH   6   7
ENDBRANCH   2   5
BRANCH   3  12
ATOM     12  C   UNL     1       6.114   6.280  16.856  0.00  0.00    +0.000 C 
BRANCH  12  13
ATOM     13  C   UNL     1       4.901   6.235  17.740  0.00  0.00    +0.000 A 
ATOM     14  C   UNL     1       3.799   7.063  17.510  0.00  0.00    +0.000 A 
ATOM     15  C   UNL     1       2.699   7.010  18.363  0.00  0.00    +0.000 A 
ATOM     16  C   UNL     1       2.738   6.123  19.425  0.00  0.00    +0.000 A 
ATOM     17  N   UNL     1       3.781   5.305  19.681  0.00  0.00    +0.000 NA
ATOM     18  C   UNL     1       4.837   5.383  18.839  0.00  0.00    +0.000 A 
ENDBRANCH  12  13
ENDBRANCH   3  12
TORSDOF 4
ENDMDL
MODEL 2
REMARK VINA RESULT:      -6.5      1.707      1.961
REMARK  Name = 
REMARK  4 active torsions:
REMARK  status: ('A' for Active; 'I' for Inactive)
REMARK    1  A    between atoms: C_2  and  C_3
REMARK    2  A    between atoms: C_4  and  C_5
REMARK    3  A    between atoms: N_10  and  C_11
REMARK    4  A    between atoms: C_11  and  C_12
REMARK                            x       y       z     vdW  Elec       q    Type
REMARK                         _______ _______ _______ _____ _____    ______ ____
ROOT
ATOM      1  O   UNL     1       7.393   7.219  16.611  0.00  0.00    +0.000 OA
ATOM      2  C   UNL     1       7.770   7.102  17.768  0.00  0.00    +0.000 C 
ATOM      3  N   UNL     1       7.709   5.941  18.497  0.00  0.00    +0.000 N 
ATOM      4  H   UNL     1       8.039   5.919  19.452  0.00  0.00    +0.000 HD
ENDROOT
BRANCH   2   5
ATOM      5  C   UNL     1       8.375   8.219  18.535  0.00  0.00    +0.000 C 
ATOM      6  C   UNL     1       8.415   9.460  18.025  0.00  0.00    +0.000 C 
BRANCH   6   7
ATOM      7  C   UNL     1       9.035  10.524  18.744  0.00  0.00    +0.000 A 
ATOM      8  C   UNL     1       9.550  10.548  20.033  0.00  0.00    +0.000 A 
ATOM      9  C   UNL     1      10.088  11.815  20.401  0.00  0.00    +0.000 A 
ATOM     10  C   UNL     1       9.982  12.730  19.381  0.00  0.00    +0.000 A 
ATOM     11  S   UNL     1       9.257  12.055  17.988  0.00  0.00    +0.000 S 
ENDBRANCH   6   7
ENDBRANCH   2   5
BRANCH   3  12
ATOM     12  C   UNL     1       7.190   4.707  17.947  0.00  0.00    +0.000 C 
BRANCH  12  13
ATOM     13  C   UNL     1       5.702   4.616  18.130  0.00  0.00    +0.000 A 
ATOM     14  C   UNL     1       4.874   4.089  17.134  0.00  0.00    +0.000 A 
ATOM     15  C   UNL     1       3.497   4.040  17.330  0.00  0.00    +0.000 A 
ATOM     16  C   UNL     1       2.988   4.521  18.524  0.00  0.00    +0.000 A 
ATOM     17  N   UNL     1       3.752   5.036  19.511  0.00  0.00    +0.000 NA
ATOM     18  C   UNL     1       5.086   5.076  19.290  0.00  0.00    +0.000 A 
ENDBRANCH  12  13
ENDBRANCH   3  12
TORSDOF 4
ENDMDL
MODEL 3
REMARK VINA RESULT:      -6.4      1.141      1.370
REMARK  Name = 
REMARK  4 active torsions:
REMARK  status: ('A' for Active; 'I' for Inactive)
REMARK    1  A    between atoms: C_2  and  C_3
REMARK    2  A    between atoms: C_4  and  C_5
REMARK    3  A    between atoms: N_10  and  C_11
REMARK    4  A    between atoms: C_11  and  C_12
REMARK                            x       y       z     vdW  Elec       q    Type
REMARK                         _______ _______ _______ _____ _____    ______ ____
ROOT
ATOM      1  O   UNL     1       8.142   6.759  18.722  0.00  0.00    +0.000 OA
ATOM      2  C   UNL     1       7.768   7.531  17.852  0.00  0.00    +0.000 C 
ATOM      3  N   UNL     1       6.985   7.182  16.781  0.00  0.00    +0.000 N 
ATOM      4  H   UNL     1       6.715   7.875  16.097  0.00  0.00    +0.000 HD
ENDROOT
BRANCH   2   5
ATOM      5  C   UNL     1       8.101   8.977  17.860  0.00  0.00    +0.000 C 
ATOM      6  C   UNL     1       8.928   9.487  18.787  0.00  0.00    +0.000 C 
BRANCH   6   7
ATOM      7  C   UNL     1       9.213  10.884  18.820  0.00  0.00    +0.000 A 
ATOM      8  C   UNL     1       8.950  11.870  17.880  0.00  0.00    +0.000 A 
ATOM      9  C   UNL     1       9.398  13.162  18.278  0.00  0.00    +0.000 A 
ATOM     10  C   UNL     1       9.987  13.137  19.520  0.00  0.00    +0.000 A 
ATOM     11  S   UNL     1       9.977  11.570  20.202  0.00  0.00    +0.000 S 
ENDBRANCH   6   7
ENDBRANCH   2   5
BRANCH   3  12
ATOM     12  C   UNL     1       6.505   5.831  16.579  0.00  0.00    +0.000 C 
BRANCH  12  13
ATOM     13  C   UNL     1       5.103   5.672  17.093  0.00  0.00    +0.000 A 
ATOM     14  C   UNL     1       4.475   4.423  17.129  0.00  0.00    +0.000 A 
ATOM     15  C   UNL     1       3.166   4.316  17.592  0.00  0.00    +0.000 A 
ATOM     16  C   UNL     1       2.524   5.469  18.007  0.00  0.00    +0.000 A 
ATOM     17  N   UNL     1       3.093   6.693  17.991  0.00  0.00    +0.000 NA
ATOM     18  C   UNL     1       4.363   6.767  17.531  0.00  0.00    +0.000 A 
ENDBRANCH  12  13
ENDBRANCH   3  12
TORSDOF 4
ENDMDL
MODEL 4
REMARK VINA RESULT:      -6.3      1.538      1.892
REMARK  Name = 
REMARK  4 active torsions:
REMARK  status: ('A' for Active; 'I' for Inactive)
REMARK    1  A    between atoms: C_2  and  C_3
REMARK    2  A    between atoms: C_4  and  C_5
REMARK    3  A    between atoms: N_10  and  C_11
REMARK    4  A    between atoms: C_11  and  C_12
REMARK                            x       y       z     vdW  Elec       q    Type
REMARK                         _______ _______ _______ _____ _____    ______ ____
ROOT
ATOM      1  O   UNL     1       7.832   6.637  16.404  0.00  0.00    +0.000 OA
ATOM      2  C   UNL     1       7.368   7.313  17.310  0.00  0.00    +0.000 C 
ATOM      3  N   UNL     1       6.046   7.327  17.677  0.00  0.00    +0.000 N 
ATOM      4  H   UNL     1       5.733   7.915  18.437  0.00  0.00    +0.000 HD
ENDROOT
BRANCH   2   5
ATOM      5  C   UNL     1       8.199   8.204  18.157  0.00  0.00    +0.000 C 
ATOM      6  C   UNL     1       8.285   9.518  17.894  0.00  0.00    +0.000 C 
BRANCH   6   7
ATOM      7  C   UNL     1       9.118  10.366  18.682  0.00  0.00    +0.000 A 
ATOM      8  C   UNL     1       9.221  10.484  20.060  0.00  0.00    +0.000 A 
ATOM      9  C   UNL     1      10.174  11.458  20.473  0.00  0.00    +0.000 A 
ATOM     10  C   UNL     1      10.787  12.059  19.400  0.00  0.00    +0.000 A 
ATOM     11  S   UNL     1      10.228  11.433  17.910  0.00  0.00    +0.000 S 
ENDBRANCH   6   7
ENDBRANCH   2   5
BRANCH   3  12
ATOM     12  C   UNL     1       5.049   6.510  17.017  0.00  0.00    +0.000 C 
BRANCH  12  13
ATOM     13  C   UNL     1       4.534   5.438  17.934  0.00  0.00    +0.000 A 
ATOM     14  C   UNL     1       3.178   5.348  18.263  0.00  0.00    +0.000 A 
ATOM     15  C   UNL     1       2.739   4.353  19.133  0.00  0.00    +0.000 A 
ATOM     16  C   UNL     1       3.676   3.475  19.649  0.00  0.00    +0.000 A 
ATOM     17  N   UNL     1       4.993   3.526  19.355  0.00  0.00    +0.000 NA
ATOM     18  C   UNL     1       5.391   4.505  18.512  0.00  0.00    +0.000 A 
ENDBRANCH  12  13
ENDBRANCH   3  12
TORSDOF 4
ENDMDL
MODEL 5
REMARK VINA RESULT:      -6.3      5.527      6.834
REMARK  Name = 
REMARK  4 active torsions:
REMARK  status: ('A' for Active; 'I' for Inactive)
REMARK    1  A    between atoms: C_2  and  C_3
REMARK    2  A    between atoms: C_4  and  C_5
REMARK    3  A    between atoms: N_10  and  C_11
REMARK    4  A    between atoms: C_11  and  C_12
REMARK                            x       y       z     vdW  Elec       q    Type
REMARK                         _______ _______ _______ _____ _____    ______ ____
ROOT
ATOM      1  O   UNL     1       6.507   4.344  18.816  0.00  0.00    +0.000 OA
ATOM      2  C   UNL     1       5.864   4.691  17.837  0.00  0.00    +0.000 C 
ATOM      3  N   UNL     1       4.615   5.256  17.882  0.00  0.00    +0.000 N 
ATOM      4  H   UNL     1       4.140   5.516  17.028  0.00  0.00    +0.000 HD
ENDROOT
BRANCH   2   5
ATOM      5  C   UNL     1       6.376   4.562  16.450  0.00  0.00    +0.000 C 
ATOM      6  C   UNL     1       5.538   4.329  15.427  0.00  0.00    +0.000 C 
BRANCH   6   7
ATOM      7  C   UNL     1       6.036   4.162  14.101  0.00  0.00    +0.000 A 
ATOM      8  C   UNL     1       5.535   3.410  13.048  0.00  0.00    +0.000 A 
ATOM      9  C   UNL     1       6.328   3.494  11.868  0.00  0.00    +0.000 A 
ATOM     10  C   UNL     1       7.416   4.317  12.042  0.00  0.00    +0.000 A 
ATOM     11  S   UNL     1       7.462   4.995  13.610  0.00  0.00    +0.000 S 
ENDBRANCH   6   7
ENDBRANCH   2   5
BRANCH   3  12
ATOM     12  C   UNL     1       3.925   5.514  19.128  0.00  0.00    +0.000 C 
BRANCH  12  13
ATOM     13  C   UNL     1       2.751   4.592  19.298  0.00  0.00    +0.000 A 
ATOM     14  C   UNL     1       2.187   4.353  20.555  0.00  0.00    +0.000 A 
ATOM     15  C   UNL     1       1.112   3.476  20.678  0.00  0.00    +0.000 A 
ATOM     16  C   UNL     1       0.634   2.862  19.534  0.00  0.00    +0.000 A 
ATOM     17  N   UNL     1       1.149   3.066  18.302  0.00  0.00    +0.000 NA
ATOM     18  C   UNL     1       2.195   3.919  18.214  0.00  0.00    +0.000 A 
ENDBRANCH  12  13
ENDBRANCH   3  12
TORSDOF 4
ENDMDL
MODEL 6
REMARK VINA RESULT:      -6.3      1.911      2.161
REMARK  Name = 
REMARK  4 active torsions:
REMARK  status: ('A' for Active; 'I' for Inactive)
REMARK    1  A    between atoms: C_2  and  C_3
REMARK    2  A    between atoms: C_4  and  C_5
REMARK    3  A    between atoms: N_10  and  C_11
REMARK    4  A    between atoms: C_11  and  C_12
REMARK                            x       y       z     vdW  Elec       q    Type
REMARK                         _______ _______ _______ _____ _____    ______ ____
ROOT
ATOM      1  O   UNL     1       6.563   7.587  16.751  0.00  0.00    +0.000 OA
ATOM      2  C   UNL     1       7.415   7.230  17.551  0.00  0.00    +0.000 C 
ATOM      3  N   UNL     1       7.738   5.924  17.819  0.00  0.00    +0.000 N 
ATOM      4  H   UNL     1       8.454   5.703  18.497  0.00  0.00    +0.000 HD
ENDROOT
BRANCH   2   5
ATOM      5  C   UNL     1       8.238   8.187  18.331  0.00  0.00    +0.000 C 
ATOM      6  C   UNL     1       8.331   9.474  17.962  0.00  0.00    +0.000 C 
BRANCH   6   7
ATOM      7  C   UNL     1       9.158  10.383  18.687  0.00  0.00    +0.000 A 
ATOM      8  C   UNL     1       9.372  10.498  20.052  0.00  0.00    +0.000 A 
ATOM      9  C   UNL     1      10.274  11.546  20.395  0.00  0.00    +0.000 A 
ATOM     10  C   UNL     1      10.738  12.204  19.281  0.00  0.00    +0.000 A 
ATOM     11  S   UNL     1      10.103  11.545  17.837  0.00  0.00    +0.000 S 
ENDBRANCH   6   7
ENDBRANCH   2   5
BRANCH   3  12
ATOM     12  C   UNL     1       7.091   4.813  17.153  0.00  0.00    +0.000 C 
BRANCH  12  13
ATOM     13  C   UNL     1       5.690   4.620  17.657  0.00  0.00    +0.000 A 
ATOM     14  C   UNL     1       5.363   4.821  19.001  0.00  0.00    +0.000 A 
ATOM     15  C   UNL     1       4.058   4.612  19.438  0.00  0.00    +0.000 A 
ATOM     16  C   UNL     1       3.115   4.207  18.509  0.00  0.00    +0.000 A 
ATOM     17  N   UNL     1       3.388   4.004  17.202  0.00  0.00    +0.000 NA
ATOM     18  C   UNL     1       4.665   4.209  16.809  0.00  0.00    +0.000 A 
ENDBRANCH  12  13
ENDBRANCH   3  12
TORSDOF 4
ENDMDL
MODEL 7
REMARK VINA RESULT:      -6.3      1.262      1.526
REMARK  Name = 
REMARK  4 active torsions:
REMARK  status: ('A' for Active; 'I' for Inactive)
REMARK    1  A    between atoms: C_2  and  C_3
REMARK    2  A    between atoms: C_4  and  C_5
REMARK    3  A    between atoms: N_10  and  C_11
REMARK    4  A    between atoms: C_11  and  C_12
REMARK                            x       y       z     vdW  Elec       q    Type
REMARK                         _______ _______ _______ _____ _____    ______ ____
ROOT
ATOM      1  O   UNL     1       7.862   5.769  17.782  0.00  0.00    +0.000 OA
ATOM      2  C   UNL     1       7.570   6.955  17.740  0.00  0.00    +0.000 C 
ATOM      3  N   UNL     1       6.521   7.477  17.027  0.00  0.00    +0.000 N 
ATOM      4  H   UNL     1       6.340   8.471  17.036  0.00  0.00    +0.000 HD
ENDROOT
BRANCH   2   5
ATOM      5  C   UNL     1       8.316   7.995  18.490  0.00  0.00    +0.000 C 
ATOM      6  C   UNL     1       8.346   9.265  18.056  0.00  0.00    +0.000 C 
BRANCH   6   7
ATOM      7  C   UNL     1       9.100  10.255  18.754  0.00  0.00    +0.000 A 
ATOM      8  C   UNL     1       9.277  10.445  20.117  0.00  0.00    +0.000 A 
ATOM      9  C   UNL     1      10.106  11.561  20.427  0.00  0.00    +0.000 A 
ATOM     10  C   UNL     1      10.553  12.196  19.293  0.00  0.00    +0.000 A 
ATOM     11  S   UNL     1       9.991  11.435  17.870  0.00  0.00    +0.000 S 
ENDBRANCH   6   7
ENDBRANCH   2   5
BRANCH   3  12
ATOM     12  C   UNL     1       5.627   6.649  16.244  0.00  0.00    +0.000 C 
BRANCH  12  13
ATOM     13  C   UNL     1       4.441   6.213  17.056  0.00  0.00    +0.000 A 
ATOM     14  C   UNL     1       3.616   7.141  17.700  0.00  0.00    +0.000 A 
ATOM     15  C   UNL     1       2.538   6.700  18.462  0.00  0.00    +0.000 A 
ATOM     16  C   UNL     1       2.318   5.336  18.556  0.00  0.00    +0.000 A 
ATOM     17  N   UNL     1       3.088   4.408  17.950  0.00  0.00    +0.000 NA
ATOM     18  C   UNL     1       4.132   4.866  17.221  0.00  0.00    +0.000 A 
ENDBRANCH  12  13
ENDBRANCH   3  12
TORSDOF 4
ENDMDL
MODEL 8
REMARK VINA RESULT:      -6.2      1.517      1.934
REMARK  Name = 
REMARK  4 active torsions:
REMARK  status: ('A' for Active; 'I' for Inactive)
REMARK    1  A    between atoms: C_2  and  C_3
REMARK    2  A    between atoms: C_4  and  C_5
REMARK    3  A    between atoms: N_10  and  C_11
REMARK    4  A    between atoms: C_11  and  C_12
REMARK                            x       y       z     vdW  Elec       q    Type
REMARK                         _______ _______ _______ _____ _____    ______ ____
ROOT
ATOM      1  O   UNL     1       7.866   5.908  17.118  0.00  0.00    +0.000 OA
ATOM      2  C   UNL     1       7.364   6.999  17.344  0.00  0.00    +0.000 C 
ATOM      3  N   UNL     1       6.122   7.392  16.915  0.00  0.00    +0.000 N 
ATOM      4  H   UNL     1       5.772   8.313  17.139  0.00  0.00    +0.000 HD
ENDROOT
BRANCH   2   5
ATOM      5  C   UNL     1       8.042   8.046  18.147  0.00  0.00    +0.000 C 
ATOM      6  C   UNL     1       8.120   9.310  17.702  0.00  0.00    +0.000 C 
BRANCH   6   7
ATOM      7  C   UNL     1       8.810  10.306  18.455  0.00  0.00    +0.000 A 
ATOM      8  C   UNL     1       9.468  10.208  19.672  0.00  0.00    +0.000 A 
ATOM      9  C   UNL     1      10.035  11.440  20.108  0.00  0.00    +0.000 A 
ATOM     10  C   UNL     1       9.806  12.453  19.208  0.00  0.00    +0.000 A 
ATOM     11  S   UNL     1       8.932  11.911  17.843  0.00  0.00    +0.000 S 
ENDBRANCH   6   7
ENDBRANCH   2   5
BRANCH   3  12
ATOM     12  C   UNL     1       5.258   6.525  16.143  0.00  0.00    +0.000 C 
BRANCH  12  13
ATOM     13  C   UNL     1       4.501   5.581  17.034  0.00  0.00    +0.000 A 
ATOM     14  C   UNL     1       4.367   4.226  16.716  0.00  0.00    +0.000 A 
ATOM     15  C   UNL     1       3.641   3.384  17.554  0.00  0.00    +0.000 A 
ATOM     16  C   UNL     1       3.070   3.928  18.691  0.00  0.00    +0.000 A 
ATOM     17  N   UNL     1       3.177   5.229  19.036  0.00  0.00    +0.000 NA
ATOM     18  C   UNL     1       3.883   6.024  18.200  0.00  0.00    +0.000 A 
ENDBRANCH  12  13
ENDBRANCH   3  12
TORSDOF 4
ENDMDL
MODEL 9
REMARK VINA RESULT:      -6.2      6.149      7.611
REMARK  Name = 
REMARK  4 active torsions:
REMARK  status: ('A' for Active; 'I' for Inactive)
REMARK    1  A    between atoms: C_2  and  C_3
REMARK    2  A    between atoms: C_4  and  C_5
REMARK    3  A    between atoms: N_10  and  C_11
REMARK    4  A    between atoms: C_11  and  C_12
REMARK                            x       y       z     vdW  Elec       q    Type
REMARK                         _______ _______ _______ _____ _____    ______ ____
ROOT
ATOM      1  O   UNL     1       2.203   8.853  17.390  0.00  0.00    +0.000 OA
ATOM      2  C   UNL     1       1.895   8.642  18.554  0.00  0.00    +0.000 C 
ATOM      3  N   UNL     1       2.213   7.505  19.253  0.00  0.00    +0.000 N 
ATOM      4  H   UNL     1       1.922   7.398  20.214  0.00  0.00    +0.000 HD
ENDROOT
BRANCH   2   5
ATOM      5  C   UNL     1       1.143   9.620  19.378  0.00  0.00    +0.000 C 
ATOM      6  C   UNL     1       0.554   9.243  20.524  0.00  0.00    +0.000 C 
BRANCH   6   7
ATOM      7  C   UNL     1      -0.205  10.174  21.293  0.00  0.00    +0.000 A 
ATOM      8  C   UNL     1      -0.470  10.200  22.654  0.00  0.00    +0.000 A 
ATOM      9  C   UNL     1      -1.283  11.301  23.050  0.00  0.00    +0.000 A 
ATOM     10  C   UNL     1      -1.615  12.099  21.982  0.00  0.00    +0.000 A 
ATOM     11  S   UNL     1      -0.932  11.531  20.521  0.00  0.00    +0.000 S 
ENDBRANCH   6   7
ENDBRANCH   2   5
BRANCH   3  12
ATOM     12  C   UNL     1       2.975   6.422  18.667  0.00  0.00    +0.000 C 
BRANCH  12  13
ATOM     13  C   UNL     1       2.244   5.116  18.790  0.00  0.00    +0.000 A 
ATOM     14  C   UNL     1       1.598   4.750  19.974  0.00  0.00    +0.000 A 
ATOM     15  C   UNL     1       0.947   3.522  20.059  0.00  0.00    +0.000 A 
ATOM     16  C   UNL     1       0.964   2.695  18.950  0.00  0.00    +0.000 A 
ATOM     17  N   UNL     1       1.574   3.011  17.788  0.00  0.00    +0.000 NA
ATOM     18  C   UNL     1       2.202   4.207  17.736  0.00  0.00    +0.000 A 
ENDBRANCH  12  13
ENDBRANCH   3  12
TORSDOF 4
ENDMDL
