MODEL 1
REMARK VINA RESULT:      -8.2      0.000      0.000
REMARK  Name = 
REMARK  7 active torsions:
REMARK  status: ('A' for Active; 'I' for Inactive)
REMARK    1  A    between atoms: C_1  and  O_2
REMARK    2  A    between atoms: O_2  and  C_3
REMARK    3  A    between atoms: C_3  and  C_5
REMARK    4  A    between atoms: C_7  and  C_8
REMARK    5  A    between atoms: C_8  and  N_9
REMARK    6  A    between atoms: C_11  and  N_12
REMARK    7  A    between atoms: C_13  and  C_15
REMARK                            x       y       z     vdW  Elec       q    Type
REMARK                         _______ _______ _______ _____ _____    ______ ____
ROOT
ATOM      1  C   UNL     1       6.508   4.877  15.816  0.00  0.00    +0.000 A 
ATOM      2  C   UNL     1       7.373   5.482  16.736  0.00  0.00    +0.000 A 
ATOM      3  C   UNL     1       7.017   5.589  18.083  0.00  0.00    +0.000 A 
ATOM      4  C   UNL     1       5.766   5.113  18.493  0.00  0.00    +0.000 A 
ATOM      5  C   UNL     1       4.876   4.515  17.595  0.00  0.00    +0.000 A 
ATOM      6  C   UNL     1       5.261   4.391  16.249  0.00  0.00    +0.000 A 
ENDROOT
BRANCH   5   7
ATOM      7  N   UNL     1       3.616   4.005  17.994  0.00  0.00    +0.000 N 
ATOM      8  C   UNL     1       2.484   4.758  18.271  0.00  0.00    +0.000 C 
ATOM      9  O   UNL     1       2.395   5.979  18.123  0.00  0.00    +0.000 OA
ATOM     10  H   UNL     1       3.511   2.997  17.977  0.00  0.00    +0.000 HD
BRANCH   8  11
ATOM     11  C   UNL     1       1.277   3.933  18.734  0.00  0.00    +0.000 C 
ATOM     12  C   UNL     1       1.526   2.420  18.673  0.00  0.00    +0.000 C 
ATOM     13  C   UNL     1       2.384   1.887  19.819  0.00  0.00    +0.000 C 
ATOM     14  C   UNL     1       1.896   2.335  21.192  0.00  0.00    +0.000 C 
ATOM     15  C   UNL     1       1.674   3.839  21.271  0.00  0.00    +0.000 C 
ATOM     16  C   UNL     1       0.794   4.356  20.133  0.00  0.00    +0.000 C 
ENDBRANCH   8  11
ENDBRANCH   5   7
BRANCH   1  17
ATOM     17  C   UNL     1       6.907   4.717  14.390  0.00  0.00    +0.000 C 
ATOM     18  O   UNL     1       7.773   5.384  13.846  0.00  0.00    +0.000 OA
BRANCH  17  20
ATOM     19  C   UNL     1       6.368   3.563  12.410  0.00  0.00    +0.000 C 
ATOM     20  O   UNL     1       6.158   3.751  13.806  0.00  0.00    +0.000 OA
ENDBRANCH  17  20
ENDBRANCH   1  17
BRANCH   3  21
ATOM     21  C   UNL     1       7.983   6.185  19.073  0.00  0.00    +0.000 C 
BRANCH  21  22
ATOM     22  N   UNL     1       7.997   5.411  20.310  0.00  0.00    +0.000 NA
ATOM     23  H   UNL     1       8.113   4.426  20.076  0.00  0.00    +0.000 HD
ATOM     24  H   UNL     1       7.092   5.494  20.767  0.00  0.00    +0.000 HD
ENDBRANCH  21  22
ENDBRANCH   3  21
TORSDOF 6
ENDMDL
MODEL 2
REMARK VINA RESULT:      -8.0      1.207      1.866
REMARK  Name = 
REMARK  7 active torsions:
REMARK  status: ('A' for Active; 'I' for Inactive)
REMARK    1  A    between atoms: C_1  and  O_2
REMARK    2  A    between atoms: O_2  and  C_3
REMARK    3  A    between atoms: C_3  and  C_5
REMARK    4  A    between atoms: C_7  and  C_8
REMARK    5  A    between atoms: C_8  and  N_9
REMARK    6  A    between atoms: C_11  and  N_12
REMARK    7  A    between atoms: C_13  and  C_15
REMARK                            x       y       z     vdW  Elec       q    Type
REMARK                         _______ _______ _______ _____ _____    ______ ____
ROOT
ATOM      1  C   UNL     1       6.556   4.748  16.035  0.00  0.00    +0.000 A 
ATOM      2  C   UNL     1       7.421   5.423  16.905  0.00  0.00    +0.000 A 
ATOM      3  C   UNL     1       7.169   5.453  18.278  0.00  0.00    +0.000 A 
ATOM      4  C   UNL     1       6.017   4.827  18.769  0.00  0.00    +0.000 A 
ATOM      5  C   UNL     1       5.128   4.155  17.923  0.00  0.00    +0.000 A 
ATOM      6  C   UNL     1       5.411   4.111  16.548  0.00  0.00    +0.000 A 
ENDROOT
BRANCH   5   7
ATOM      7  N   UNL     1       3.970   3.495  18.403  0.00  0.00    +0.000 N 
ATOM      8  C   UNL     1       3.948   2.460  19.327  0.00  0.00    +0.000 C 
ATOM      9  O   UNL     1       4.935   2.028  19.926  0.00  0.00    +0.000 OA
ATOM     10  H   UNL     1       3.078   3.882  18.118  0.00  0.00    +0.000 HD
BRANCH   8  11
ATOM     11  C   UNL     1       2.548   1.903  19.615  0.00  0.00    +0.000 C 
ATOM     12  C   UNL     1       2.064   2.205  21.040  0.00  0.00    +0.000 C 
ATOM     13  C   UNL     1       1.580   3.640  21.239  0.00  0.00    +0.000 C 
ATOM     14  C   UNL     1       0.575   4.085  20.183  0.00  0.00    +0.000 C 
ATOM     15  C   UNL     1       1.059   3.817  18.765  0.00  0.00    +0.000 C 
ATOM     16  C   UNL     1       1.517   2.371  18.572  0.00  0.00    +0.000 C 
ENDBRANCH   8  11
ENDBRANCH   5   7
BRANCH   1  17
ATOM     17  C   UNL     1       6.851   4.672  14.577  0.00  0.00    +0.000 C 
ATOM     18  O   UNL     1       7.661   5.387  14.008  0.00  0.00    +0.000 OA
BRANCH  17  20
ATOM     19  C   UNL     1       6.261   3.544  12.596  0.00  0.00    +0.000 C 
ATOM     20  O   UNL     1       6.079   3.721  13.998  0.00  0.00    +0.000 OA
ENDBRANCH  17  20
ENDBRANCH   1  17
BRANCH   3  21
ATOM     21  C   UNL     1       8.141   6.129  19.209  0.00  0.00    +0.000 C 
BRANCH  21  22
ATOM     22  N   UNL     1       8.174   5.452  20.501  0.00  0.00    +0.000 NA
ATOM     23  H   UNL     1       7.781   6.075  21.205  0.00  0.00    +0.000 HD
ATOM     24  H   UNL     1       9.142   5.290  20.769  0.00  0.00    +0.000 HD
ENDBRANCH  21  22
ENDBRANCH   3  21
TORSDOF 6
ENDMDL
MODEL 3
REMARK VINA RESULT:      -7.9      2.363      3.639
REMARK  Name = 
REMARK  7 active torsions:
REMARK  status: ('A' for Active; 'I' for Inactive)
REMARK    1  A    between atoms: C_1  and  O_2
REMARK    2  A    between atoms: O_2  and  C_3
REMARK    3  A    between atoms: C_3  and  C_5
REMARK    4  A    between atoms: C_7  and  C_8
REMARK    5  A    between atoms: C_8  and  N_9
REMARK    6  A    between atoms: C_11  and  N_12
REMARK    7  A    between atoms: C_13  and  C_15
REMARK                            x       y       z     vdW  Elec       q    Type
REMARK                         _______ _______ _______ _____ _____    ______ ____
ROOT
ATOM      1  C   UNL     1       6.931   5.712  17.069  0.00  0.00    +0.000 A 
ATOM      2  C   UNL     1       7.240   5.553  15.712  0.00  0.00    +0.000 A 
ATOM      3  C   UNL     1       6.577   4.599  14.938  0.00  0.00    +0.000 A 
ATOM      4  C   UNL     1       5.622   3.777  15.547  0.00  0.00    +0.000 A 
ATOM      5  C   UNL     1       5.300   3.904  16.902  0.00  0.00    +0.000 A 
ATOM      6  C   UNL     1       5.956   4.887  17.660  0.00  0.00    +0.000 A 
ENDROOT
BRANCH   5   7
ATOM      7  N   UNL     1       4.319   3.099  17.532  0.00  0.00    +0.000 N 
ATOM      8  C   UNL     1       2.998   3.457  17.762  0.00  0.00    +0.000 C 
ATOM      9  O   UNL     1       2.471   4.501  17.370  0.00  0.00    +0.000 OA
ATOM     10  H   UNL     1       4.583   2.143  17.741  0.00  0.00    +0.000 HD
BRANCH   8  11
ATOM     11  C   UNL     1       2.181   2.400  18.516  0.00  0.00    +0.000 C 
ATOM     12  C   UNL     1       2.943   1.783  19.697  0.00  0.00    +0.000 C 
ATOM     13  C   UNL     1       3.001   2.680  20.933  0.00  0.00    +0.000 C 
ATOM     14  C   UNL     1       1.637   3.219  21.346  0.00  0.00    +0.000 C 
ATOM     15  C   UNL     1       0.886   3.860  20.187  0.00  0.00    +0.000 C 
ATOM     16  C   UNL     1       0.813   2.944  18.966  0.00  0.00    +0.000 C 
ENDBRANCH   8  11
ENDBRANCH   5   7
BRANCH   1  17
ATOM     17  C   UNL     1       7.600   6.763  17.883  0.00  0.00    +0.000 C 
ATOM     18  O   UNL     1       8.097   6.562  18.980  0.00  0.00    +0.000 OA
BRANCH  17  20
ATOM     19  C   UNL     1       8.125   9.059  17.924  0.00  0.00    +0.000 C 
ATOM     20  O   UNL     1       7.551   7.953  17.234  0.00  0.00    +0.000 OA
ENDBRANCH  17  20
ENDBRANCH   1  17
BRANCH   3  21
ATOM     21  C   UNL     1       6.876   4.482  13.466  0.00  0.00    +0.000 C 
BRANCH  21  22
ATOM     22  N   UNL     1       7.872   5.468  13.061  0.00  0.00    +0.000 NA
ATOM     23  H   UNL     1       8.344   5.128  12.224  0.00  0.00    +0.000 HD
ATOM     24  H   UNL     1       8.584   5.539  13.784  0.00  0.00    +0.000 HD
ENDBRANCH  21  22
ENDBRANCH   3  21
TORSDOF 6
ENDMDL
MODEL 4
REMARK VINA RESULT:      -7.7      1.319      1.562
REMARK  Name = 
REMARK  7 active torsions:
REMARK  status: ('A' for Active; 'I' for Inactive)
REMARK    1  A    between atoms: C_1  and  O_2
REMARK    2  A    between atoms: O_2  and  C_3
REMARK    3  A    between atoms: C_3  and  C_5
REMARK    4  A    between atoms: C_7  and  C_8
REMARK    5  A    between atoms: C_8  and  N_9
REMARK    6  A    between atoms: C_11  and  N_12
REMARK    7  A    between atoms: C_13  and  C_15
REMARK                            x       y       z     vdW  Elec       q    Type
REMARK                         _______ _______ _______ _____ _____    ______ ____
ROOT
ATOM      1  C   UNL     1       6.512   4.765  15.353  0.00  0.00    +0.000 A 
ATOM      2  C   UNL     1       7.149   5.775  16.085  0.00  0.00    +0.000 A 
ATOM      3  C   UNL     1       6.904   5.928  17.451  0.00  0.00    +0.000 A 
ATOM      4  C   UNL     1       5.982   5.077  18.073  0.00  0.00    +0.000 A 
ATOM      5  C   UNL     1       5.321   4.067  17.367  0.00  0.00    +0.000 A 
ATOM      6  C   UNL     1       5.600   3.909  15.999  0.00  0.00    +0.000 A 
ENDROOT
BRANCH   5   7
ATOM      7  N   UNL     1       4.404   3.180  17.982  0.00  0.00    +0.000 N 
ATOM      8  C   UNL     1       3.037   3.133  17.752  0.00  0.00    +0.000 C 
ATOM      9  O   UNL     1       2.440   3.807  16.909  0.00  0.00    +0.000 OA
ATOM     10  H   UNL     1       4.802   2.452  18.566  0.00  0.00    +0.000 HD
BRANCH   8  11
ATOM     11  C   UNL     1       2.289   2.103  18.606  0.00  0.00    +0.000 C 
ATOM     12  C   UNL     1       3.028   1.750  19.904  0.00  0.00    +0.000 C 
ATOM     13  C   UNL     1       2.901   2.811  20.997  0.00  0.00    +0.000 C 
ATOM     14  C   UNL     1       1.460   3.238  21.252  0.00  0.00    +0.000 C 
ATOM     15  C   UNL     1       0.728   3.618  19.973  0.00  0.00    +0.000 C 
ATOM     16  C   UNL     1       0.841   2.538  18.897  0.00  0.00    +0.000 C 
ENDBRANCH   8  11
ENDBRANCH   5   7
BRANCH   1  17
ATOM     17  C   UNL     1       6.811   4.569  13.908  0.00  0.00    +0.000 C 
ATOM     18  O   UNL     1       7.551   5.292  13.261  0.00  0.00    +0.000 OA
BRANCH  17  20
ATOM     19  C   UNL     1       6.224   3.271  12.033  0.00  0.00    +0.000 C 
ATOM     20  O   UNL     1       6.128   3.497  13.435  0.00  0.00    +0.000 OA
ENDBRANCH  17  20
ENDBRANCH   1  17
BRANCH   3  21
ATOM     21  C   UNL     1       7.643   6.978  18.237  0.00  0.00    +0.000 C 
BRANCH  21  22
ATOM     22  N   UNL     1       7.776   8.206  17.461  0.00  0.00    +0.000 NA
ATOM     23  H   UNL     1       7.794   7.965  16.471  0.00  0.00    +0.000 HD
ATOM     24  H   UNL     1       8.674   8.638  17.668  0.00  0.00    +0.000 HD
ENDBRANCH  21  22
ENDBRANCH   3  21
TORSDOF 6
ENDMDL
MODEL 5
REMARK VINA RESULT:      -7.7      2.482      3.904
REMARK  Name = 
REMARK  7 active torsions:
REMARK  status: ('A' for Active; 'I' for Inactive)
REMARK    1  A    between atoms: C_1  and  O_2
REMARK    2  A    between atoms: O_2  and  C_3
REMARK    3  A    between atoms: C_3  and  C_5
REMARK    4  A    between atoms: C_7  and  C_8
REMARK    5  A    between atoms: C_8  and  N_9
REMARK    6  A    between atoms: C_11  and  N_12
REMARK    7  A    between atoms: C_13  and  C_15
REMARK                            x       y       z     vdW  Elec       q    Type
REMARK                         _______ _______ _______ _____ _____    ______ ____
ROOT
ATOM      1  C   UNL     1       6.827   5.797  17.258  0.00  0.00    +0.000 A 
ATOM      2  C   UNL     1       7.076   5.475  15.918  0.00  0.00    +0.000 A 
ATOM      3  C   UNL     1       6.306   4.512  15.262  0.00  0.00    +0.000 A 
ATOM      4  C   UNL     1       5.303   3.846  15.976  0.00  0.00    +0.000 A 
ATOM      5  C   UNL     1       5.039   4.136  17.318  0.00  0.00    +0.000 A 
ATOM      6  C   UNL     1       5.804   5.127  17.955  0.00  0.00    +0.000 A 
ENDROOT
BRANCH   5   7
ATOM      7  N   UNL     1       4.013   3.491  18.051  0.00  0.00    +0.000 N 
ATOM      8  C   UNL     1       4.177   2.791  19.238  0.00  0.00    +0.000 C 
ATOM      9  O   UNL     1       5.234   2.707  19.867  0.00  0.00    +0.000 OA
ATOM     10  H   UNL     1       3.064   3.642  17.729  0.00  0.00    +0.000 HD
BRANCH   8  11
ATOM     11  C   UNL     1       2.890   2.152  19.775  0.00  0.00    +0.000 C 
ATOM     12  C   UNL     1       2.576   2.559  21.221  0.00  0.00    +0.000 C 
ATOM     13  C   UNL     1       1.986   3.962  21.356  0.00  0.00    +0.000 C 
ATOM     14  C   UNL     1       0.808   4.208  20.420  0.00  0.00    +0.000 C 
ATOM     15  C   UNL     1       1.120   3.835  18.977  0.00  0.00    +0.000 C 
ATOM     16  C   UNL     1       1.687   2.421  18.854  0.00  0.00    +0.000 C 
ENDBRANCH   8  11
ENDBRANCH   5   7
BRANCH   1  17
ATOM     17  C   UNL     1       7.614   6.859  17.943  0.00  0.00    +0.000 C 
ATOM     18  O   UNL     1       8.224   6.689  18.987  0.00  0.00    +0.000 OA
BRANCH  17  20
ATOM     19  C   UNL     1       8.110   9.160  17.873  0.00  0.00    +0.000 C 
ATOM     20  O   UNL     1       7.526   8.020  17.249  0.00  0.00    +0.000 OA
ENDBRANCH  17  20
ENDBRANCH   1  17
BRANCH   3  21
ATOM     21  C   UNL     1       6.544   4.221  13.804  0.00  0.00    +0.000 C 
BRANCH  21  22
ATOM     22  N   UNL     1       7.492   5.174  13.235  0.00  0.00    +0.000 NA
ATOM     23  H   UNL     1       7.111   6.113  13.339  0.00  0.00    +0.000 HD
ATOM     24  H   UNL     1       7.575   5.006  12.235  0.00  0.00    +0.000 HD
ENDBRANCH  21  22
ENDBRANCH   3  21
TORSDOF 6
ENDMDL
MODEL 6
REMARK VINA RESULT:      -7.6      1.434      2.037
REMARK  Name = 
REMARK  7 active torsions:
REMARK  status: ('A' for Active; 'I' for Inactive)
REMARK    1  A    between atoms: C_1  and  O_2
REMARK    2  A    between atoms: O_2  and  C_3
REMARK    3  A    between atoms: C_3  and  C_5
REMARK    4  A    between atoms: C_7  and  C_8
REMARK    5  A    between atoms: C_8  and  N_9
REMARK    6  A    between atoms: C_11  and  N_12
REMARK    7  A    between atoms: C_13  and  C_15
REMARK                            x       y       z     vdW  Elec       q    Type
REMARK                         _______ _______ _______ _____ _____    ______ ____
ROOT
ATOM      1  C   UNL     1       6.745   5.052  15.607  0.00  0.00    +0.000 A 
ATOM      2  C   UNL     1       7.395   6.135  16.211  0.00  0.00    +0.000 A 
ATOM      3  C   UNL     1       7.237   6.391  17.575  0.00  0.00    +0.000 A 
ATOM      4  C   UNL     1       6.389   5.567  18.324  0.00  0.00    +0.000 A 
ATOM      5  C   UNL     1       5.716   4.485  17.747  0.00  0.00    +0.000 A 
ATOM      6  C   UNL     1       5.908   4.225  16.380  0.00  0.00    +0.000 A 
ENDROOT
BRANCH   5   7
ATOM      7  N   UNL     1       4.873   3.625  18.493  0.00  0.00    +0.000 N 
ATOM      8  C   UNL     1       4.037   4.005  19.533  0.00  0.00    +0.000 C 
ATOM      9  O   UNL     1       3.849   5.167  19.898  0.00  0.00    +0.000 OA
ATOM     10  H   UNL     1       4.804   2.667  18.168  0.00  0.00    +0.000 HD
BRANCH   8  11
ATOM     11  C   UNL     1       3.282   2.843  20.191  0.00  0.00    +0.000 C 
ATOM     12  C   UNL     1       2.101   3.308  21.054  0.00  0.00    +0.000 C 
ATOM     13  C   UNL     1       0.866   3.710  20.248  0.00  0.00    +0.000 C 
ATOM     14  C   UNL     1       0.453   2.662  19.222  0.00  0.00    +0.000 C 
ATOM     15  C   UNL     1       1.613   2.216  18.342  0.00  0.00    +0.000 C 
ATOM     16  C   UNL     1       2.832   1.793  19.160  0.00  0.00    +0.000 C 
ENDBRANCH   8  11
ENDBRANCH   5   7
BRANCH   1  17
ATOM     17  C   UNL     1       6.952   4.749  14.165  0.00  0.00    +0.000 C 
ATOM     18  O   UNL     1       7.715   5.370  13.441  0.00  0.00    +0.000 OA
BRANCH  17  20
ATOM     19  C   UNL     1       6.090   3.462  12.391  0.00  0.00    +0.000 C 
ATOM     20  O   UNL     1       6.162   3.713  13.791  0.00  0.00    +0.000 OA
ENDBRANCH  17  20
ENDBRANCH   1  17
BRANCH   3  21
ATOM     21  C   UNL     1       7.991   7.521  18.223  0.00  0.00    +0.000 C 
BRANCH  21  22
ATOM     22  N   UNL     1       7.852   8.748  17.445  0.00  0.00    +0.000 NA
ATOM     23  H   UNL     1       8.595   9.391  17.716  0.00  0.00    +0.000 HD
ATOM     24  H   UNL     1       6.975   9.202  17.691  0.00  0.00    +0.000 HD
ENDBRANCH  21  22
ENDBRANCH   3  21
TORSDOF 6
ENDMDL
MODEL 7
REMARK VINA RESULT:      -7.5      2.356      3.721
REMARK  Name = 
REMARK  7 active torsions:
REMARK  status: ('A' for Active; 'I' for Inactive)
REMARK    1  A    between atoms: C_1  and  O_2
REMARK    2  A    between atoms: O_2  and  C_3
REMARK    3  A    between atoms: C_3  and  C_5
REMARK    4  A    between atoms: C_7  and  C_8
REMARK    5  A    between atoms: C_8  and  N_9
REMARK    6  A    between atoms: C_11  and  N_12
REMARK    7  A    between atoms: C_13  and  C_15
REMARK                            x       y       z     vdW  Elec       q    Type
REMARK                         _______ _______ _______ _____ _____    ______ ____
ROOT
ATOM      1  C   UNL     1       6.900   6.415  17.152  0.00  0.00    +0.000 A 
ATOM      2  C   UNL     1       7.276   5.875  15.916  0.00  0.00    +0.000 A 
ATOM      3  C   UNL     1       6.388   5.085  15.184  0.00  0.00    +0.000 A 
ATOM      4  C   UNL     1       5.125   4.811  15.721  0.00  0.00    +0.000 A 
ATOM      5  C   UNL     1       4.724   5.325  16.958  0.00  0.00    +0.000 A 
ATOM      6  C   UNL     1       5.620   6.141  17.669  0.00  0.00    +0.000 A 
ENDROOT
BRANCH   5   7
ATOM      7  N   UNL     1       3.442   5.081  17.507  0.00  0.00    +0.000 N 
ATOM      8  C   UNL     1       2.933   3.840  17.867  0.00  0.00    +0.000 C 
ATOM      9  O   UNL     1       3.566   2.783  17.835  0.00  0.00    +0.000 OA
ATOM     10  H   UNL     1       2.890   5.896  17.750  0.00  0.00    +0.000 HD
BRANCH   8  11
ATOM     11  C   UNL     1       1.491   3.877  18.386  0.00  0.00    +0.000 C 
ATOM     12  C   UNL     1       0.966   2.495  18.798  0.00  0.00    +0.000 C 
ATOM     13  C   UNL     1       1.486   2.014  20.152  0.00  0.00    +0.000 C 
ATOM     14  C   UNL     1       1.318   3.048  21.260  0.00  0.00    +0.000 C 
ATOM     15  C   UNL     1       1.862   4.415  20.870  0.00  0.00    +0.000 C 
ATOM     16  C   UNL     1       1.316   4.896  19.526  0.00  0.00    +0.000 C 
ENDBRANCH   8  11
ENDBRANCH   5   7
BRANCH   1  17
ATOM     17  C   UNL     1       7.828   7.299  17.910  0.00  0.00    +0.000 C 
ATOM     18  O   UNL     1       8.407   6.963  18.931  0.00  0.00    +0.000 OA
BRANCH  17  20
ATOM     19  C   UNL     1       8.427   9.567  18.111  0.00  0.00    +0.000 C 
ATOM     20  O   UNL     1       7.906   8.512  17.309  0.00  0.00    +0.000 OA
ENDBRANCH  17  20
ENDBRANCH   1  17
BRANCH   3  21
ATOM     21  C   UNL     1       6.784   4.563  13.828  0.00  0.00    +0.000 C 
BRANCH  21  22
ATOM     22  N   UNL     1       6.198   3.248  13.589  0.00  0.00    +0.000 NA
ATOM     23  H   UNL     1       6.317   3.012  12.605  0.00  0.00    +0.000 HD
ATOM     24  H   UNL     1       5.196   3.293  13.755  0.00  0.00    +0.000 HD
ENDBRANCH  21  22
ENDBRANCH   3  21
TORSDOF 6
ENDMDL
MODEL 8
REMARK VINA RESULT:      -7.4      2.186      3.395
REMARK  Name = 
REMARK  7 active torsions:
REMARK  status: ('A' for Active; 'I' for Inactive)
REMARK    1  A    between atoms: C_1  and  O_2
REMARK    2  A    between atoms: O_2  and  C_3
REMARK    3  A    between atoms: C_3  and  C_5
REMARK    4  A    between atoms: C_7  and  C_8
REMARK    5  A    between atoms: C_8  and  N_9
REMARK    6  A    between atoms: C_11  and  N_12
REMARK    7  A    between atoms: C_13  and  C_15
REMARK                            x       y       z     vdW  Elec       q    Type
REMARK                         _______ _______ _______ _____ _____    ______ ____
ROOT
ATOM      1  C   UNL     1       6.855   5.335  17.965  0.00  0.00    +0.000 A 
ATOM      2  C   UNL     1       7.228   5.201  16.622  0.00  0.00    +0.000 A 
ATOM      3  C   UNL     1       6.353   4.635  15.693  0.00  0.00    +0.000 A 
ATOM      4  C   UNL     1       5.107   4.170  16.132  0.00  0.00    +0.000 A 
ATOM      5  C   UNL     1       4.711   4.279  17.469  0.00  0.00    +0.000 A 
ATOM      6  C   UNL     1       5.593   4.876  18.385  0.00  0.00    +0.000 A 
ENDROOT
BRANCH   5   7
ATOM      7  N   UNL     1       3.446   3.838  17.928  0.00  0.00    +0.000 N 
ATOM      8  C   UNL     1       2.354   4.647  18.207  0.00  0.00    +0.000 C 
ATOM      9  O   UNL     1       2.308   5.863  18.009  0.00  0.00    +0.000 OA
ATOM     10  H   UNL     1       3.301   2.835  17.959  0.00  0.00    +0.000 HD
BRANCH   8  11
ATOM     11  C   UNL     1       1.131   3.892  18.742  0.00  0.00    +0.000 C 
ATOM     12  C   UNL     1       1.289   2.367  18.672  0.00  0.00    +0.000 C 
ATOM     13  C   UNL     1       2.181   1.786  19.768  0.00  0.00    +0.000 C 
ATOM     14  C   UNL     1       1.800   2.262  21.166  0.00  0.00    +0.000 C 
ATOM     15  C   UNL     1       1.669   3.776  21.252  0.00  0.00    +0.000 C 
ATOM     16  C   UNL     1       0.755   4.342  20.166  0.00  0.00    +0.000 C 
ENDBRANCH   8  11
ENDBRANCH   5   7
BRANCH   1  17
ATOM     17  C   UNL     1       7.768   5.984  18.946  0.00  0.00    +0.000 C 
ATOM     18  O   UNL     1       7.892   5.620  20.105  0.00  0.00    +0.000 OA
BRANCH  17  20
ATOM     19  C   UNL     1       7.564   8.038  17.812  0.00  0.00    +0.000 C 
ATOM     20  O   UNL     1       8.405   7.030  18.365  0.00  0.00    +0.000 OA
ENDBRANCH  17  20
ENDBRANCH   1  17
BRANCH   3  21
ATOM     21  C   UNL     1       6.743   4.554  14.241  0.00  0.00    +0.000 C 
BRANCH  21  22
ATOM     22  N   UNL     1       7.825   5.487  13.944  0.00  0.00    +0.000 NA
ATOM     23  H   UNL     1       7.878   5.614  12.934  0.00  0.00    +0.000 HD
ATOM     24  H   UNL     1       8.710   5.074  14.229  0.00  0.00    +0.000 HD
ENDBRANCH  21  22
ENDBRANCH   3  21
TORSDOF 6
ENDMDL
MODEL 9
REMARK VINA RESULT:      -7.4      1.398      1.398
REMARK  Name = 
REMARK  7 active torsions:
REMARK  status: ('A' for Active; 'I' for Inactive)
REMARK    1  A    between atoms: C_1  and  O_2
REMARK    2  A    between atoms: O_2  and  C_3
REMARK    3  A    between atoms: C_3  and  C_5
REMARK    4  A    between atoms: C_7  and  C_8
REMARK    5  A    between atoms: C_8  and  N_9
REMARK    6  A    between atoms: C_11  and  N_12
REMARK    7  A    between atoms: C_13  and  C_15
REMARK                            x       y       z     vdW  Elec       q    Type
REMARK                         _______ _______ _______ _____ _____    ______ ____
ROOT
ATOM      1  C   UNL     1       6.476   5.302  15.391  0.00  0.00    +0.000 A 
ATOM      2  C   UNL     1       7.390   6.059  16.134  0.00  0.00    +0.000 A 
ATOM      3  C   UNL     1       7.056   6.532  17.405  0.00  0.00    +0.000 A 
ATOM      4  C   UNL     1       5.778   6.267  17.912  0.00  0.00    +0.000 A 
ATOM      5  C   UNL     1       4.839   5.524  17.189  0.00  0.00    +0.000 A 
ATOM      6  C   UNL     1       5.201   5.032  15.924  0.00  0.00    +0.000 A 
ENDROOT
BRANCH   5   7
ATOM      7  N   UNL     1       3.551   5.224  17.694  0.00  0.00    +0.000 N 
ATOM      8  C   UNL     1       3.146   4.004  18.218  0.00  0.00    +0.000 C 
ATOM      9  O   UNL     1       3.884   3.033  18.396  0.00  0.00    +0.000 OA
ATOM     10  H   UNL     1       2.902   5.999  17.768  0.00  0.00    +0.000 HD
BRANCH   8  11
ATOM     11  C   UNL     1       1.672   3.958  18.639  0.00  0.00    +0.000 C 
ATOM     12  C   UNL     1       1.127   2.528  18.759  0.00  0.00    +0.000 C 
ATOM     13  C   UNL     1       1.558   1.807  20.036  0.00  0.00    +0.000 C 
ATOM     14  C   UNL     1       1.312   2.625  21.298  0.00  0.00    +0.000 C 
ATOM     15  C   UNL     1       1.874   4.036  21.199  0.00  0.00    +0.000 C 
ATOM     16  C   UNL     1       1.416   4.755  19.930  0.00  0.00    +0.000 C 
ENDBRANCH   8  11
ENDBRANCH   5   7
BRANCH   1  17
ATOM     17  C   UNL     1       6.849   4.754  14.058  0.00  0.00    +0.000 C 
ATOM     18  O   UNL     1       7.711   5.236  13.340  0.00  0.00    +0.000 OA
BRANCH  17  20
ATOM     19  C   UNL     1       6.090   3.254  12.409  0.00  0.00    +0.000 C 
ATOM     20  O   UNL     1       6.081   3.675  13.769  0.00  0.00    +0.000 OA
ENDBRANCH  17  20
ENDBRANCH   1  17
BRANCH   3  21
ATOM     21  C   UNL     1       8.071   7.292  18.218  0.00  0.00    +0.000 C 
BRANCH  21  22
ATOM     22  N   UNL     1       8.100   8.697  17.824  0.00  0.00    +0.000 NA
ATOM     23  H   UNL     1       8.439   8.759  16.865  0.00  0.00    +0.000 HD
ATOM     24  H   UNL     1       8.777   9.192  18.401  0.00  0.00    +0.000 HD
ENDBRANCH  21  22
ENDBRANCH   3  21
TORSDOF 6
ENDMDL
