MODEL 1
REMARK VINA RESULT:      -6.2      0.000      0.000
REMARK  Name = 
REMARK  4 active torsions:
REMARK  status: ('A' for Active; 'I' for Inactive)
REMARK    1  A    between atoms: C_1  and  N_2
REMARK    2  A    between atoms: C_4  and  C_5
REMARK    3  A    between atoms: C_13  and  N_14
REMARK    4  A    between atoms: C_17  and  C_18
REMARK                            x       y       z     vdW  Elec       q    Type
REMARK                         _______ _______ _______ _____ _____    ______ ____
ROOT
ATOM      1  C   UNL     1       2.377   8.235  17.831  0.00  0.00    +0.000 C 
ATOM      2  N   UNL     1       3.358   7.176  17.748  0.00  0.00    +0.000 N 
ATOM      3  N   UNL     1       4.198   7.179  16.693  0.00  0.00    +0.000 NA
ATOM      4  C   UNL     1       5.147   6.281  17.011  0.00  0.00    +0.000 A 
ATOM      5  C   UNL     1       4.837   5.681  18.252  0.00  0.00    +0.000 A 
ATOM      6  C   UNL     1       3.582   6.146  18.627  0.00  0.00    +0.000 A 
ENDROOT
BRANCH   4   7
ATOM      7  C   UNL     1       6.375   6.071  16.230  0.00  0.00    +0.000 C 
ATOM      8  O   UNL     1       7.448   6.476  16.682  0.00  0.00    +0.000 OA
ATOM      9  N   UNL     1       6.314   5.413  15.000  0.00  0.00    +0.000 N 
ATOM     10  C   UNL     1       5.104   4.884  14.354  0.00  0.00    +0.000 C 
ATOM     11  C   UNL     1       5.408   3.626  13.528  0.00  0.00    +0.000 C 
ATOM     12  O   UNL     1       6.518   3.813  12.642  0.00  0.00    +0.000 OA
ATOM     13  C   UNL     1       7.694   4.170  13.382  0.00  0.00    +0.000 C 
ATOM     14  C   UNL     1       7.479   5.490  14.120  0.00  0.00    +0.000 C 
ENDBRANCH   4   7
BRANCH   6  15
ATOM     15  C   UNL     1       2.725   5.789  19.741  0.00  0.00    +0.000 C 
ATOM     16  O   UNL     1       2.561   6.572  20.676  0.00  0.00    +0.000 OA
ATOM     17  N   UNL     1       2.090   4.554  19.725  0.00  0.00    +0.000 N 
ATOM     18  C   UNL     1       1.360   4.098  20.923  0.00  0.00    +0.000 C 
ATOM     19  C   UNL     1       1.513   2.579  21.121  0.00  0.00    +0.000 C 
ATOM     20  O   UNL     1       1.197   1.842  19.925  0.00  0.00    +0.000 OA
ATOM     21  C   UNL     1       2.026   2.273  18.834  0.00  0.00    +0.000 C 
ATOM     22  C   UNL     1       1.753   3.753  18.542  0.00  0.00    +0.000 C 
ENDBRANCH   6  15
BRANCH   5  23
ATOM     23  N   UNL     1       5.648   4.753  18.963  0.00  0.00    +0.000 N 
ATOM     24  O   UNL     1       5.316   3.564  18.892  0.00  0.00    +0.000 OA
ATOM     25  O   UNL     1       6.545   5.227  19.668  0.00  0.00    +0.000 OA
ENDBRANCH   5  23
TORSDOF 3
ENDMDL
MODEL 2
REMARK VINA RESULT:      -5.8      4.496      7.759
REMARK  Name = 
REMARK  4 active torsions:
REMARK  status: ('A' for Active; 'I' for Inactive)
REMARK    1  A    between atoms: C_1  and  N_2
REMARK    2  A    between atoms: C_4  and  C_5
REMARK    3  A    between atoms: C_13  and  N_14
REMARK    4  A    between atoms: C_17  and  C_18
REMARK                            x       y       z     vdW  Elec       q    Type
REMARK                         _______ _______ _______ _____ _____    ______ ____
ROOT
ATOM      1  C   UNL     1       0.171   9.352  22.921  0.00  0.00    +0.000 C 
ATOM      2  N   UNL     1       0.745   9.285  21.595  0.00  0.00    +0.000 N 
ATOM      3  N   UNL     1       1.586   8.267  21.325  0.00  0.00    +0.000 NA
ATOM      4  C   UNL     1       1.737   8.295  19.989  0.00  0.00    +0.000 A 
ATOM      5  C   UNL     1       1.023   9.389  19.454  0.00  0.00    +0.000 A 
ATOM      6  C   UNL     1       0.534  10.122  20.528  0.00  0.00    +0.000 A 
ENDROOT
BRANCH   4   7
ATOM      7  C   UNL     1       2.437   7.256  19.219  0.00  0.00    +0.000 C 
ATOM      8  O   UNL     1       3.149   7.592  18.271  0.00  0.00    +0.000 OA
ATOM      9  N   UNL     1       2.294   5.913  19.572  0.00  0.00    +0.000 N 
ATOM     10  C   UNL     1       1.479   5.384  20.674  0.00  0.00    +0.000 C 
ATOM     11  C   UNL     1       2.101   4.119  21.282  0.00  0.00    +0.000 C 
ATOM     12  O   UNL     1       2.446   3.150  20.284  0.00  0.00    +0.000 OA
ATOM     13  C   UNL     1       3.373   3.710  19.343  0.00  0.00    +0.000 C 
ATOM     14  C   UNL     1       2.745   4.899  18.619  0.00  0.00    +0.000 C 
ENDBRANCH   4   7
BRANCH   6  15
ATOM     15  C   UNL     1      -0.170  11.389  20.579  0.00  0.00    +0.000 C 
ATOM     16  O   UNL     1      -1.341  11.437  20.955  0.00  0.00    +0.000 OA
ATOM     17  N   UNL     1       0.507  12.543  20.203  0.00  0.00    +0.000 N 
ATOM     18  C   UNL     1      -0.236  13.812  20.077  0.00  0.00    +0.000 C 
ATOM     19  C   UNL     1       0.302  14.655  18.907  0.00  0.00    +0.000 C 
ATOM     20  O   UNL     1       1.731  14.815  18.966  0.00  0.00    +0.000 OA
ATOM     21  C   UNL     1       2.382  13.535  18.978  0.00  0.00    +0.000 C 
ATOM     22  C   UNL     1       1.958  12.761  20.231  0.00  0.00    +0.000 C 
ENDBRANCH   6  15
BRANCH   5  23
ATOM     23  N   UNL     1       0.866   9.695  18.073  0.00  0.00    +0.000 N 
ATOM     24  O   UNL     1       1.842  10.198  17.505  0.00  0.00    +0.000 OA
ATOM     25  O   UNL     1      -0.260   9.529  17.593  0.00  0.00    +0.000 OA
ENDBRANCH   5  23
TORSDOF 3
ENDMDL
MODEL 3
REMARK VINA RESULT:      -5.6      9.482     12.288
REMARK  Name = 
REMARK  4 active torsions:
REMARK  status: ('A' for Active; 'I' for Inactive)
REMARK    1  A    between atoms: C_1  and  N_2
REMARK    2  A    between atoms: C_4  and  C_5
REMARK    3  A    between atoms: C_13  and  N_14
REMARK    4  A    between atoms: C_17  and  C_18
REMARK                            x       y       z     vdW  Elec       q    Type
REMARK                         _______ _______ _______ _____ _____    ______ ____
ROOT
ATOM      1  C   UNL     1       7.798  12.762  17.255  0.00  0.00    +0.000 C 
ATOM      2  N   UNL     1       7.458  14.082  17.742  0.00  0.00    +0.000 N 
ATOM      3  N   UNL     1       6.154  14.421  17.776  0.00  0.00    +0.000 NA
ATOM      4  C   UNL     1       6.115  15.549  18.508  0.00  0.00    +0.000 A 
ATOM      5  C   UNL     1       7.428  15.927  18.868  0.00  0.00    +0.000 A 
ATOM      6  C   UNL     1       8.295  15.062  18.212  0.00  0.00    +0.000 A 
ENDROOT
BRANCH   4   7
ATOM      7  C   UNL     1       4.873  16.194  18.960  0.00  0.00    +0.000 C 
ATOM      8  O   UNL     1       4.374  17.081  18.265  0.00  0.00    +0.000 OA
ATOM      9  N   UNL     1       4.275  15.792  20.156  0.00  0.00    +0.000 N 
ATOM     10  C   UNL     1       4.768  14.752  21.069  0.00  0.00    +0.000 C 
ATOM     11  C   UNL     1       3.614  14.025  21.774  0.00  0.00    +0.000 C 
ATOM     12  O   UNL     1       2.677  14.935  22.363  0.00  0.00    +0.000 OA
ATOM     13  C   UNL     1       2.128  15.804  21.363  0.00  0.00    +0.000 C 
ATOM     14  C   UNL     1       3.231  16.644  20.723  0.00  0.00    +0.000 C 
ENDBRANCH   4   7
BRANCH   6  15
ATOM     15  C   UNL     1       9.743  15.046  18.124  0.00  0.00    +0.000 C 
ATOM     16  O   UNL     1      10.330  15.817  17.366  0.00  0.00    +0.000 OA
ATOM     17  N   UNL     1      10.449  14.150  18.918  0.00  0.00    +0.000 N 
ATOM     18  C   UNL     1      11.902  13.992  18.717  0.00  0.00    +0.000 C 
ATOM     19  C   UNL     1      12.333  12.528  18.920  0.00  0.00    +0.000 C 
ATOM     20  O   UNL     1      11.851  11.989  20.164  0.00  0.00    +0.000 OA
ATOM     21  C   UNL     1      10.419  12.085  20.234  0.00  0.00    +0.000 C 
ATOM     22  C   UNL     1      10.006  13.559  20.186  0.00  0.00    +0.000 C 
ENDBRANCH   6  15
BRANCH   5  23
ATOM     23  N   UNL     1       7.787  17.010  19.719  0.00  0.00    +0.000 N 
ATOM     24  O   UNL     1       7.751  18.139  19.217  0.00  0.00    +0.000 OA
ATOM     25  O   UNL     1       8.201  16.717  20.845  0.00  0.00    +0.000 OA
ENDBRANCH   5  23
TORSDOF 3
ENDMDL
MODEL 4
REMARK VINA RESULT:      -5.5      8.499     12.674
REMARK  Name = 
REMARK  4 active torsions:
REMARK  status: ('A' for Active; 'I' for Inactive)
REMARK    1  A    between atoms: C_1  and  N_2
REMARK    2  A    between atoms: C_4  and  C_5
REMARK    3  A    between atoms: C_13  and  N_14
REMARK    4  A    between atoms: C_17  and  C_18
REMARK                            x       y       z     vdW  Elec       q    Type
REMARK                         _______ _______ _______ _____ _____    ______ ____
ROOT
ATOM      1  C   UNL     1      -2.776  11.384  18.162  0.00  0.00    +0.000 C 
ATOM      2  N   UNL     1      -2.436  11.997  19.428  0.00  0.00    +0.000 N 
ATOM      3  N   UNL     1      -3.439  12.519  20.163  0.00  0.00    +0.000 NA
ATOM      4  C   UNL     1      -2.891  12.756  21.368  0.00  0.00    +0.000 A 
ATOM      5  C   UNL     1      -1.517  12.429  21.337  0.00  0.00    +0.000 A 
ATOM      6  C   UNL     1      -1.204  12.108  20.022  0.00  0.00    +0.000 A 
ENDROOT
BRANCH   4   7
ATOM      7  C   UNL     1      -3.658  13.169  22.553  0.00  0.00    +0.000 C 
ATOM      8  O   UNL     1      -4.212  12.306  23.236  0.00  0.00    +0.000 OA
ATOM      9  N   UNL     1      -3.742  14.521  22.891  0.00  0.00    +0.000 N 
ATOM     10  C   UNL     1      -3.130  15.641  22.162  0.00  0.00    +0.000 C 
ATOM     11  C   UNL     1      -2.725  16.779  23.110  0.00  0.00    +0.000 C 
ATOM     12  O   UNL     1      -3.790  17.157  23.991  0.00  0.00    +0.000 OA
ATOM     13  C   UNL     1      -4.211  16.034  24.777  0.00  0.00    +0.000 C 
ATOM     14  C   UNL     1      -4.745  14.923  23.876  0.00  0.00    +0.000 C 
ENDBRANCH   4   7
BRANCH   6  15
ATOM     15  C   UNL     1       0.066  11.804  19.389  0.00  0.00    +0.000 C 
ATOM     16  O   UNL     1       0.453  10.640  19.297  0.00  0.00    +0.000 OA
ATOM     17  N   UNL     1       0.826  12.852  18.884  0.00  0.00    +0.000 N 
ATOM     18  C   UNL     1       2.194  12.587  18.398  0.00  0.00    +0.000 C 
ATOM     19  C   UNL     1       3.136  13.759  18.729  0.00  0.00    +0.000 C 
ATOM     20  O   UNL     1       2.597  15.024  18.305  0.00  0.00    +0.000 OA
ATOM     21  C   UNL     1       1.312  15.253  18.905  0.00  0.00    +0.000 C 
ATOM     22  C   UNL     1       0.336  14.164  18.447  0.00  0.00    +0.000 C 
ENDBRANCH   6  15
BRANCH   5  23
ATOM     23  N   UNL     1      -0.622  12.456  22.443  0.00  0.00    +0.000 N 
ATOM     24  O   UNL     1      -0.570  11.432  23.134  0.00  0.00    +0.000 OA
ATOM     25  O   UNL     1      -0.059  13.531  22.675  0.00  0.00    +0.000 OA
ENDBRANCH   5  23
TORSDOF 3
ENDMDL
MODEL 5
REMARK VINA RESULT:      -5.5      7.647     11.116
REMARK  Name = 
REMARK  4 active torsions:
REMARK  status: ('A' for Active; 'I' for Inactive)
REMARK    1  A    between atoms: C_1  and  N_2
REMARK    2  A    between atoms: C_4  and  C_5
REMARK    3  A    between atoms: C_13  and  N_14
REMARK    4  A    between atoms: C_17  and  C_18
REMARK                            x       y       z     vdW  Elec       q    Type
REMARK                         _______ _______ _______ _____ _____    ______ ____
ROOT
ATOM      1  C   UNL     1       0.043   9.161  21.222  0.00  0.00    +0.000 C 
ATOM      2  N   UNL     1      -0.025  10.552  20.830  0.00  0.00    +0.000 N 
ATOM      3  N   UNL     1       0.070  11.483  21.801  0.00  0.00    +0.000 NA
ATOM      4  C   UNL     1       0.254  12.642  21.144  0.00  0.00    +0.000 A 
ATOM      5  C   UNL     1       0.206  12.411  19.751  0.00  0.00    +0.000 A 
ATOM      6  C   UNL     1      -0.153  11.081  19.570  0.00  0.00    +0.000 A 
ENDROOT
BRANCH   4   7
ATOM      7  C   UNL     1       0.583  13.916  21.800  0.00  0.00    +0.000 C 
ATOM      8  O   UNL     1       1.766  14.192  22.010  0.00  0.00    +0.000 OA
ATOM      9  N   UNL     1      -0.438  14.793  22.169  0.00  0.00    +0.000 N 
ATOM     10  C   UNL     1      -1.879  14.582  21.976  0.00  0.00    +0.000 C 
ATOM     11  C   UNL     1      -2.618  15.905  21.731  0.00  0.00    +0.000 C 
ATOM     12  O   UNL     1      -2.291  16.899  22.710  0.00  0.00    +0.000 OA
ATOM     13  C   UNL     1      -0.880  17.155  22.711  0.00  0.00    +0.000 C 
ATOM     14  C   UNL     1      -0.109  15.889  23.079  0.00  0.00    +0.000 C 
ENDBRANCH   4   7
BRANCH   6  15
ATOM     15  C   UNL     1      -0.456  10.328  18.368  0.00  0.00    +0.000 C 
ATOM     16  O   UNL     1       0.396   9.603  17.855  0.00  0.00    +0.000 OA
ATOM     17  N   UNL     1      -1.727  10.436  17.817  0.00  0.00    +0.000 N 
ATOM     18  C   UNL     1      -2.002   9.823  16.503  0.00  0.00    +0.000 C 
ATOM     19  C   UNL     1      -2.968  10.693  15.678  0.00  0.00    +0.000 C 
ATOM     20  O   UNL     1      -4.149  11.045  16.420  0.00  0.00    +0.000 OA
ATOM     21  C   UNL     1      -3.798  11.731  17.632  0.00  0.00    +0.000 C 
ATOM     22  C   UNL     1      -2.963  10.801  18.519  0.00  0.00    +0.000 C 
ENDBRANCH   6  15
BRANCH   5  23
ATOM     23  N   UNL     1       0.451  13.373  18.731  0.00  0.00    +0.000 N 
ATOM     24  O   UNL     1      -0.517  14.053  18.373  0.00  0.00    +0.000 OA
ATOM     25  O   UNL     1       1.577  13.369  18.224  0.00  0.00    +0.000 OA
ENDBRANCH   5  23
TORSDOF 3
ENDMDL
MODEL 6
REMARK VINA RESULT:      -5.5      4.132      6.998
REMARK  Name = 
REMARK  4 active torsions:
REMARK  status: ('A' for Active; 'I' for Inactive)
REMARK    1  A    between atoms: C_1  and  N_2
REMARK    2  A    between atoms: C_4  and  C_5
REMARK    3  A    between atoms: C_13  and  N_14
REMARK    4  A    between atoms: C_17  and  C_18
REMARK                            x       y       z     vdW  Elec       q    Type
REMARK                         _______ _______ _______ _____ _____    ______ ____
ROOT
ATOM      1  C   UNL     1      -0.433   8.831  22.287  0.00  0.00    +0.000 C 
ATOM      2  N   UNL     1       0.527   8.750  21.208  0.00  0.00    +0.000 N 
ATOM      3  N   UNL     1       1.348   7.681  21.177  0.00  0.00    +0.000 NA
ATOM      4  C   UNL     1       1.916   7.724  19.959  0.00  0.00    +0.000 A 
ATOM      5  C   UNL     1       1.476   8.875  19.269  0.00  0.00    +0.000 A 
ATOM      6  C   UNL     1       0.716   9.620  20.163  0.00  0.00    +0.000 A 
ENDROOT
BRANCH   4   7
ATOM      7  C   UNL     1       2.761   6.654  19.407  0.00  0.00    +0.000 C 
ATOM      8  O   UNL     1       3.718   6.956  18.693  0.00  0.00    +0.000 OA
ATOM      9  N   UNL     1       2.475   5.320  19.702  0.00  0.00    +0.000 N 
ATOM     10  C   UNL     1       1.369   4.830  20.537  0.00  0.00    +0.000 C 
ATOM     11  C   UNL     1       1.752   3.547  21.288  0.00  0.00    +0.000 C 
ATOM     12  O   UNL     1       2.321   2.558  20.420  0.00  0.00    +0.000 OA
ATOM     13  C   UNL     1       3.491   3.077  19.772  0.00  0.00    +0.000 C 
ATOM     14  C   UNL     1       3.131   4.283  18.907  0.00  0.00    +0.000 C 
ENDBRANCH   4   7
BRANCH   6  15
ATOM     15  C   UNL     1       0.109  10.932  20.040  0.00  0.00    +0.000 C 
ATOM     16  O   UNL     1       0.576  11.893  20.650  0.00  0.00    +0.000 OA
ATOM     17  N   UNL     1      -1.000  11.079  19.216  0.00  0.00    +0.000 N 
ATOM     18  C   UNL     1      -1.737  12.356  19.214  0.00  0.00    +0.000 C 
ATOM     19  C   UNL     1      -3.250  12.122  19.052  0.00  0.00    +0.000 C 
ATOM     20  O   UNL     1      -3.550  11.270  17.932  0.00  0.00    +0.000 OA
ATOM     21  C   UNL     1      -2.877  10.008  18.064  0.00  0.00    +0.000 C 
ATOM     22  C   UNL     1      -1.362  10.237  18.070  0.00  0.00    +0.000 C 
ENDBRANCH   6  15
BRANCH   5  23
ATOM     23  N   UNL     1       1.783   9.218  17.923  0.00  0.00    +0.000 N 
ATOM     24  O   UNL     1       1.400   8.427  17.052  0.00  0.00    +0.000 OA
ATOM     25  O   UNL     1       2.492  10.214  17.752  0.00  0.00    +0.000 OA
ENDBRANCH   5  23
TORSDOF 3
ENDMDL
MODEL 7
REMARK VINA RESULT:      -5.4      7.457     11.376
REMARK  Name = 
REMARK  4 active torsions:
REMARK  status: ('A' for Active; 'I' for Inactive)
REMARK    1  A    between atoms: C_1  and  N_2
REMARK    2  A    between atoms: C_4  and  C_5
REMARK    3  A    between atoms: C_13  and  N_14
REMARK    4  A    between atoms: C_17  and  C_18
REMARK                            x       y       z     vdW  Elec       q    Type
REMARK                         _______ _______ _______ _____ _____    ______ ____
ROOT
ATOM      1  C   UNL     1       0.960   9.011  20.811  0.00  0.00    +0.000 C 
ATOM      2  N   UNL     1       0.268  10.281  20.762  0.00  0.00    +0.000 N 
ATOM      3  N   UNL     1       0.202  11.004  21.898  0.00  0.00    +0.000 NA
ATOM      4  C   UNL     1      -0.232  12.215  21.506  0.00  0.00    +0.000 A 
ATOM      5  C   UNL     1      -0.490  12.200  20.117  0.00  0.00    +0.000 A 
ATOM      6  C   UNL     1      -0.330  10.889  19.687  0.00  0.00    +0.000 A 
ENDROOT
BRANCH   4   7
ATOM      7  C   UNL     1      -0.292  13.392  22.386  0.00  0.00    +0.000 C 
ATOM      8  O   UNL     1       0.676  14.152  22.434  0.00  0.00    +0.000 OA
ATOM      9  N   UNL     1      -1.439  13.635  23.144  0.00  0.00    +0.000 N 
ATOM     10  C   UNL     1      -2.654  12.810  23.175  0.00  0.00    +0.000 C 
ATOM     11  C   UNL     1      -3.911  13.661  23.408  0.00  0.00    +0.000 C 
ATOM     12  O   UNL     1      -3.768  14.546  24.525  0.00  0.00    +0.000 OA
ATOM     13  C   UNL     1      -2.650  15.423  24.328  0.00  0.00    +0.000 C 
ATOM     14  C   UNL     1      -1.356  14.621  24.221  0.00  0.00    +0.000 C 
ENDBRANCH   4   7
BRANCH   6  15
ATOM     15  C   UNL     1      -0.570  10.270  18.397  0.00  0.00    +0.000 C 
ATOM     16  O   UNL     1       0.327   9.651  17.826  0.00  0.00    +0.000 OA
ATOM     17  N   UNL     1      -1.833  10.384  17.828  0.00  0.00    +0.000 N 
ATOM     18  C   UNL     1      -2.049   9.919  16.445  0.00  0.00    +0.000 C 
ATOM     19  C   UNL     1      -3.038  10.835  15.701  0.00  0.00    +0.000 C 
ATOM     20  O   UNL     1      -4.251  11.042  16.447  0.00  0.00    +0.000 OA
ATOM     21  C   UNL     1      -3.960  11.595  17.740  0.00  0.00    +0.000 C 
ATOM     22  C   UNL     1      -3.100  10.606  18.534  0.00  0.00    +0.000 C 
ENDBRANCH   6  15
BRANCH   5  23
ATOM     23  N   UNL     1      -0.872  13.316  19.321  0.00  0.00    +0.000 N 
ATOM     24  O   UNL     1      -0.052  13.698  18.478  0.00  0.00    +0.000 OA
ATOM     25  O   UNL     1      -1.939  13.866  19.614  0.00  0.00    +0.000 OA
ENDBRANCH   5  23
TORSDOF 3
ENDMDL
MODEL 8
REMARK VINA RESULT:      -5.4      9.082     11.931
REMARK  Name = 
REMARK  4 active torsions:
REMARK  status: ('A' for Active; 'I' for Inactive)
REMARK    1  A    between atoms: C_1  and  N_2
REMARK    2  A    between atoms: C_4  and  C_5
REMARK    3  A    between atoms: C_13  and  N_14
REMARK    4  A    between atoms: C_17  and  C_18
REMARK                            x       y       z     vdW  Elec       q    Type
REMARK                         _______ _______ _______ _____ _____    ______ ____
ROOT
ATOM      1  C   UNL     1      -3.786  12.340  24.236  0.00  0.00    +0.000 C 
ATOM      2  N   UNL     1      -2.497  12.578  23.623  0.00  0.00    +0.000 N 
ATOM      3  N   UNL     1      -1.918  11.555  22.962  0.00  0.00    +0.000 NA
ATOM      4  C   UNL     1      -0.904  12.120  22.282  0.00  0.00    +0.000 A 
ATOM      5  C   UNL     1      -0.836  13.497  22.589  0.00  0.00    +0.000 A 
ATOM      6  C   UNL     1      -1.763  13.737  23.596  0.00  0.00    +0.000 A 
ENDROOT
BRANCH   4   7
ATOM      7  C   UNL     1      -0.092  11.414  21.279  0.00  0.00    +0.000 C 
ATOM      8  O   UNL     1       1.003  10.957  21.612  0.00  0.00    +0.000 OA
ATOM      9  N   UNL     1      -0.570  11.266  19.976  0.00  0.00    +0.000 N 
ATOM     10  C   UNL     1      -1.852  11.762  19.457  0.00  0.00    +0.000 C 
ATOM     11  C   UNL     1      -2.419  10.837  18.370  0.00  0.00    +0.000 C 
ATOM     12  O   UNL     1      -1.450  10.529  17.360  0.00  0.00    +0.000 OA
ATOM     13  C   UNL     1      -0.302   9.899  17.944  0.00  0.00    +0.000 C 
ATOM     14  C   UNL     1       0.371  10.839  18.942  0.00  0.00    +0.000 C 
ENDBRANCH   4   7
BRANCH   6  15
ATOM     15  C   UNL     1      -2.048  14.932  24.368  0.00  0.00    +0.000 C 
ATOM     16  O   UNL     1      -1.345  15.233  25.332  0.00  0.00    +0.000 OA
ATOM     17  N   UNL     1      -3.122  15.728  23.991  0.00  0.00    +0.000 N 
ATOM     18  C   UNL     1      -3.539  16.844  24.861  0.00  0.00    +0.000 C 
ATOM     19  C   UNL     1      -5.069  17.009  24.857  0.00  0.00    +0.000 C 
ATOM     20  O   UNL     1      -5.604  17.074  23.523  0.00  0.00    +0.000 OA
ATOM     21  C   UNL     1      -5.243  15.902  22.777  0.00  0.00    +0.000 C 
ATOM     22  C   UNL     1      -3.717  15.828  22.652  0.00  0.00    +0.000 C 
ENDBRANCH   6  15
BRANCH   5  23
ATOM     23  N   UNL     1       0.043  14.447  21.997  0.00  0.00    +0.000 N 
ATOM     24  O   UNL     1       1.200  14.475  22.434  0.00  0.00    +0.000 OA
ATOM     25  O   UNL     1      -0.454  15.227  21.179  0.00  0.00    +0.000 OA
ENDBRANCH   5  23
TORSDOF 3
ENDMDL
MODEL 9
REMARK VINA RESULT:      -5.3      4.236      6.854
REMARK  Name = 
REMARK  4 active torsions:
REMARK  status: ('A' for Active; 'I' for Inactive)
REMARK    1  A    between atoms: C_1  and  N_2
REMARK    2  A    between atoms: C_4  and  C_5
REMARK    3  A    between atoms: C_13  and  N_14
REMARK    4  A    between atoms: C_17  and  C_18
REMARK                            x       y       z     vdW  Elec       q    Type
REMARK                         _______ _______ _______ _____ _____    ______ ____
ROOT
ATOM      1  C   UNL     1       2.154  11.210  17.714  0.00  0.00    +0.000 C 
ATOM      2  N   UNL     1       1.689  10.182  18.620  0.00  0.00    +0.000 N 
ATOM      3  N   UNL     1       2.120   8.922  18.413  0.00  0.00    +0.000 NA
ATOM      4  C   UNL     1       1.770   8.256  19.528  0.00  0.00    +0.000 A 
ATOM      5  C   UNL     1       1.060   9.118  20.393  0.00  0.00    +0.000 A 
ATOM      6  C   UNL     1       0.863  10.311  19.709  0.00  0.00    +0.000 A 
ENDROOT
BRANCH   4   7
ATOM      7  C   UNL     1       2.190   6.879  19.829  0.00  0.00    +0.000 C 
ATOM      8  O   UNL     1       1.614   6.261  20.727  0.00  0.00    +0.000 OA
ATOM      9  N   UNL     1       3.221   6.289  19.096  0.00  0.00    +0.000 N 
ATOM     10  C   UNL     1       3.983   6.915  18.006  0.00  0.00    +0.000 C 
ATOM     11  C   UNL     1       4.414   5.885  16.953  0.00  0.00    +0.000 C 
ATOM     12  O   UNL     1       5.050   4.742  17.539  0.00  0.00    +0.000 OA
ATOM     13  C   UNL     1       4.167   4.103  18.471  0.00  0.00    +0.000 C 
ATOM     14  C   UNL     1       3.813   5.055  19.611  0.00  0.00    +0.000 C 
ENDBRANCH   4   7
BRANCH   6  15
ATOM     15  C   UNL     1       0.112  11.501  20.059  0.00  0.00    +0.000 C 
ATOM     16  O   UNL     1       0.551  12.293  20.892  0.00  0.00    +0.000 OA
ATOM     17  N   UNL     1      -1.106  11.729  19.430  0.00  0.00    +0.000 N 
ATOM     18  C   UNL     1      -1.968  12.832  19.895  0.00  0.00    +0.000 C 
ATOM     19  C   UNL     1      -3.456  12.446  19.811  0.00  0.00    +0.000 C 
ATOM     20  O   UNL     1      -3.810  11.932  18.515  0.00  0.00    +0.000 OA
ATOM     21  C   UNL     1      -2.997  10.795  18.183  0.00  0.00    +0.000 C 
ATOM     22  C   UNL     1      -1.527  11.224  18.118  0.00  0.00    +0.000 C 
ENDBRANCH   6  15
BRANCH   5  23
ATOM     23  N   UNL     1       0.607   8.805  21.705  0.00  0.00    +0.000 N 
ATOM     24  O   UNL     1      -0.524   8.312  21.795  0.00  0.00    +0.000 OA
ATOM     25  O   UNL     1       1.337   9.148  22.641  0.00  0.00    +0.000 OA
ENDBRANCH   5  23
TORSDOF 3
ENDMDL
