MODEL 1
REMARK VINA RESULT:      -9.6      0.000      0.000
REMARK  Name = 
REMARK  4 active torsions:
REMARK  status: ('A' for Active; 'I' for Inactive)
REMARK    1  A    between atoms: C_5  and  C_7
REMARK    2  A    between atoms: C_7  and  N_8
REMARK    3  A    between atoms: C_9  and  C_10
REMARK    4  A    between atoms: C_19  and  C_20
REMARK                            x       y       z     vdW  Elec       q    Type
REMARK                         _______ _______ _______ _____ _____    ______ ____
ROOT
ATOM      1  N   UNL     1       4.543   5.361  16.473  0.00  0.00    +0.000 N 
ATOM      2  C   UNL     1       4.955   4.266  15.705  0.00  0.00    +0.000 A 
ATOM      3  C   UNL     1       4.311   3.164  16.248  0.00  0.00    +0.000 A 
ATOM      4  C   UNL     1       3.536   3.586  17.346  0.00  0.00    +0.000 A 
ATOM      5  C   UNL     1       3.676   4.957  17.494  0.00  0.00    +0.000 A 
ENDROOT
BRANCH   5   6
ATOM      6  C   UNL     1       3.020   5.822  18.504  0.00  0.00    +0.000 A 
ATOM      7  C   UNL     1       2.795   5.419  19.825  0.00  0.00    +0.000 A 
ATOM      8  C   UNL     1       2.242   6.276  20.778  0.00  0.00    +0.000 A 
ATOM      9  C   UNL     1       1.821   7.549  20.417  0.00  0.00    +0.000 A 
ATOM     10  C   UNL     1       1.247   8.402  21.364  0.00  0.00    +0.000 A 
ATOM     11  C   UNL     1       0.799   9.670  20.991  0.00  0.00    +0.000 A 
ATOM     12  C   UNL     1       0.921  10.088  19.667  0.00  0.00    +0.000 A 
ATOM     13  C   UNL     1       1.502   9.242  18.716  0.00  0.00    +0.000 A 
ATOM     14  C   UNL     1       1.966   7.969  19.075  0.00  0.00    +0.000 A 
ATOM     15  C   UNL     1       2.571   7.102  18.143  0.00  0.00    +0.000 A 
ENDBRANCH   5   6
BRANCH   2  16
ATOM     16  C   UNL     1       5.862   4.287  14.534  0.00  0.00    +0.000 A 
ATOM     17  C   UNL     1       5.552   3.522  13.396  0.00  0.00    +0.000 A 
ATOM     18  C   UNL     1       6.368   3.545  12.256  0.00  0.00    +0.000 A 
ATOM     19  C   UNL     1       7.499   4.354  12.223  0.00  0.00    +0.000 A 
ATOM     20  C   UNL     1       7.830   5.088  13.347  0.00  0.00    +0.000 A 
ATOM     21  F   UNL     1       8.913   5.874  13.335  0.00  0.00    +0.000 F 
ATOM     22  C   UNL     1       7.050   5.027  14.497  0.00  0.00    +0.000 A 
ENDBRANCH   2  16
BRANCH   1  23
ATOM     23  C   UNL     1       5.015   6.728  16.282  0.00  0.00    +0.000 C 
BRANCH  23  28
ATOM     24  N   UNL     1       7.593   5.339  19.937  0.00  0.00    +0.000 NA
ATOM     25  C   UNL     1       7.591   6.260  19.047  0.00  0.00    +0.000 C 
ATOM     26  N   UNL     1       8.531   7.216  18.954  0.00  0.00    +0.000 N 
ATOM     27  N   UNL     1       6.546   6.211  18.177  0.00  0.00    +0.000 N 
ATOM     28  C   UNL     1       6.242   7.074  17.128  0.00  0.00    +0.000 C 
ATOM     29  O   UNL     1       6.902   8.092  16.893  0.00  0.00    +0.000 OA
ATOM     30  H   UNL     1       8.431   5.439  20.515  0.00  0.00    +0.000 HD
ATOM     31  H   UNL     1       8.974   7.507  19.814  0.00  0.00    +0.000 HD
ATOM     32  H   UNL     1       8.283   7.993  18.341  0.00  0.00    +0.000 HD
ATOM     33  H   UNL     1       5.949   5.419  18.381  0.00  0.00    +0.000 HD
ENDBRANCH  23  28
ENDBRANCH   1  23
TORSDOF 4
ENDMDL
MODEL 2
REMARK VINA RESULT:      -9.0      0.885      1.254
REMARK  Name = 
REMARK  4 active torsions:
REMARK  status: ('A' for Active; 'I' for Inactive)
REMARK    1  A    between atoms: C_5  and  C_7
REMARK    2  A    between atoms: C_7  and  N_8
REMARK    3  A    between atoms: C_9  and  C_10
REMARK    4  A    between atoms: C_19  and  C_20
REMARK                            x       y       z     vdW  Elec       q    Type
REMARK                         _______ _______ _______ _____ _____    ______ ____
ROOT
ATOM      1  N   UNL     1       4.389   5.416  16.636  0.00  0.00    +0.000 N 
ATOM      2  C   UNL     1       4.785   4.305  15.884  0.00  0.00    +0.000 A 
ATOM      3  C   UNL     1       4.127   3.220  16.442  0.00  0.00    +0.000 A 
ATOM      4  C   UNL     1       3.358   3.668  17.534  0.00  0.00    +0.000 A 
ATOM      5  C   UNL     1       3.518   5.038  17.664  0.00  0.00    +0.000 A 
ENDROOT
BRANCH   5   6
ATOM      6  C   UNL     1       2.875   5.926  18.663  0.00  0.00    +0.000 A 
ATOM      7  C   UNL     1       2.630   5.539  19.985  0.00  0.00    +0.000 A 
ATOM      8  C   UNL     1       2.091   6.416  20.927  0.00  0.00    +0.000 A 
ATOM      9  C   UNL     1       1.703   7.696  20.554  0.00  0.00    +0.000 A 
ATOM     10  C   UNL     1       1.141   8.570  21.490  0.00  0.00    +0.000 A 
ATOM     11  C   UNL     1       0.727   9.845  21.104  0.00  0.00    +0.000 A 
ATOM     12  C   UNL     1       0.869  10.249  19.779  0.00  0.00    +0.000 A 
ATOM     13  C   UNL     1       1.436   9.383  18.837  0.00  0.00    +0.000 A 
ATOM     14  C   UNL     1       1.867   8.102  19.210  0.00  0.00    +0.000 A 
ATOM     15  C   UNL     1       2.459   7.215  18.288  0.00  0.00    +0.000 A 
ENDBRANCH   5   6
BRANCH   2  16
ATOM     16  C   UNL     1       5.691   4.298  14.712  0.00  0.00    +0.000 A 
ATOM     17  C   UNL     1       6.881   5.047  14.743  0.00  0.00    +0.000 A 
ATOM     18  C   UNL     1       7.779   5.037  13.667  0.00  0.00    +0.000 A 
ATOM     19  C   UNL     1       7.517   4.256  12.546  0.00  0.00    +0.000 A 
ATOM     20  C   UNL     1       6.337   3.538  12.492  0.00  0.00    +0.000 A 
ATOM     21  F   UNL     1       6.067   2.779  11.423  0.00  0.00    +0.000 F 
ATOM     22  C   UNL     1       5.419   3.587  13.536  0.00  0.00    +0.000 A 
ENDBRANCH   2  16
BRANCH   1  23
ATOM     23  C   UNL     1       4.879   6.774  16.427  0.00  0.00    +0.000 C 
BRANCH  23  28
ATOM     24  N   UNL     1       7.582   5.335  19.971  0.00  0.00    +0.000 NA
ATOM     25  C   UNL     1       7.562   6.253  19.078  0.00  0.00    +0.000 C 
ATOM     26  N   UNL     1       8.521   7.185  18.940  0.00  0.00    +0.000 N 
ATOM     27  N   UNL     1       6.479   6.227  18.254  0.00  0.00    +0.000 N 
ATOM     28  C   UNL     1       6.151   7.093  17.217  0.00  0.00    +0.000 C 
ATOM     29  O   UNL     1       6.825   8.094  16.949  0.00  0.00    +0.000 OA
ATOM     30  H   UNL     1       8.446   5.416  20.511  0.00  0.00    +0.000 HD
ATOM     31  H   UNL     1       9.009   7.468  19.778  0.00  0.00    +0.000 HD
ATOM     32  H   UNL     1       8.265   7.966  18.334  0.00  0.00    +0.000 HD
ATOM     33  H   UNL     1       5.874   5.450  18.488  0.00  0.00    +0.000 HD
ENDBRANCH  23  28
ENDBRANCH   1  23
TORSDOF 4
ENDMDL
MODEL 3
REMARK VINA RESULT:      -8.9      4.010      8.416
REMARK  Name = 
REMARK  4 active torsions:
REMARK  status: ('A' for Active; 'I' for Inactive)
REMARK    1  A    between atoms: C_5  and  C_7
REMARK    2  A    between atoms: C_7  and  N_8
REMARK    3  A    between atoms: C_9  and  C_10
REMARK    4  A    between atoms: C_19  and  C_20
REMARK                            x       y       z     vdW  Elec       q    Type
REMARK                         _______ _______ _______ _____ _____    ______ ____
ROOT
ATOM      1  N   UNL     1       1.836   8.007  19.613  0.00  0.00    +0.000 N 
ATOM      2  C   UNL     1       1.032   9.148  19.713  0.00  0.00    +0.000 A 
ATOM      3  C   UNL     1       0.933   9.650  18.424  0.00  0.00    +0.000 A 
ATOM      4  C   UNL     1       1.686   8.833  17.559  0.00  0.00    +0.000 A 
ATOM      5  C   UNL     1       2.256   7.806  18.294  0.00  0.00    +0.000 A 
ENDROOT
BRANCH   5   6
ATOM      6  C   UNL     1       3.106   6.702  17.785  0.00  0.00    +0.000 A 
ATOM      7  C   UNL     1       2.684   5.369  17.740  0.00  0.00    +0.000 A 
ATOM      8  C   UNL     1       3.473   4.359  17.190  0.00  0.00    +0.000 A 
ATOM      9  C   UNL     1       4.754   4.639  16.732  0.00  0.00    +0.000 A 
ATOM     10  C   UNL     1       5.556   3.625  16.200  0.00  0.00    +0.000 A 
ATOM     11  C   UNL     1       6.853   3.905  15.768  0.00  0.00    +0.000 A 
ATOM     12  C   UNL     1       7.354   5.201  15.870  0.00  0.00    +0.000 A 
ATOM     13  C   UNL     1       6.554   6.223  16.395  0.00  0.00    +0.000 A 
ATOM     14  C   UNL     1       5.246   5.961  16.825  0.00  0.00    +0.000 A 
ATOM     15  C   UNL     1       4.411   6.973  17.341  0.00  0.00    +0.000 A 
ENDBRANCH   5   6
BRANCH   2  16
ATOM     16  C   UNL     1       0.393   9.685  20.937  0.00  0.00    +0.000 A 
ATOM     17  C   UNL     1      -0.497  10.770  20.841  0.00  0.00    +0.000 A 
ATOM     18  C   UNL     1      -1.148  11.282  21.972  0.00  0.00    +0.000 A 
ATOM     19  C   UNL     1      -0.941  10.702  23.219  0.00  0.00    +0.000 A 
ATOM     20  C   UNL     1      -0.046   9.655  23.330  0.00  0.00    +0.000 A 
ATOM     21  F   UNL     1       0.166   9.081  24.521  0.00  0.00    +0.000 F 
ATOM     22  C   UNL     1       0.641   9.178  22.218  0.00  0.00    +0.000 A 
ENDBRANCH   2  16
BRANCH   1  23
ATOM     23  C   UNL     1       2.246   7.183  20.746  0.00  0.00    +0.000 C 
BRANCH  23  28
ATOM     24  N   UNL     1       2.973   2.679  21.806  0.00  0.00    +0.000 NA
ATOM     25  C   UNL     1       2.030   3.435  21.381  0.00  0.00    +0.000 C 
ATOM     26  N   UNL     1       0.790   3.000  21.099  0.00  0.00    +0.000 N 
ATOM     27  N   UNL     1       2.371   4.743  21.226  0.00  0.00    +0.000 N 
ATOM     28  C   UNL     1       1.595   5.798  20.759  0.00  0.00    +0.000 C 
ATOM     29  O   UNL     1       0.441   5.641  20.343  0.00  0.00    +0.000 OA
ATOM     30  H   UNL     1       2.610   1.730  21.924  0.00  0.00    +0.000 HD
ATOM     31  H   UNL     1       0.701   2.047  20.774  0.00  0.00    +0.000 HD
ATOM     32  H   UNL     1       0.219   3.664  20.573  0.00  0.00    +0.000 HD
ATOM     33  H   UNL     1       3.333   4.895  21.502  0.00  0.00    +0.000 HD
ENDBRANCH  23  28
ENDBRANCH   1  23
TORSDOF 4
ENDMDL
MODEL 4
REMARK VINA RESULT:      -8.9      0.940      1.227
REMARK  Name = 
REMARK  4 active torsions:
REMARK  status: ('A' for Active; 'I' for Inactive)
REMARK    1  A    between atoms: C_5  and  C_7
REMARK    2  A    between atoms: C_7  and  N_8
REMARK    3  A    between atoms: C_9  and  C_10
REMARK    4  A    between atoms: C_19  and  C_20
REMARK                            x       y       z     vdW  Elec       q    Type
REMARK                         _______ _______ _______ _____ _____    ______ ____
ROOT
ATOM      1  N   UNL     1       4.517   5.378  16.465  0.00  0.00    +0.000 N 
ATOM      2  C   UNL     1       4.864   4.294  15.650  0.00  0.00    +0.000 A 
ATOM      3  C   UNL     1       4.114   3.223  16.113  0.00  0.00    +0.000 A 
ATOM      4  C   UNL     1       3.340   3.650  17.209  0.00  0.00    +0.000 A 
ATOM      5  C   UNL     1       3.587   4.994  17.437  0.00  0.00    +0.000 A 
ENDROOT
BRANCH   5   6
ATOM      6  C   UNL     1       2.971   5.857  18.474  0.00  0.00    +0.000 A 
ATOM      7  C   UNL     1       2.798   5.451  19.802  0.00  0.00    +0.000 A 
ATOM      8  C   UNL     1       2.283   6.305  20.778  0.00  0.00    +0.000 A 
ATOM      9  C   UNL     1       1.848   7.580  20.437  0.00  0.00    +0.000 A 
ATOM     10  C   UNL     1       1.311   8.431  21.408  0.00  0.00    +0.000 A 
ATOM     11  C   UNL     1       0.850   9.699  21.056  0.00  0.00    +0.000 A 
ATOM     12  C   UNL     1       0.919  10.120  19.729  0.00  0.00    +0.000 A 
ATOM     13  C   UNL     1       1.462   9.277  18.754  0.00  0.00    +0.000 A 
ATOM     14  C   UNL     1       1.940   8.003  19.092  0.00  0.00    +0.000 A 
ATOM     15  C   UNL     1       2.508   7.139  18.134  0.00  0.00    +0.000 A 
ENDBRANCH   5   6
BRANCH   2  16
ATOM     16  C   UNL     1       5.808   4.301  14.508  0.00  0.00    +0.000 A 
ATOM     17  C   UNL     1       5.530   3.528  13.367  0.00  0.00    +0.000 A 
ATOM     18  C   UNL     1       6.381   3.538  12.254  0.00  0.00    +0.000 A 
ATOM     19  C   UNL     1       7.517   4.341  12.250  0.00  0.00    +0.000 A 
ATOM     20  C   UNL     1       7.816   5.082  13.378  0.00  0.00    +0.000 A 
ATOM     21  F   UNL     1       8.903   5.864  13.394  0.00  0.00    +0.000 F 
ATOM     22  C   UNL     1       7.000   5.035  14.504  0.00  0.00    +0.000 A 
ENDBRANCH   2  16
BRANCH   1  23
ATOM     23  C   UNL     1       5.105   6.709  16.363  0.00  0.00    +0.000 C 
BRANCH  23  28
ATOM     24  N   UNL     1       8.372   9.801  17.671  0.00  0.00    +0.000 NA
ATOM     25  C   UNL     1       7.998   8.608  17.952  0.00  0.00    +0.000 C 
ATOM     26  N   UNL     1       8.587   7.838  18.883  0.00  0.00    +0.000 N 
ATOM     27  N   UNL     1       6.939   8.155  17.228  0.00  0.00    +0.000 N 
ATOM     28  C   UNL     1       6.321   6.910  17.271  0.00  0.00    +0.000 C 
ATOM     29  O   UNL     1       6.737   5.986  17.980  0.00  0.00    +0.000 OA
ATOM     30  H   UNL     1       9.144  10.061  18.290  0.00  0.00    +0.000 HD
ATOM     31  H   UNL     1       9.575   7.983  19.040  0.00  0.00    +0.000 HD
ATOM     32  H   UNL     1       8.323   6.852  18.843  0.00  0.00    +0.000 HD
ATOM     33  H   UNL     1       6.611   8.871  16.592  0.00  0.00    +0.000 HD
ENDBRANCH  23  28
ENDBRANCH   1  23
TORSDOF 4
ENDMDL
MODEL 5
REMARK VINA RESULT:      -8.8      3.140      4.960
REMARK  Name = 
REMARK  4 active torsions:
REMARK  status: ('A' for Active; 'I' for Inactive)
REMARK    1  A    between atoms: C_5  and  C_7
REMARK    2  A    between atoms: C_7  and  N_8
REMARK    3  A    between atoms: C_9  and  C_10
REMARK    4  A    between atoms: C_19  and  C_20
REMARK                            x       y       z     vdW  Elec       q    Type
REMARK                         _______ _______ _______ _____ _____    ______ ____
ROOT
ATOM      1  N   UNL     1       2.787   7.297  19.099  0.00  0.00    +0.000 N 
ATOM      2  C   UNL     1       3.454   7.104  17.884  0.00  0.00    +0.000 A 
ATOM      3  C   UNL     1       3.077   8.165  17.076  0.00  0.00    +0.000 A 
ATOM      4  C   UNL     1       2.174   8.979  17.788  0.00  0.00    +0.000 A 
ATOM      5  C   UNL     1       1.986   8.443  19.051  0.00  0.00    +0.000 A 
ENDROOT
BRANCH   5   6
ATOM      6  C   UNL     1       1.138   8.987  20.140  0.00  0.00    +0.000 A 
ATOM      7  C   UNL     1       1.076   8.419  21.417  0.00  0.00    +0.000 A 
ATOM      8  C   UNL     1       0.328   8.990  22.447  0.00  0.00    +0.000 A 
ATOM      9  C   UNL     1      -0.453  10.114  22.209  0.00  0.00    +0.000 A 
ATOM     10  C   UNL     1      -1.221  10.676  23.233  0.00  0.00    +0.000 A 
ATOM     11  C   UNL     1      -2.025  11.788  22.982  0.00  0.00    +0.000 A 
ATOM     12  C   UNL     1      -2.067  12.340  21.703  0.00  0.00    +0.000 A 
ATOM     13  C   UNL     1      -1.295  11.788  20.675  0.00  0.00    +0.000 A 
ATOM     14  C   UNL     1      -0.474  10.677  20.912  0.00  0.00    +0.000 A 
ATOM     15  C   UNL     1       0.329  10.110  19.901  0.00  0.00    +0.000 A 
ENDBRANCH   5   6
BRANCH   2  16
ATOM     16  C   UNL     1       4.396   6.011  17.548  0.00  0.00    +0.000 A 
ATOM     17  C   UNL     1       3.922   4.851  16.910  0.00  0.00    +0.000 A 
ATOM     18  C   UNL     1       4.789   3.812  16.544  0.00  0.00    +0.000 A 
ATOM     19  C   UNL     1       6.154   3.923  16.788  0.00  0.00    +0.000 A 
ATOM     20  C   UNL     1       6.628   5.046  17.441  0.00  0.00    +0.000 A 
ATOM     21  F   UNL     1       7.938   5.173  17.682  0.00  0.00    +0.000 F 
ATOM     22  C   UNL     1       5.763   6.055  17.851  0.00  0.00    +0.000 A 
ENDBRANCH   2  16
BRANCH   1  23
ATOM     23  C   UNL     1       2.856   6.384  20.235  0.00  0.00    +0.000 C 
BRANCH  23  28
ATOM     24  N   UNL     1       1.625   2.343  22.259  0.00  0.00    +0.000 NA
ATOM     25  C   UNL     1       1.356   3.022  21.206  0.00  0.00    +0.000 C 
ATOM     26  N   UNL     1       0.471   2.635  20.271  0.00  0.00    +0.000 N 
ATOM     27  N   UNL     1       2.042   4.191  21.088  0.00  0.00    +0.000 N 
ATOM     28  C   UNL     1       2.000   5.127  20.061  0.00  0.00    +0.000 C 
ATOM     29  O   UNL     1       1.333   4.958  19.034  0.00  0.00    +0.000 OA
ATOM     30  H   UNL     1       1.037   1.508  22.274  0.00  0.00    +0.000 HD
ATOM     31  H   UNL     1       0.355   1.641  20.133  0.00  0.00    +0.000 HD
ATOM     32  H   UNL     1       0.522   3.163  19.399  0.00  0.00    +0.000 HD
ATOM     33  H   UNL     1       2.646   4.332  21.888  0.00  0.00    +0.000 HD
ENDBRANCH  23  28
ENDBRANCH   1  23
TORSDOF 4
ENDMDL
MODEL 6
REMARK VINA RESULT:      -8.8      4.070      8.424
REMARK  Name = 
REMARK  4 active torsions:
REMARK  status: ('A' for Active; 'I' for Inactive)
REMARK    1  A    between atoms: C_5  and  C_7
REMARK    2  A    between atoms: C_7  and  N_8
REMARK    3  A    between atoms: C_9  and  C_10
REMARK    4  A    between atoms: C_19  and  C_20
REMARK                            x       y       z     vdW  Elec       q    Type
REMARK                         _______ _______ _______ _____ _____    ______ ____
ROOT
ATOM      1  N   UNL     1       1.807   8.016  19.609  0.00  0.00    +0.000 N 
ATOM      2  C   UNL     1       0.992   9.151  19.696  0.00  0.00    +0.000 A 
ATOM      3  C   UNL     1       0.906   9.649  18.405  0.00  0.00    +0.000 A 
ATOM      4  C   UNL     1       1.678   8.837  17.551  0.00  0.00    +0.000 A 
ATOM      5  C   UNL     1       2.246   7.816  18.296  0.00  0.00    +0.000 A 
ENDROOT
BRANCH   5   6
ATOM      6  C   UNL     1       3.112   6.719  17.800  0.00  0.00    +0.000 A 
ATOM      7  C   UNL     1       2.705   5.381  17.758  0.00  0.00    +0.000 A 
ATOM      8  C   UNL     1       3.509   4.377  17.220  0.00  0.00    +0.000 A 
ATOM      9  C   UNL     1       4.792   4.668  16.773  0.00  0.00    +0.000 A 
ATOM     10  C   UNL     1       5.609   3.660  16.253  0.00  0.00    +0.000 A 
ATOM     11  C   UNL     1       6.906   3.952  15.831  0.00  0.00    +0.000 A 
ATOM     12  C   UNL     1       7.393   5.254  15.932  0.00  0.00    +0.000 A 
ATOM     13  C   UNL     1       6.578   6.269  16.444  0.00  0.00    +0.000 A 
ATOM     14  C   UNL     1       5.268   5.996  16.863  0.00  0.00    +0.000 A 
ATOM     15  C   UNL     1       4.418   7.001  17.366  0.00  0.00    +0.000 A 
ENDBRANCH   5   6
BRANCH   2  16
ATOM     16  C   UNL     1       0.331   9.684  20.910  0.00  0.00    +0.000 A 
ATOM     17  C   UNL     1      -0.112   8.801  21.909  0.00  0.00    +0.000 A 
ATOM     18  C   UNL     1      -0.710   9.271  23.087  0.00  0.00    +0.000 A 
ATOM     19  C   UNL     1      -0.853  10.638  23.299  0.00  0.00    +0.000 A 
ATOM     20  C   UNL     1      -0.448  11.515  22.311  0.00  0.00    +0.000 A 
ATOM     21  F   UNL     1      -0.575  12.834  22.496  0.00  0.00    +0.000 F 
ATOM     22  C   UNL     1       0.098  11.049  21.119  0.00  0.00    +0.000 A 
ENDBRANCH   2  16
BRANCH   1  23
ATOM     23  C   UNL     1       2.208   7.197  20.748  0.00  0.00    +0.000 C 
BRANCH  23  28
ATOM     24  N   UNL     1       2.980   2.699  21.801  0.00  0.00    +0.000 NA
ATOM     25  C   UNL     1       2.032   3.445  21.370  0.00  0.00    +0.000 C 
ATOM     26  N   UNL     1       0.800   2.996  21.076  0.00  0.00    +0.000 N 
ATOM     27  N   UNL     1       2.359   4.757  21.222  0.00  0.00    +0.000 N 
ATOM     28  C   UNL     1       1.574   5.804  20.752  0.00  0.00    +0.000 C 
ATOM     29  O   UNL     1       0.426   5.634  20.324  0.00  0.00    +0.000 OA
ATOM     30  H   UNL     1       2.628   1.746  21.913  0.00  0.00    +0.000 HD
ATOM     31  H   UNL     1       0.726   2.043  20.747  0.00  0.00    +0.000 HD
ATOM     32  H   UNL     1       0.226   3.654  20.547  0.00  0.00    +0.000 HD
ATOM     33  H   UNL     1       3.316   4.920  21.508  0.00  0.00    +0.000 HD
ENDBRANCH  23  28
ENDBRANCH   1  23
TORSDOF 4
ENDMDL
MODEL 7
REMARK VINA RESULT:      -8.8      6.197     10.992
REMARK  Name = 
REMARK  4 active torsions:
REMARK  status: ('A' for Active; 'I' for Inactive)
REMARK    1  A    between atoms: C_5  and  C_7
REMARK    2  A    between atoms: C_7  and  N_8
REMARK    3  A    between atoms: C_9  and  C_10
REMARK    4  A    between atoms: C_19  and  C_20
REMARK                            x       y       z     vdW  Elec       q    Type
REMARK                         _______ _______ _______ _____ _____    ______ ____
ROOT
ATOM      1  N   UNL     1      -0.369  10.995  21.420  0.00  0.00    +0.000 N 
ATOM      2  C   UNL     1      -1.031  11.200  22.636  0.00  0.00    +0.000 A 
ATOM      3  C   UNL     1      -0.843  10.037  23.366  0.00  0.00    +0.000 A 
ATOM      4  C   UNL     1      -0.094   9.130  22.590  0.00  0.00    +0.000 A 
ATOM      5  C   UNL     1       0.205   9.720  21.373  0.00  0.00    +0.000 A 
ENDROOT
BRANCH   5   6
ATOM      6  C   UNL     1       0.996   9.136  20.263  0.00  0.00    +0.000 A 
ATOM      7  C   UNL     1       1.144   9.759  19.018  0.00  0.00    +0.000 A 
ATOM      8  C   UNL     1       1.952   9.227  18.014  0.00  0.00    +0.000 A 
ATOM      9  C   UNL     1       2.582   8.002  18.194  0.00  0.00    +0.000 A 
ATOM     10  C   UNL     1       3.375   7.456  17.180  0.00  0.00    +0.000 A 
ATOM     11  C   UNL     1       3.983   6.212  17.355  0.00  0.00    +0.000 A 
ATOM     12  C   UNL     1       3.796   5.509  18.543  0.00  0.00    +0.000 A 
ATOM     13  C   UNL     1       3.011   6.053  19.565  0.00  0.00    +0.000 A 
ATOM     14  C   UNL     1       2.400   7.306  19.410  0.00  0.00    +0.000 A 
ATOM     15  C   UNL     1       1.618   7.888  20.428  0.00  0.00    +0.000 A 
ENDBRANCH   5   6
BRANCH   2  16
ATOM     16  C   UNL     1      -1.751  12.422  23.065  0.00  0.00    +0.000 A 
ATOM     17  C   UNL     1      -1.066  13.647  23.142  0.00  0.00    +0.000 A 
ATOM     18  C   UNL     1      -1.722  14.830  23.510  0.00  0.00    +0.000 A 
ATOM     19  C   UNL     1      -3.085  14.815  23.784  0.00  0.00    +0.000 A 
ATOM     20  C   UNL     1      -3.764  13.611  23.740  0.00  0.00    +0.000 A 
ATOM     21  F   UNL     1      -5.077  13.576  23.999  0.00  0.00    +0.000 F 
ATOM     22  C   UNL     1      -3.104  12.428  23.426  0.00  0.00    +0.000 A 
ENDBRANCH   2  16
BRANCH   1  23
ATOM     23  C   UNL     1      -0.346  11.953  20.319  0.00  0.00    +0.000 C 
BRANCH  23  28
ATOM     24  N   UNL     1      -2.255  11.198  16.109  0.00  0.00    +0.000 NA
ATOM     25  C   UNL     1      -2.614  11.547  17.288  0.00  0.00    +0.000 C 
ATOM     26  N   UNL     1      -3.884  11.820  17.634  0.00  0.00    +0.000 N 
ATOM     27  N   UNL     1      -1.602  11.630  18.193  0.00  0.00    +0.000 N 
ATOM     28  C   UNL     1      -1.657  12.007  19.531  0.00  0.00    +0.000 C 
ATOM     29  O   UNL     1      -2.699  12.399  20.068  0.00  0.00    +0.000 OA
ATOM     30  H   UNL     1      -3.084  11.129  15.515  0.00  0.00    +0.000 HD
ATOM     31  H   UNL     1      -4.483  12.201  16.915  0.00  0.00    +0.000 HD
ATOM     32  H   UNL     1      -3.984  12.287  18.537  0.00  0.00    +0.000 HD
ATOM     33  H   UNL     1      -0.721  11.373  17.767  0.00  0.00    +0.000 HD
ENDBRANCH  23  28
ENDBRANCH   1  23
TORSDOF 4
ENDMDL
MODEL 8
REMARK VINA RESULT:      -8.6      6.285     10.998
REMARK  Name = 
REMARK  4 active torsions:
REMARK  status: ('A' for Active; 'I' for Inactive)
REMARK    1  A    between atoms: C_5  and  C_7
REMARK    2  A    between atoms: C_7  and  N_8
REMARK    3  A    between atoms: C_9  and  C_10
REMARK    4  A    between atoms: C_19  and  C_20
REMARK                            x       y       z     vdW  Elec       q    Type
REMARK                         _______ _______ _______ _____ _____    ______ ____
ROOT
ATOM      1  N   UNL     1      -0.413  10.889  21.039  0.00  0.00    +0.000 N 
ATOM      2  C   UNL     1      -1.023  11.233  22.250  0.00  0.00    +0.000 A 
ATOM      3  C   UNL     1      -0.628  10.264  23.159  0.00  0.00    +0.000 A 
ATOM      4  C   UNL     1       0.195   9.331  22.498  0.00  0.00    +0.000 A 
ATOM      5  C   UNL     1       0.333   9.713  21.173  0.00  0.00    +0.000 A 
ENDROOT
BRANCH   5   6
ATOM      6  C   UNL     1       1.131   9.035  20.123  0.00  0.00    +0.000 A 
ATOM      7  C   UNL     1       1.357   9.589  18.858  0.00  0.00    +0.000 A 
ATOM      8  C   UNL     1       2.171   8.968  17.911  0.00  0.00    +0.000 A 
ATOM      9  C   UNL     1       2.728   7.723  18.171  0.00  0.00    +0.000 A 
ATOM     10  C   UNL     1       3.526   7.087  17.215  0.00  0.00    +0.000 A 
ATOM     11  C   UNL     1       4.060   5.824  17.471  0.00  0.00    +0.000 A 
ATOM     12  C   UNL     1       3.794   5.189  18.682  0.00  0.00    +0.000 A 
ATOM     13  C   UNL     1       3.002   5.822  19.646  0.00  0.00    +0.000 A 
ATOM     14  C   UNL     1       2.465   7.096  19.410  0.00  0.00    +0.000 A 
ATOM     15  C   UNL     1       1.679   7.766  20.370  0.00  0.00    +0.000 A 
ENDBRANCH   5   6
BRANCH   2  16
ATOM     16  C   UNL     1      -1.883  12.411  22.513  0.00  0.00    +0.000 A 
ATOM     17  C   UNL     1      -1.298  13.672  22.722  0.00  0.00    +0.000 A 
ATOM     18  C   UNL     1      -2.080  14.814  22.939  0.00  0.00    +0.000 A 
ATOM     19  C   UNL     1      -3.468  14.722  22.925  0.00  0.00    +0.000 A 
ATOM     20  C   UNL     1      -4.055  13.483  22.750  0.00  0.00    +0.000 A 
ATOM     21  F   UNL     1      -5.389  13.374  22.732  0.00  0.00    +0.000 F 
ATOM     22  C   UNL     1      -3.280  12.339  22.587  0.00  0.00    +0.000 A 
ENDBRANCH   2  16
BRANCH   1  23
ATOM     23  C   UNL     1      -0.593  11.615  19.787  0.00  0.00    +0.000 C 
BRANCH  23  28
ATOM     24  N   UNL     1      -4.994  12.863  18.781  0.00  0.00    +0.000 NA
ATOM     25  C   UNL     1      -4.158  11.938  18.487  0.00  0.00    +0.000 C 
ATOM     26  N   UNL     1      -4.425  10.925  17.646  0.00  0.00    +0.000 N 
ATOM     27  N   UNL     1      -2.947  12.047  19.099  0.00  0.00    +0.000 N 
ATOM     28  C   UNL     1      -1.848  11.198  19.015  0.00  0.00    +0.000 C 
ATOM     29  O   UNL     1      -1.873  10.139  18.379  0.00  0.00    +0.000 OA
ATOM     30  H   UNL     1      -5.853  12.714  18.247  0.00  0.00    +0.000 HD
ATOM     31  H   UNL     1      -5.384  10.612  17.596  0.00  0.00    +0.000 HD
ATOM     32  H   UNL     1      -3.749  10.160  17.678  0.00  0.00    +0.000 HD
ATOM     33  H   UNL     1      -2.915  12.876  19.679  0.00  0.00    +0.000 HD
ENDBRANCH  23  28
ENDBRANCH   1  23
TORSDOF 4
ENDMDL
MODEL 9
REMARK VINA RESULT:      -8.6      3.674      5.651
REMARK  Name = 
REMARK  4 active torsions:
REMARK  status: ('A' for Active; 'I' for Inactive)
REMARK    1  A    between atoms: C_5  and  C_7
REMARK    2  A    between atoms: C_7  and  N_8
REMARK    3  A    between atoms: C_9  and  C_10
REMARK    4  A    between atoms: C_19  and  C_20
REMARK                            x       y       z     vdW  Elec       q    Type
REMARK                         _______ _______ _______ _____ _____    ______ ____
ROOT
ATOM      1  N   UNL     1       2.124   7.731  19.527  0.00  0.00    +0.000 N 
ATOM      2  C   UNL     1       2.722   7.366  18.316  0.00  0.00    +0.000 A 
ATOM      3  C   UNL     1       2.284   8.297  17.386  0.00  0.00    +0.000 A 
ATOM      4  C   UNL     1       1.413   9.201  18.025  0.00  0.00    +0.000 A 
ATOM      5  C   UNL     1       1.307   8.854  19.362  0.00  0.00    +0.000 A 
ENDROOT
BRANCH   5   6
ATOM      6  C   UNL     1       0.517   9.546  20.409  0.00  0.00    +0.000 A 
ATOM      7  C   UNL     1       0.506   9.146  21.750  0.00  0.00    +0.000 A 
ATOM      8  C   UNL     1      -0.186   9.856  22.731  0.00  0.00    +0.000 A 
ATOM      9  C   UNL     1      -0.962  10.955  22.386  0.00  0.00    +0.000 A 
ATOM     10  C   UNL     1      -1.675  11.655  23.364  0.00  0.00    +0.000 A 
ATOM     11  C   UNL     1      -2.476  12.742  23.009  0.00  0.00    +0.000 A 
ATOM     12  C   UNL     1      -2.569  13.129  21.674  0.00  0.00    +0.000 A 
ATOM     13  C   UNL     1      -1.853  12.437  20.691  0.00  0.00    +0.000 A 
ATOM     14  C   UNL     1      -1.036  11.349  21.031  0.00  0.00    +0.000 A 
ATOM     15  C   UNL     1      -0.288  10.645  20.066  0.00  0.00    +0.000 A 
ENDBRANCH   5   6
BRANCH   2  16
ATOM     16  C   UNL     1       3.657   6.239  18.085  0.00  0.00    +0.000 A 
ATOM     17  C   UNL     1       5.041   6.440  18.226  0.00  0.00    +0.000 A 
ATOM     18  C   UNL     1       5.953   5.391  18.050  0.00  0.00    +0.000 A 
ATOM     19  C   UNL     1       5.496   4.111  17.754  0.00  0.00    +0.000 A 
ATOM     20  C   UNL     1       4.139   3.908  17.584  0.00  0.00    +0.000 A 
ATOM     21  F   UNL     1       3.679   2.683  17.300  0.00  0.00    +0.000 F 
ATOM     22  C   UNL     1       3.236   4.959  17.707  0.00  0.00    +0.000 A 
ENDBRANCH   2  16
BRANCH   1  23
ATOM     23  C   UNL     1       2.272   6.993  20.777  0.00  0.00    +0.000 C 
BRANCH  23  28
ATOM     24  N   UNL     1       2.940   2.489  21.876  0.00  0.00    +0.000 NA
ATOM     25  C   UNL     1       2.024   3.243  21.393  0.00  0.00    +0.000 C 
ATOM     26  N   UNL     1       0.806   2.806  21.033  0.00  0.00    +0.000 N 
ATOM     27  N   UNL     1       2.372   4.552  21.262  0.00  0.00    +0.000 N 
ATOM     28  C   UNL     1       1.624   5.606  20.748  0.00  0.00    +0.000 C 
ATOM     29  O   UNL     1       0.501   5.447  20.259  0.00  0.00    +0.000 OA
ATOM     30  H   UNL     1       2.572   1.539  21.970  0.00  0.00    +0.000 HD
ATOM     31  H   UNL     1       0.740   1.854  20.701  0.00  0.00    +0.000 HD
ATOM     32  H   UNL     1       0.269   3.470  20.472  0.00  0.00    +0.000 HD
ATOM     33  H   UNL     1       3.314   4.706  21.599  0.00  0.00    +0.000 HD
ENDBRANCH  23  28
ENDBRANCH   1  23
TORSDOF 4
ENDMDL
