MODEL 1
REMARK VINA RESULT:      -6.3      0.000      0.000
REMARK  Name = 
REMARK  5 active torsions:
REMARK  status: ('A' for Active; 'I' for Inactive)
REMARK    1  A    between atoms: C_2  and  C_3
REMARK    2  A    between atoms: C_3  and  S_4
REMARK    3  A    between atoms: S_4  and  C_5
REMARK    4  A    between atoms: C_6  and  C_7
REMARK    5  A    between atoms: C_15  and  C_16
REMARK                            x       y       z     vdW  Elec       q    Type
REMARK                         _______ _______ _______ _____ _____    ______ ____
ROOT
ATOM      1  C   UNL     1       6.410   6.819  17.448  0.00  0.00    +0.000 C 
ATOM      2  C   UNL     1       5.162   6.306  17.559  0.00  0.00    +0.000 C 
ATOM      3  C   UNL     1       4.941   4.785  17.702  0.00  0.00    +0.000 C 
ATOM      4  C   UNL     1       3.591   4.341  17.063  0.00  0.00    +0.000 C 
ATOM      5  C   UNL     1       3.240   2.885  17.369  0.00  0.00    +0.000 C 
ATOM      6  C   UNL     1       3.152   2.665  18.875  0.00  0.00    +0.000 C 
ATOM      7  C   UNL     1       4.444   3.062  19.577  0.00  0.00    +0.000 C 
ATOM      8  C   UNL     1       4.868   4.490  19.233  0.00  0.00    +0.000 C 
ATOM      9  C   UNL     1       6.140   4.014  17.055  0.00  0.00    +0.000 C 
ATOM     10  C   UNL     1       7.460   4.626  17.468  0.00  0.00    +0.000 C 
ATOM     11  O   UNL     1       8.478   3.963  17.664  0.00  0.00    +0.000 OA
ATOM     12  N   UNL     1       7.496   5.988  17.527  0.00  0.00    +0.000 N 
ATOM     13  H   UNL     1       8.411   6.383  17.695  0.00  0.00    +0.000 HD
ENDROOT
BRANCH   2  14
ATOM     14  C   UNL     1       3.954   7.226  17.629  0.00  0.00    +0.000 C 
ATOM     15  N   UNL     1       2.952   7.989  17.689  0.00  0.00    +0.000 NA
ENDBRANCH   2  14
BRANCH   9  16
ATOM     16  C   UNL     1       6.118   4.024  15.577  0.00  0.00    +0.000 C 
ATOM     17  N   UNL     1       6.086   4.005  14.419  0.00  0.00    +0.000 NA
ENDBRANCH   9  16
BRANCH   1  18
ATOM     18  S   UNL     1       6.784   8.515  17.342  0.00  0.00    +0.000 S 
BRANCH  18  19
ATOM     19  C   UNL     1       8.388   8.643  18.201  0.00  0.00    +0.000 C 
BRANCH  19  21
ATOM     20  C   UNL     1       9.513  10.533  19.401  0.00  0.00    +0.000 C 
ATOM     21  C   UNL     1       8.789  10.076  18.370  0.00  0.00    +0.000 C 
ENDBRANCH  19  21
ENDBRANCH  18  19
ENDBRANCH   1  18
TORSDOF 5
ENDMDL
MODEL 2
REMARK VINA RESULT:      -6.2      3.090      5.387
REMARK  Name = 
REMARK  5 active torsions:
REMARK  status: ('A' for Active; 'I' for Inactive)
REMARK    1  A    between atoms: C_2  and  C_3
REMARK    2  A    between atoms: C_3  and  S_4
REMARK    3  A    between atoms: S_4  and  C_5
REMARK    4  A    between atoms: C_6  and  C_7
REMARK    5  A    between atoms: C_15  and  C_16
REMARK                            x       y       z     vdW  Elec       q    Type
REMARK                         _______ _______ _______ _____ _____    ______ ____
ROOT
ATOM      1  C   UNL     1       3.375   5.293  19.456  0.00  0.00    +0.000 C 
ATOM      2  C   UNL     1       3.859   5.919  18.358  0.00  0.00    +0.000 C 
ATOM      3  C   UNL     1       5.008   5.298  17.534  0.00  0.00    +0.000 C 
ATOM      4  C   UNL     1       5.897   6.395  16.874  0.00  0.00    +0.000 C 
ATOM      5  C   UNL     1       6.912   5.822  15.885  0.00  0.00    +0.000 C 
ATOM      6  C   UNL     1       6.199   5.052  14.779  0.00  0.00    +0.000 C 
ATOM      7  C   UNL     1       5.318   3.945  15.342  0.00  0.00    +0.000 C 
ATOM      8  C   UNL     1       4.339   4.470  16.393  0.00  0.00    +0.000 C 
ATOM      9  C   UNL     1       5.870   4.365  18.450  0.00  0.00    +0.000 C 
ATOM     10  C   UNL     1       4.987   3.479  19.300  0.00  0.00    +0.000 C 
ATOM     11  O   UNL     1       5.281   2.321  19.597  0.00  0.00    +0.000 OA
ATOM     12  N   UNL     1       3.865   4.063  19.809  0.00  0.00    +0.000 N 
ATOM     13  H   UNL     1       3.347   3.492  20.462  0.00  0.00    +0.000 HD
ENDROOT
BRANCH   2  14
ATOM     14  C   UNL     1       3.224   7.207  17.862  0.00  0.00    +0.000 C 
ATOM     15  N   UNL     1       2.696   8.276  17.450  0.00  0.00    +0.000 NA
ENDBRANCH   2  14
BRANCH   9  16
ATOM     16  C   UNL     1       6.745   5.103  19.385  0.00  0.00    +0.000 C 
ATOM     17  N   UNL     1       7.446   5.655  20.124  0.00  0.00    +0.000 NA
ENDBRANCH   9  16
BRANCH   1  18
ATOM     18  S   UNL     1       2.048   5.865  20.425  0.00  0.00    +0.000 S 
BRANCH  18  19
ATOM     19  C   UNL     1       0.918   4.433  20.471  0.00  0.00    +0.000 C 
BRANCH  19  21
ATOM     20  C   UNL     1       0.815   2.389  19.026  0.00  0.00    +0.000 C 
ATOM     21  C   UNL     1       0.909   3.720  19.154  0.00  0.00    +0.000 C 
ENDBRANCH  19  21
ENDBRANCH  18  19
ENDBRANCH   1  18
TORSDOF 5
ENDMDL
MODEL 3
REMARK VINA RESULT:      -5.7      2.838      5.191
REMARK  Name = 
REMARK  5 active torsions:
REMARK  status: ('A' for Active; 'I' for Inactive)
REMARK    1  A    between atoms: C_2  and  C_3
REMARK    2  A    between atoms: C_3  and  S_4
REMARK    3  A    between atoms: S_4  and  C_5
REMARK    4  A    between atoms: C_6  and  C_7
REMARK    5  A    between atoms: C_15  and  C_16
REMARK                            x       y       z     vdW  Elec       q    Type
REMARK                         _______ _______ _______ _____ _____    ______ ____
ROOT
ATOM      1  C   UNL     1       5.564   4.613  16.171  0.00  0.00    +0.000 C 
ATOM      2  C   UNL     1       4.475   4.688  16.972  0.00  0.00    +0.000 C 
ATOM      3  C   UNL     1       4.253   5.905  17.895  0.00  0.00    +0.000 C 
ATOM      4  C   UNL     1       3.489   5.507  19.194  0.00  0.00    +0.000 C 
ATOM      5  C   UNL     1       3.068   6.716  20.029  0.00  0.00    +0.000 C 
ATOM      6  C   UNL     1       2.173   7.641  19.211  0.00  0.00    +0.000 C 
ATOM      7  C   UNL     1       2.856   8.091  17.926  0.00  0.00    +0.000 C 
ATOM      8  C   UNL     1       3.360   6.908  17.099  0.00  0.00    +0.000 C 
ATOM      9  C   UNL     1       5.631   6.562  18.242  0.00  0.00    +0.000 C 
ATOM     10  C   UNL     1       6.490   6.701  17.006  0.00  0.00    +0.000 C 
ATOM     11  O   UNL     1       7.250   7.649  16.816  0.00  0.00    +0.000 OA
ATOM     12  N   UNL     1       6.451   5.656  16.130  0.00  0.00    +0.000 N 
ATOM     13  H   UNL     1       7.111   5.715  15.367  0.00  0.00    +0.000 HD
ENDROOT
BRANCH   2  14
ATOM     14  C   UNL     1       3.402   3.613  16.918  0.00  0.00    +0.000 C 
ATOM     15  N   UNL     1       2.513   2.720  16.874  0.00  0.00    +0.000 NA
ENDBRANCH   2  14
BRANCH   9  16
ATOM     16  C   UNL     1       6.425   5.786  19.218  0.00  0.00    +0.000 C 
ATOM     17  N   UNL     1       7.062   5.202  19.990  0.00  0.00    +0.000 NA
ENDBRANCH   9  16
BRANCH   1  18
ATOM     18  S   UNL     1       5.888   3.322  15.050  0.00  0.00    +0.000 S 
BRANCH  18  19
ATOM     19  C   UNL     1       6.210   4.202  13.485  0.00  0.00    +0.000 C 
BRANCH  19  21
ATOM     20  C   UNL     1       4.662   3.343  11.712  0.00  0.00    +0.000 C 
ATOM     21  C   UNL     1       5.861   3.342  12.309  0.00  0.00    +0.000 C 
ENDBRANCH  19  21
ENDBRANCH  18  19
ENDBRANCH   1  18
TORSDOF 5
ENDMDL
MODEL 4
REMARK VINA RESULT:      -5.6      3.741      6.252
REMARK  Name = 
REMARK  5 active torsions:
REMARK  status: ('A' for Active; 'I' for Inactive)
REMARK    1  A    between atoms: C_2  and  C_3
REMARK    2  A    between atoms: C_3  and  S_4
REMARK    3  A    between atoms: S_4  and  C_5
REMARK    4  A    between atoms: C_6  and  C_7
REMARK    5  A    between atoms: C_15  and  C_16
REMARK                            x       y       z     vdW  Elec       q    Type
REMARK                         _______ _______ _______ _____ _____    ______ ____
ROOT
ATOM      1  C   UNL     1       2.992   4.525  20.491  0.00  0.00    +0.000 C 
ATOM      2  C   UNL     1       3.854   3.979  19.603  0.00  0.00    +0.000 C 
ATOM      3  C   UNL     1       4.261   4.740  18.323  0.00  0.00    +0.000 C 
ATOM      4  C   UNL     1       4.568   3.762  17.148  0.00  0.00    +0.000 C 
ATOM      5  C   UNL     1       5.174   4.464  15.934  0.00  0.00    +0.000 C 
ATOM      6  C   UNL     1       6.470   5.170  16.320  0.00  0.00    +0.000 C 
ATOM      7  C   UNL     1       6.253   6.160  17.457  0.00  0.00    +0.000 C 
ATOM      8  C   UNL     1       5.576   5.509  18.664  0.00  0.00    +0.000 C 
ATOM      9  C   UNL     1       3.130   5.746  17.925  0.00  0.00    +0.000 C 
ATOM     10  C   UNL     1       2.639   6.512  19.133  0.00  0.00    +0.000 C 
ATOM     11  O   UNL     1       2.284   7.689  19.086  0.00  0.00    +0.000 OA
ATOM     12  N   UNL     1       2.520   5.795  20.287  0.00  0.00    +0.000 N 
ATOM     13  H   UNL     1       2.087   6.292  21.054  0.00  0.00    +0.000 HD
ENDROOT
BRANCH   2  14
ATOM     14  C   UNL     1       4.507   2.636  19.888  0.00  0.00    +0.000 C 
ATOM     15  N   UNL     1       5.049   1.522  20.125  0.00  0.00    +0.000 NA
ENDBRANCH   2  14
BRANCH   9  16
ATOM     16  C   UNL     1       1.944   5.094  17.332  0.00  0.00    +0.000 C 
ATOM     17  N   UNL     1       0.998   4.588  16.894  0.00  0.00    +0.000 NA
ENDBRANCH   9  16
BRANCH   1  18
ATOM     18  S   UNL     1       2.507   3.789  21.991  0.00  0.00    +0.000 S 
BRANCH  18  19
ATOM     19  C   UNL     1       1.248   2.576  21.473  0.00  0.00    +0.000 C 
BRANCH  19  21
ATOM     20  C   UNL     1       0.747   2.058  19.073  0.00  0.00    +0.000 C 
ATOM     21  C   UNL     1       0.720   2.905  20.111  0.00  0.00    +0.000 C 
ENDBRANCH  19  21
ENDBRANCH  18  19
ENDBRANCH   1  18
TORSDOF 5
ENDMDL
MODEL 5
REMARK VINA RESULT:      -5.4      3.075      4.008
REMARK  Name = 
REMARK  5 active torsions:
REMARK  status: ('A' for Active; 'I' for Inactive)
REMARK    1  A    between atoms: C_2  and  C_3
REMARK    2  A    between atoms: C_3  and  S_4
REMARK    3  A    between atoms: S_4  and  C_5
REMARK    4  A    between atoms: C_6  and  C_7
REMARK    5  A    between atoms: C_15  and  C_16
REMARK                            x       y       z     vdW  Elec       q    Type
REMARK                         _______ _______ _______ _____ _____    ______ ____
ROOT
ATOM      1  C   UNL     1       5.427   4.459  19.044  0.00  0.00    +0.000 C 
ATOM      2  C   UNL     1       4.125   4.693  18.763  0.00  0.00    +0.000 C 
ATOM      3  C   UNL     1       3.025   3.718  19.232  0.00  0.00    +0.000 C 
ATOM      4  C   UNL     1       1.820   3.694  18.243  0.00  0.00    +0.000 C 
ATOM      5  C   UNL     1       0.627   2.904  18.778  0.00  0.00    +0.000 C 
ATOM      6  C   UNL     1       0.149   3.493  20.101  0.00  0.00    +0.000 C 
ATOM      7  C   UNL     1       1.268   3.537  21.133  0.00  0.00    +0.000 C 
ATOM      8  C   UNL     1       2.510   4.255  20.604  0.00  0.00    +0.000 C 
ATOM      9  C   UNL     1       3.629   2.283  19.402  0.00  0.00    +0.000 C 
ATOM     10  C   UNL     1       4.950   2.338  20.135  0.00  0.00    +0.000 C 
ATOM     11  O   UNL     1       5.320   1.469  20.923  0.00  0.00    +0.000 OA
ATOM     12  N   UNL     1       5.774   3.375  19.808  0.00  0.00    +0.000 N 
ATOM     13  H   UNL     1       6.694   3.335  20.224  0.00  0.00    +0.000 HD
ENDROOT
BRANCH   2  14
ATOM     14  C   UNL     1       3.708   5.970  18.051  0.00  0.00    +0.000 C 
ATOM     15  N   UNL     1       3.363   7.029  17.460  0.00  0.00    +0.000 NA
ENDBRANCH   2  14
BRANCH   9  16
ATOM     16  C   UNL     1       3.891   1.599  18.119  0.00  0.00    +0.000 C 
ATOM     17  N   UNL     1       4.069   1.047  17.115  0.00  0.00    +0.000 NA
ENDBRANCH   9  16
BRANCH   1  18
ATOM     18  S   UNL     1       6.744   5.514  18.621  0.00  0.00    +0.000 S 
BRANCH  18  19
ATOM     19  C   UNL     1       7.525   4.661  17.210  0.00  0.00    +0.000 C 
BRANCH  19  21
ATOM     20  C   UNL     1       5.975   3.835  15.424  0.00  0.00    +0.000 C 
ATOM     21  C   UNL     1       6.702   4.820  15.970  0.00  0.00    +0.000 C 
ENDBRANCH  19  21
ENDBRANCH  18  19
ENDBRANCH   1  18
TORSDOF 5
ENDMDL
MODEL 6
REMARK VINA RESULT:      -5.4      3.121      4.876
REMARK  Name = 
REMARK  5 active torsions:
REMARK  status: ('A' for Active; 'I' for Inactive)
REMARK    1  A    between atoms: C_2  and  C_3
REMARK    2  A    between atoms: C_3  and  S_4
REMARK    3  A    between atoms: S_4  and  C_5
REMARK    4  A    between atoms: C_6  and  C_7
REMARK    5  A    between atoms: C_15  and  C_16
REMARK                            x       y       z     vdW  Elec       q    Type
REMARK                         _______ _______ _______ _____ _____    ______ ____
ROOT
ATOM      1  C   UNL     1       5.316   4.406  17.214  0.00  0.00    +0.000 C 
ATOM      2  C   UNL     1       5.136   4.594  18.542  0.00  0.00    +0.000 C 
ATOM      3  C   UNL     1       3.778   4.290  19.208  0.00  0.00    +0.000 C 
ATOM      4  C   UNL     1       3.516   5.225  20.428  0.00  0.00    +0.000 C 
ATOM      5  C   UNL     1       2.285   4.816  21.236  0.00  0.00    +0.000 C 
ATOM      6  C   UNL     1       2.437   3.389  21.751  0.00  0.00    +0.000 C 
ATOM      7  C   UNL     1       2.681   2.405  20.614  0.00  0.00    +0.000 C 
ATOM      8  C   UNL     1       3.861   2.823  19.736  0.00  0.00    +0.000 C 
ATOM      9  C   UNL     1       2.630   4.423  18.152  0.00  0.00    +0.000 C 
ATOM     10  C   UNL     1       3.005   3.737  16.858  0.00  0.00    +0.000 C 
ATOM     11  O   UNL     1       2.192   3.147  16.148  0.00  0.00    +0.000 OA
ATOM     12  N   UNL     1       4.301   3.881  16.458  0.00  0.00    +0.000 N 
ATOM     13  H   UNL     1       4.507   3.511  15.540  0.00  0.00    +0.000 HD
ENDROOT
BRANCH   2  14
ATOM     14  C   UNL     1       6.296   5.029  19.423  0.00  0.00    +0.000 C 
ATOM     15  N   UNL     1       7.258   5.389  20.154  0.00  0.00    +0.000 NA
ENDBRANCH   2  14
BRANCH   9  16
ATOM     16  C   UNL     1       2.309   5.824  17.805  0.00  0.00    +0.000 C 
ATOM     17  N   UNL     1       2.087   6.929  17.539  0.00  0.00    +0.000 NA
ENDBRANCH   9  16
BRANCH   1  18
ATOM     18  S   UNL     1       6.814   4.658  16.366  0.00  0.00    +0.000 S 
BRANCH  18  19
ATOM     19  C   UNL     1       6.271   5.072  14.674  0.00  0.00    +0.000 C 
BRANCH  19  21
ATOM     20  C   UNL     1       5.798   3.561  12.733  0.00  0.00    +0.000 C 
ATOM     21  C   UNL     1       6.606   3.966  13.722  0.00  0.00    +0.000 C 
ENDBRANCH  19  21
ENDBRANCH  18  19
ENDBRANCH   1  18
TORSDOF 5
ENDMDL
MODEL 7
REMARK VINA RESULT:      -5.3      3.161      4.833
REMARK  Name = 
REMARK  5 active torsions:
REMARK  status: ('A' for Active; 'I' for Inactive)
REMARK    1  A    between atoms: C_2  and  C_3
REMARK    2  A    between atoms: C_3  and  S_4
REMARK    3  A    between atoms: S_4  and  C_5
REMARK    4  A    between atoms: C_6  and  C_7
REMARK    5  A    between atoms: C_15  and  C_16
REMARK                            x       y       z     vdW  Elec       q    Type
REMARK                         _______ _______ _______ _____ _____    ______ ____
ROOT
ATOM      1  C   UNL     1       3.111   5.278  19.404  0.00  0.00    +0.000 C 
ATOM      2  C   UNL     1       3.635   5.901  18.322  0.00  0.00    +0.000 C 
ATOM      3  C   UNL     1       4.807   5.273  17.538  0.00  0.00    +0.000 C 
ATOM      4  C   UNL     1       5.723   6.366  16.907  0.00  0.00    +0.000 C 
ATOM      5  C   UNL     1       6.767   5.787  15.952  0.00  0.00    +0.000 C 
ATOM      6  C   UNL     1       6.087   5.020  14.823  0.00  0.00    +0.000 C 
ATOM      7  C   UNL     1       5.182   3.918  15.357  0.00  0.00    +0.000 C 
ATOM      8  C   UNL     1       4.171   4.449  16.375  0.00  0.00    +0.000 C 
ATOM      9  C   UNL     1       5.633   4.336  18.482  0.00  0.00    +0.000 C 
ATOM     10  C   UNL     1       4.717   3.455  19.302  0.00  0.00    +0.000 C 
ATOM     11  O   UNL     1       4.995   2.296  19.608  0.00  0.00    +0.000 OA
ATOM     12  N   UNL     1       3.582   4.046  19.773  0.00  0.00    +0.000 N 
ATOM     13  H   UNL     1       3.040   3.478  20.409  0.00  0.00    +0.000 HD
ENDROOT
BRANCH   2  14
ATOM     14  C   UNL     1       3.024   7.193  17.805  0.00  0.00    +0.000 C 
ATOM     15  N   UNL     1       2.517   8.265  17.377  0.00  0.00    +0.000 NA
ENDBRANCH   2  14
BRANCH   9  16
ATOM     16  C   UNL     1       6.481   5.070  19.445  0.00  0.00    +0.000 C 
ATOM     17  N   UNL     1       7.170   5.636  20.184  0.00  0.00    +0.000 NA
ENDBRANCH   9  16
BRANCH   1  18
ATOM     18  S   UNL     1       1.756   5.858  20.328  0.00  0.00    +0.000 S 
BRANCH  18  19
ATOM     19  C   UNL     1       2.264   7.545  20.800  0.00  0.00    +0.000 C 
BRANCH  19  21
ATOM     20  C   UNL     1       0.512   8.912  21.956  0.00  0.00    +0.000 C 
ATOM     21  C   UNL     1       1.085   8.468  20.830  0.00  0.00    +0.000 C 
ENDBRANCH  19  21
ENDBRANCH  18  19
ENDBRANCH   1  18
TORSDOF 5
ENDMDL
MODEL 8
REMARK VINA RESULT:      -5.2      7.980     10.514
REMARK  Name = 
REMARK  5 active torsions:
REMARK  status: ('A' for Active; 'I' for Inactive)
REMARK    1  A    between atoms: C_2  and  C_3
REMARK    2  A    between atoms: C_3  and  S_4
REMARK    3  A    between atoms: S_4  and  C_5
REMARK    4  A    between atoms: C_6  and  C_7
REMARK    5  A    between atoms: C_15  and  C_16
REMARK                            x       y       z     vdW  Elec       q    Type
REMARK                         _______ _______ _______ _____ _____    ______ ____
ROOT
ATOM      1  C   UNL     1      -1.820  10.485  18.015  0.00  0.00    +0.000 C 
ATOM      2  C   UNL     1      -2.041  11.409  18.979  0.00  0.00    +0.000 C 
ATOM      3  C   UNL     1      -0.875  11.974  19.817  0.00  0.00    +0.000 C 
ATOM      4  C   UNL     1      -1.337  12.357  21.256  0.00  0.00    +0.000 C 
ATOM      5  C   UNL     1      -0.265  13.110  22.043  0.00  0.00    +0.000 C 
ATOM      6  C   UNL     1       0.131  14.388  21.311  0.00  0.00    +0.000 C 
ATOM      7  C   UNL     1       0.613  14.098  19.895  0.00  0.00    +0.000 C 
ATOM      8  C   UNL     1      -0.404  13.278  19.100  0.00  0.00    +0.000 C 
ATOM      9  C   UNL     1       0.291  10.930  19.870  0.00  0.00    +0.000 C 
ATOM     10  C   UNL     1       0.560  10.352  18.498  0.00  0.00    +0.000 C 
ATOM     11  O   UNL     1       1.685  10.052  18.103  0.00  0.00    +0.000 OA
ATOM     12  N   UNL     1      -0.539  10.088  17.735  0.00  0.00    +0.000 N 
ATOM     13  H   UNL     1      -0.349   9.601  16.870  0.00  0.00    +0.000 HD
ENDROOT
BRANCH   2  14
ATOM     14  C   UNL     1      -3.435  11.975  19.199  0.00  0.00    +0.000 C 
ATOM     15  N   UNL     1      -4.591  12.444  19.380  0.00  0.00    +0.000 NA
ENDBRANCH   2  14
BRANCH   9  16
ATOM     16  C   UNL     1       0.016   9.784  20.761  0.00  0.00    +0.000 C 
ATOM     17  N   UNL     1      -0.223   8.901  21.473  0.00  0.00    +0.000 NA
ENDBRANCH   9  16
BRANCH   1  18
ATOM     18  S   UNL     1      -3.044   9.822  16.970  0.00  0.00    +0.000 S 
BRANCH  18  19
ATOM     19  C   UNL     1      -2.942  10.879  15.487  0.00  0.00    +0.000 C 
BRANCH  19  21
ATOM     20  C   UNL     1      -4.059   9.911  13.464  0.00  0.00    +0.000 C 
ATOM     21  C   UNL     1      -2.976  10.050  14.240  0.00  0.00    +0.000 C 
ENDBRANCH  19  21
ENDBRANCH  18  19
ENDBRANCH   1  18
TORSDOF 5
ENDMDL
MODEL 9
REMARK VINA RESULT:      -5.2      7.741     10.255
REMARK  Name = 
REMARK  5 active torsions:
REMARK  status: ('A' for Active; 'I' for Inactive)
REMARK    1  A    between atoms: C_2  and  C_3
REMARK    2  A    between atoms: C_3  and  S_4
REMARK    3  A    between atoms: S_4  and  C_5
REMARK    4  A    between atoms: C_6  and  C_7
REMARK    5  A    between atoms: C_15  and  C_16
REMARK                            x       y       z     vdW  Elec       q    Type
REMARK                         _______ _______ _______ _____ _____    ______ ____
ROOT
ATOM      1  C   UNL     1      -1.688  10.432  18.290  0.00  0.00    +0.000 C 
ATOM      2  C   UNL     1      -1.595  11.512  19.100  0.00  0.00    +0.000 C 
ATOM      3  C   UNL     1      -0.220  12.101  19.480  0.00  0.00    +0.000 C 
ATOM      4  C   UNL     1      -0.245  12.744  20.900  0.00  0.00    +0.000 C 
ATOM      5  C   UNL     1       1.032  13.519  21.224  0.00  0.00    +0.000 C 
ATOM      6  C   UNL     1       1.256  14.627  20.201  0.00  0.00    +0.000 C 
ATOM      7  C   UNL     1       1.310  14.077  18.781  0.00  0.00    +0.000 C 
ATOM      8  C   UNL     1       0.081  13.231  18.446  0.00  0.00    +0.000 C 
ATOM      9  C   UNL     1       0.874  10.983  19.398  0.00  0.00    +0.000 C 
ATOM     10  C   UNL     1       0.725  10.175  18.129  0.00  0.00    +0.000 C 
ATOM     11  O   UNL     1       1.683   9.722  17.503  0.00  0.00    +0.000 OA
ATOM     12  N   UNL     1      -0.553   9.889  17.748  0.00  0.00    +0.000 N 
ATOM     13  H   UNL     1      -0.631   9.257  16.963  0.00  0.00    +0.000 HD
ENDROOT
BRANCH   2  14
ATOM     14  C   UNL     1      -2.848  12.222  19.585  0.00  0.00    +0.000 C 
ATOM     15  N   UNL     1      -3.888  12.811  19.987  0.00  0.00    +0.000 NA
ENDBRANCH   2  14
BRANCH   9  16
ATOM     16  C   UNL     1       0.816  10.020  20.517  0.00  0.00    +0.000 C 
ATOM     17  N   UNL     1       0.748   9.280  21.407  0.00  0.00    +0.000 NA
ENDBRANCH   9  16
BRANCH   1  18
ATOM     18  S   UNL     1      -3.179   9.720  17.747  0.00  0.00    +0.000 S 
BRANCH  18  19
ATOM     19  C   UNL     1      -3.829  10.956  16.574  0.00  0.00    +0.000 C 
BRANCH  19  21
ATOM     20  C   UNL     1      -3.038   9.976  14.407  0.00  0.00    +0.000 C 
ATOM     21  C   UNL     1      -3.025  10.966  15.310  0.00  0.00    +0.000 C 
ENDBRANCH  19  21
ENDBRANCH  18  19
ENDBRANCH   1  18
TORSDOF 5
ENDMDL
