MODEL 1
REMARK VINA RESULT:      -6.7      0.000      0.000
REMARK  Name = 
REMARK  5 active torsions:
REMARK  status: ('A' for Active; 'I' for Inactive)
REMARK    1  A    between atoms: C_1  and  C_2
REMARK    2  A    between atoms: C_2  and  C_3
REMARK    3  A    between atoms: C_2  and  C_4
REMARK    4  A    between atoms: C_2  and  N_12
REMARK    5  A    between atoms: C_7  and  C_8
REMARK                            x       y       z     vdW  Elec       q    Type
REMARK                         _______ _______ _______ _____ _____    ______ ____
ROOT
ATOM      1  C   UNL     1       1.295   4.018  17.615  0.00  0.00    +0.000 C 
ATOM      2  C   UNL     1       2.537   3.406  18.308  0.00  0.00    +0.000 C 
ATOM      3  C   UNL     1       2.803   2.034  17.638  0.00  0.00    +0.000 C 
ENDROOT
BRANCH   2   4
ATOM      4  C   UNL     1       3.699   4.412  18.111  0.00  0.00    +0.000 A 
ATOM      5  C   UNL     1       3.453   5.787  17.914  0.00  0.00    +0.000 A 
ATOM      6  C   UNL     1       4.498   6.691  17.686  0.00  0.00    +0.000 A 
ATOM      7  C   UNL     1       5.818   6.244  17.625  0.00  0.00    +0.000 A 
ATOM      8  C   UNL     1       6.084   4.885  17.796  0.00  0.00    +0.000 A 
ATOM      9  C   UNL     1       5.038   3.983  18.033  0.00  0.00    +0.000 A 
BRANCH   7  10
ATOM     10  C   UNL     1       6.889   7.167  17.377  0.00  0.00    +0.000 C 
ATOM     11  N   UNL     1       7.752   7.915  17.174  0.00  0.00    +0.000 NA
ENDBRANCH   7  10
ENDBRANCH   2   4
BRANCH   2  12
ATOM     12  N   UNL     1       2.293   3.149  19.749  0.00  0.00    +0.000 N 
ATOM     13  C   UNL     1       1.105   3.222  20.432  0.00  0.00    +0.000 A 
ATOM     14  C   UNL     1       1.403   2.874  21.728  0.00  0.00    +0.000 A 
ATOM     15  N   UNL     1       2.732   2.579  21.856  0.00  0.00    +0.000 NA
ATOM     16  C   UNL     1       3.241   2.745  20.657  0.00  0.00    +0.000 A 
ENDBRANCH   2  12
TORSDOF 3
ENDMDL
MODEL 2
REMARK VINA RESULT:      -6.6      0.237      1.223
REMARK  Name = 
REMARK  5 active torsions:
REMARK  status: ('A' for Active; 'I' for Inactive)
REMARK    1  A    between atoms: C_1  and  C_2
REMARK    2  A    between atoms: C_2  and  C_3
REMARK    3  A    between atoms: C_2  and  C_4
REMARK    4  A    between atoms: C_2  and  N_12
REMARK    5  A    between atoms: C_7  and  C_8
REMARK                            x       y       z     vdW  Elec       q    Type
REMARK                         _______ _______ _______ _____ _____    ______ ____
ROOT
ATOM      1  C   UNL     1       1.353   4.068  17.606  0.00  0.00    +0.000 C 
ATOM      2  C   UNL     1       2.624   3.478  18.265  0.00  0.00    +0.000 C 
ATOM      3  C   UNL     1       2.862   2.084  17.631  0.00  0.00    +0.000 C 
ENDROOT
BRANCH   2   4
ATOM      4  C   UNL     1       3.777   4.476  17.985  0.00  0.00    +0.000 A 
ATOM      5  C   UNL     1       5.127   4.075  18.061  0.00  0.00    +0.000 A 
ATOM      6  C   UNL     1       6.172   4.986  17.858  0.00  0.00    +0.000 A 
ATOM      7  C   UNL     1       5.897   6.329  17.595  0.00  0.00    +0.000 A 
ATOM      8  C   UNL     1       4.569   6.751  17.535  0.00  0.00    +0.000 A 
ATOM      9  C   UNL     1       3.525   5.838  17.730  0.00  0.00    +0.000 A 
BRANCH   7  10
ATOM     10  C   UNL     1       6.966   7.266  17.400  0.00  0.00    +0.000 C 
ATOM     11  N   UNL     1       7.833   8.021  17.242  0.00  0.00    +0.000 NA
ENDBRANCH   7  10
ENDBRANCH   2   4
BRANCH   2  12
ATOM     12  N   UNL     1       2.442   3.270  19.723  0.00  0.00    +0.000 N 
ATOM     13  C   UNL     1       1.413   3.709  20.518  0.00  0.00    +0.000 A 
ATOM     14  C   UNL     1       1.696   3.241  21.779  0.00  0.00    +0.000 A 
ATOM     15  N   UNL     1       2.858   2.520  21.778  0.00  0.00    +0.000 NA
ATOM     16  C   UNL     1       3.281   2.547  20.535  0.00  0.00    +0.000 A 
ENDBRANCH   2  12
TORSDOF 3
ENDMDL
MODEL 3
REMARK VINA RESULT:      -6.4      1.866      5.831
REMARK  Name = 
REMARK  5 active torsions:
REMARK  status: ('A' for Active; 'I' for Inactive)
REMARK    1  A    between atoms: C_1  and  C_2
REMARK    2  A    between atoms: C_2  and  C_3
REMARK    3  A    between atoms: C_2  and  C_4
REMARK    4  A    between atoms: C_2  and  N_12
REMARK    5  A    between atoms: C_7  and  C_8
REMARK                            x       y       z     vdW  Elec       q    Type
REMARK                         _______ _______ _______ _____ _____    ______ ____
ROOT
ATOM      1  C   UNL     1       6.324   4.445  15.383  0.00  0.00    +0.000 C 
ATOM      2  C   UNL     1       5.679   5.455  16.363  0.00  0.00    +0.000 C 
ATOM      3  C   UNL     1       5.260   6.694  15.532  0.00  0.00    +0.000 C 
ENDROOT
BRANCH   2   4
ATOM      4  C   UNL     1       4.476   4.731  17.022  0.00  0.00    +0.000 A 
ATOM      5  C   UNL     1       4.362   3.326  16.992  0.00  0.00    +0.000 A 
ATOM      6  C   UNL     1       3.252   2.672  17.542  0.00  0.00    +0.000 A 
ATOM      7  C   UNL     1       2.214   3.405  18.118  0.00  0.00    +0.000 A 
ATOM      8  C   UNL     1       2.296   4.797  18.140  0.00  0.00    +0.000 A 
ATOM      9  C   UNL     1       3.411   5.450  17.597  0.00  0.00    +0.000 A 
BRANCH   7  10
ATOM     10  C   UNL     1       1.069   2.737  18.669  0.00  0.00    +0.000 C 
ATOM     11  N   UNL     1       0.142   2.197  19.111  0.00  0.00    +0.000 NA
ENDBRANCH   7  10
ENDBRANCH   2   4
BRANCH   2  12
ATOM     12  N   UNL     1       6.645   5.921  17.388  0.00  0.00    +0.000 N 
ATOM     13  C   UNL     1       7.115   5.238  18.482  0.00  0.00    +0.000 A 
ATOM     14  C   UNL     1       7.999   6.091  19.098  0.00  0.00    +0.000 A 
ATOM     15  N   UNL     1       8.095   7.269  18.409  0.00  0.00    +0.000 NA
ATOM     16  C   UNL     1       7.280   7.139  17.387  0.00  0.00    +0.000 A 
ENDBRANCH   2  12
TORSDOF 3
ENDMDL
MODEL 4
REMARK VINA RESULT:      -6.2      1.190      1.643
REMARK  Name = 
REMARK  5 active torsions:
REMARK  status: ('A' for Active; 'I' for Inactive)
REMARK    1  A    between atoms: C_1  and  C_2
REMARK    2  A    between atoms: C_2  and  C_3
REMARK    3  A    between atoms: C_2  and  C_4
REMARK    4  A    between atoms: C_2  and  N_12
REMARK    5  A    between atoms: C_7  and  C_8
REMARK                            x       y       z     vdW  Elec       q    Type
REMARK                         _______ _______ _______ _____ _____    ______ ____
ROOT
ATOM      1  C   UNL     1       2.594   2.585  17.046  0.00  0.00    +0.000 C 
ATOM      2  C   UNL     1       3.392   2.777  18.360  0.00  0.00    +0.000 C 
ATOM      3  C   UNL     1       4.057   1.417  18.693  0.00  0.00    +0.000 C 
ENDROOT
BRANCH   2   4
ATOM      4  C   UNL     1       4.421   3.906  18.097  0.00  0.00    +0.000 A 
ATOM      5  C   UNL     1       5.283   4.363  19.115  0.00  0.00    +0.000 A 
ATOM      6  C   UNL     1       6.179   5.418  18.894  0.00  0.00    +0.000 A 
ATOM      7  C   UNL     1       6.222   6.060  17.657  0.00  0.00    +0.000 A 
ATOM      8  C   UNL     1       5.364   5.638  16.641  0.00  0.00    +0.000 A 
ATOM      9  C   UNL     1       4.475   4.578  16.860  0.00  0.00    +0.000 A 
BRANCH   7  10
ATOM     10  C   UNL     1       7.129   7.150  17.433  0.00  0.00    +0.000 C 
ATOM     11  N   UNL     1       7.866   8.028  17.252  0.00  0.00    +0.000 NA
ENDBRANCH   7  10
ENDBRANCH   2   4
BRANCH   2  12
ATOM     12  N   UNL     1       2.504   3.120  19.498  0.00  0.00    +0.000 N 
ATOM     13  C   UNL     1       2.575   2.668  20.792  0.00  0.00    +0.000 A 
ATOM     14  C   UNL     1       1.547   3.295  21.458  0.00  0.00    +0.000 A 
ATOM     15  N   UNL     1       0.859   4.123  20.615  0.00  0.00    +0.000 NA
ATOM     16  C   UNL     1       1.456   4.006  19.451  0.00  0.00    +0.000 A 
ENDBRANCH   2  12
TORSDOF 3
ENDMDL
MODEL 5
REMARK VINA RESULT:      -6.2      1.848      5.640
REMARK  Name = 
REMARK  5 active torsions:
REMARK  status: ('A' for Active; 'I' for Inactive)
REMARK    1  A    between atoms: C_1  and  C_2
REMARK    2  A    between atoms: C_2  and  C_3
REMARK    3  A    between atoms: C_2  and  C_4
REMARK    4  A    between atoms: C_2  and  N_12
REMARK    5  A    between atoms: C_7  and  C_8
REMARK                            x       y       z     vdW  Elec       q    Type
REMARK                         _______ _______ _______ _____ _____    ______ ____
ROOT
ATOM      1  C   UNL     1       6.383   4.213  15.359  0.00  0.00    +0.000 C 
ATOM      2  C   UNL     1       5.736   5.303  16.249  0.00  0.00    +0.000 C 
ATOM      3  C   UNL     1       5.397   6.502  15.328  0.00  0.00    +0.000 C 
ENDROOT
BRANCH   2   4
ATOM      4  C   UNL     1       4.481   4.662  16.896  0.00  0.00    +0.000 A 
ATOM      5  C   UNL     1       3.509   5.451  17.547  0.00  0.00    +0.000 A 
ATOM      6  C   UNL     1       2.400   4.871  18.176  0.00  0.00    +0.000 A 
ATOM      7  C   UNL     1       2.242   3.485  18.192  0.00  0.00    +0.000 A 
ATOM      8  C   UNL     1       3.201   2.684  17.572  0.00  0.00    +0.000 A 
ATOM      9  C   UNL     1       4.306   3.266  16.936  0.00  0.00    +0.000 A 
BRANCH   7  10
ATOM     10  C   UNL     1       1.113   2.888  18.849  0.00  0.00    +0.000 C 
ATOM     11  N   UNL     1       0.203   2.405  19.383  0.00  0.00    +0.000 NA
ENDBRANCH   7  10
ENDBRANCH   2   4
BRANCH   2  12
ATOM     12  N   UNL     1       6.675   5.797  17.285  0.00  0.00    +0.000 N 
ATOM     13  C   UNL     1       7.230   7.048  17.396  0.00  0.00    +0.000 A 
ATOM     14  C   UNL     1       8.007   7.007  18.530  0.00  0.00    +0.000 A 
ATOM     15  N   UNL     1       7.936   5.775  19.120  0.00  0.00    +0.000 NA
ATOM     16  C   UNL     1       7.128   5.073  18.360  0.00  0.00    +0.000 A 
ENDBRANCH   2  12
TORSDOF 3
ENDMDL
MODEL 6
REMARK VINA RESULT:      -6.1      1.167      1.447
REMARK  Name = 
REMARK  5 active torsions:
REMARK  status: ('A' for Active; 'I' for Inactive)
REMARK    1  A    between atoms: C_1  and  C_2
REMARK    2  A    between atoms: C_2  and  C_3
REMARK    3  A    between atoms: C_2  and  C_4
REMARK    4  A    between atoms: C_2  and  N_12
REMARK    5  A    between atoms: C_7  and  C_8
REMARK                            x       y       z     vdW  Elec       q    Type
REMARK                         _______ _______ _______ _____ _____    ______ ____
ROOT
ATOM      1  C   UNL     1       2.552   2.643  17.110  0.00  0.00    +0.000 C 
ATOM      2  C   UNL     1       3.360   2.835  18.417  0.00  0.00    +0.000 C 
ATOM      3  C   UNL     1       4.095   1.501  18.700  0.00  0.00    +0.000 C 
ENDROOT
BRANCH   2   4
ATOM      4  C   UNL     1       4.329   4.020  18.171  0.00  0.00    +0.000 A 
ATOM      5  C   UNL     1       4.402   4.659  16.916  0.00  0.00    +0.000 A 
ATOM      6  C   UNL     1       5.312   5.696  16.675  0.00  0.00    +0.000 A 
ATOM      7  C   UNL     1       6.191   6.111  17.677  0.00  0.00    +0.000 A 
ATOM      8  C   UNL     1       6.150   5.481  18.921  0.00  0.00    +0.000 A 
ATOM      9  C   UNL     1       5.233   4.448  19.162  0.00  0.00    +0.000 A 
BRANCH   7  10
ATOM     10  C   UNL     1       7.133   7.165  17.429  0.00  0.00    +0.000 C 
ATOM     11  N   UNL     1       7.893   8.019  17.231  0.00  0.00    +0.000 NA
ENDBRANCH   7  10
ENDBRANCH   2   4
BRANCH   2  12
ATOM     12  N   UNL     1       2.475   3.103  19.577  0.00  0.00    +0.000 N 
ATOM     13  C   UNL     1       2.569   2.594  20.848  0.00  0.00    +0.000 A 
ATOM     14  C   UNL     1       1.533   3.163  21.551  0.00  0.00    +0.000 A 
ATOM     15  N   UNL     1       0.817   4.012  20.753  0.00  0.00    +0.000 NA
ATOM     16  C   UNL     1       1.405   3.964  19.580  0.00  0.00    +0.000 A 
ENDBRANCH   2  12
TORSDOF 3
ENDMDL
MODEL 7
REMARK VINA RESULT:      -6.1      2.996      4.893
REMARK  Name = 
REMARK  5 active torsions:
REMARK  status: ('A' for Active; 'I' for Inactive)
REMARK    1  A    between atoms: C_1  and  C_2
REMARK    2  A    between atoms: C_2  and  C_3
REMARK    3  A    between atoms: C_2  and  C_4
REMARK    4  A    between atoms: C_2  and  N_12
REMARK    5  A    between atoms: C_7  and  C_8
REMARK                            x       y       z     vdW  Elec       q    Type
REMARK                         _______ _______ _______ _____ _____    ______ ____
ROOT
ATOM      1  C   UNL     1       3.915   3.741  19.667  0.00  0.00    +0.000 C 
ATOM      2  C   UNL     1       4.205   4.622  18.427  0.00  0.00    +0.000 C 
ATOM      3  C   UNL     1       3.712   3.838  17.184  0.00  0.00    +0.000 C 
ENDROOT
BRANCH   2   4
ATOM      4  C   UNL     1       3.447   5.957  18.642  0.00  0.00    +0.000 A 
ATOM      5  C   UNL     1       2.623   6.159  19.769  0.00  0.00    +0.000 A 
ATOM      6  C   UNL     1       1.897   7.345  19.941  0.00  0.00    +0.000 A 
ATOM      7  C   UNL     1       1.956   8.354  18.980  0.00  0.00    +0.000 A 
ATOM      8  C   UNL     1       2.748   8.168  17.847  0.00  0.00    +0.000 A 
ATOM      9  C   UNL     1       3.480   6.985  17.680  0.00  0.00    +0.000 A 
BRANCH   7  10
ATOM     10  C   UNL     1       1.202   9.564  19.147  0.00  0.00    +0.000 C 
ATOM     11  N   UNL     1       0.596  10.544  19.284  0.00  0.00    +0.000 NA
ENDBRANCH   7  10
ENDBRANCH   2   4
BRANCH   2  12
ATOM     12  N   UNL     1       5.658   4.859  18.247  0.00  0.00    +0.000 N 
ATOM     13  C   UNL     1       6.547   5.391  19.148  0.00  0.00    +0.000 A 
ATOM     14  C   UNL     1       7.767   5.378  18.514  0.00  0.00    +0.000 A 
ATOM     15  N   UNL     1       7.654   4.845  17.260  0.00  0.00    +0.000 NA
ATOM     16  C   UNL     1       6.385   4.536  17.127  0.00  0.00    +0.000 A 
ENDBRANCH   2  12
TORSDOF 3
ENDMDL
MODEL 8
REMARK VINA RESULT:      -6.1      2.802      4.848
REMARK  Name = 
REMARK  5 active torsions:
REMARK  status: ('A' for Active; 'I' for Inactive)
REMARK    1  A    between atoms: C_1  and  C_2
REMARK    2  A    between atoms: C_2  and  C_3
REMARK    3  A    between atoms: C_2  and  C_4
REMARK    4  A    between atoms: C_2  and  N_12
REMARK    5  A    between atoms: C_7  and  C_8
REMARK                            x       y       z     vdW  Elec       q    Type
REMARK                         _______ _______ _______ _____ _____    ______ ____
ROOT
ATOM      1  C   UNL     1       4.347   3.021  19.346  0.00  0.00    +0.000 C 
ATOM      2  C   UNL     1       4.145   3.918  18.100  0.00  0.00    +0.000 C 
ATOM      3  C   UNL     1       3.270   3.120  17.100  0.00  0.00    +0.000 C 
ENDROOT
BRANCH   2   4
ATOM      4  C   UNL     1       3.466   5.221  18.593  0.00  0.00    +0.000 A 
ATOM      5  C   UNL     1       2.754   5.261  19.811  0.00  0.00    +0.000 A 
ATOM      6  C   UNL     1       2.097   6.423  20.235  0.00  0.00    +0.000 A 
ATOM      7  C   UNL     1       2.113   7.572  19.445  0.00  0.00    +0.000 A 
ATOM      8  C   UNL     1       2.793   7.550  18.227  0.00  0.00    +0.000 A 
ATOM      9  C   UNL     1       3.457   6.390  17.807  0.00  0.00    +0.000 A 
BRANCH   7  10
ATOM     10  C   UNL     1       1.429   8.759  19.871  0.00  0.00    +0.000 C 
ATOM     11  N   UNL     1       0.874   9.720  20.213  0.00  0.00    +0.000 NA
ENDBRANCH   7  10
ENDBRANCH   2   4
BRANCH   2  12
ATOM     12  N   UNL     1       5.430   4.212  17.419  0.00  0.00    +0.000 N 
ATOM     13  C   UNL     1       5.711   4.145  16.077  0.00  0.00    +0.000 A 
ATOM     14  C   UNL     1       7.024   4.533  15.956  0.00  0.00    +0.000 A 
ATOM     15  N   UNL     1       7.551   4.847  17.179  0.00  0.00    +0.000 NA
ATOM     16  C   UNL     1       6.575   4.653  18.036  0.00  0.00    +0.000 A 
ENDBRANCH   2  12
TORSDOF 3
ENDMDL
MODEL 9
REMARK VINA RESULT:      -6.0      1.741      2.399
REMARK  Name = 
REMARK  5 active torsions:
REMARK  status: ('A' for Active; 'I' for Inactive)
REMARK    1  A    between atoms: C_1  and  C_2
REMARK    2  A    between atoms: C_2  and  C_3
REMARK    3  A    between atoms: C_2  and  C_4
REMARK    4  A    between atoms: C_2  and  N_12
REMARK    5  A    between atoms: C_7  and  C_8
REMARK                            x       y       z     vdW  Elec       q    Type
REMARK                         _______ _______ _______ _____ _____    ______ ____
ROOT
ATOM      1  C   UNL     1       2.369   6.011  19.307  0.00  0.00    +0.000 C 
ATOM      2  C   UNL     1       2.660   4.616  18.703  0.00  0.00    +0.000 C 
ATOM      3  C   UNL     1       1.335   4.099  18.088  0.00  0.00    +0.000 C 
ENDROOT
BRANCH   2   4
ATOM      4  C   UNL     1       3.782   4.810  17.651  0.00  0.00    +0.000 A 
ATOM      5  C   UNL     1       4.104   3.794  16.727  0.00  0.00    +0.000 A 
ATOM      6  C   UNL     1       5.150   3.947  15.808  0.00  0.00    +0.000 A 
ATOM      7  C   UNL     1       5.918   5.112  15.800  0.00  0.00    +0.000 A 
ATOM      8  C   UNL     1       5.631   6.122  16.718  0.00  0.00    +0.000 A 
ATOM      9  C   UNL     1       4.579   5.971  17.631  0.00  0.00    +0.000 A 
BRANCH   7  10
ATOM     10  C   UNL     1       6.999   5.265  14.868  0.00  0.00    +0.000 C 
ATOM     11  N   UNL     1       7.875   5.392  14.117  0.00  0.00    +0.000 NA
ENDBRANCH   7  10
ENDBRANCH   2   4
BRANCH   2  12
ATOM     12  N   UNL     1       3.070   3.640  19.743  0.00  0.00    +0.000 N 
ATOM     13  C   UNL     1       4.162   2.808  19.740  0.00  0.00    +0.000 A 
ATOM     14  C   UNL     1       4.107   2.124  20.932  0.00  0.00    +0.000 A 
ATOM     15  N   UNL     1       3.024   2.520  21.668  0.00  0.00    +0.000 NA
ATOM     16  C   UNL     1       2.425   3.432  20.938  0.00  0.00    +0.000 A 
ENDBRANCH   2  12
TORSDOF 3
ENDMDL
