MODEL 1
REMARK VINA RESULT:      -7.9      0.000      0.000
REMARK  Name = 
REMARK  10 active torsions:
REMARK  status: ('A' for Active; 'I' for Inactive)
REMARK    1  A    between atoms: C_4  and  O_5
REMARK    2  A    between atoms: C_7  and  C_8
REMARK    3  A    between atoms: C_14  and  C_15
REMARK    4  A    between atoms: C_16  and  O_17
REMARK    5  A    between atoms: O_17  and  C_18
REMARK    6  A    between atoms: C_20  and  C_21
REMARK    7  A    between atoms: C_21  and  O_22
REMARK    8  A    between atoms: C_23  and  O_24
REMARK    9  A    between atoms: C_25  and  O_26
REMARK   10  A    between atoms: C_27  and  O_28
REMARK                            x       y       z     vdW  Elec       q    Type
REMARK                         _______ _______ _______ _____ _____    ______ ____
ROOT
ATOM      1  C   UNL     1       5.447   7.513  17.721  0.00  0.00    +0.000 C 
ATOM      2  C   UNL     1       4.609   6.488  17.455  0.00  0.00    +0.000 C 
ATOM      3  C   UNL     1       5.184   5.137  17.059  0.00  0.00    +0.000 C 
ATOM      4  C   UNL     1       5.157   4.079  18.177  0.00  0.00    +0.000 C 
ATOM      5  C   UNL     1       3.750   3.809  18.732  0.00  0.00    +0.000 C 
ATOM      6  C   UNL     1       3.708   2.640  19.728  0.00  0.00    +0.000 C 
ATOM      7  C   UNL     1       2.944   1.435  19.187  0.00  0.00    +0.000 C 
ATOM      8  C   UNL     1       2.925   3.182  20.886  0.00  0.00    +0.000 C 
ATOM      9  O   UNL     1       2.694   2.599  21.931  0.00  0.00    +0.000 OA
ATOM     10  O   UNL     1       2.400   4.391  20.558  0.00  0.00    +0.000 OA
ATOM     11  C   UNL     1       3.223   4.986  19.547  0.00  0.00    +0.000 C 
ATOM     12  C   UNL     1       2.402   6.006  18.744  0.00  0.00    +0.000 C 
ATOM     13  C   UNL     1       2.062   7.263  19.524  0.00  0.00    +0.000 C 
ATOM     14  C   UNL     1       1.712   7.238  20.974  0.00  0.00    +0.000 C 
ATOM     15  C   UNL     1       2.105   8.347  18.739  0.00  0.00    +0.000 C 
ATOM     16  C   UNL     1       2.491   8.018  17.334  0.00  0.00    +0.000 C 
ATOM     17  C   UNL     1       3.082   6.587  17.467  0.00  0.00    +0.000 C 
ENDROOT
BRANCH   4  18
ATOM     18  O   UNL     1       6.054   4.437  19.234  0.00  0.00    +0.000 OA
ATOM     19  H   UNL     1       6.478   5.290  19.017  0.00  0.00    +0.000 HD
ENDBRANCH   4  18
BRANCH  15  20
ATOM     20  O   UNL     1       1.887   9.617  19.197  0.00  0.00    +0.000 OA
BRANCH  20  21
ATOM     21  C   UNL     1       0.528  10.046  19.384  0.00  0.00    +0.000 C 
ATOM     22  O   UNL     1      -0.166   9.975  18.135  0.00  0.00    +0.000 OA
ATOM     23  C   UNL     1      -1.506  10.479  18.194  0.00  0.00    +0.000 C 
ATOM     24  C   UNL     1      -1.525  11.961  18.589  0.00  0.00    +0.000 C 
ATOM     25  C   UNL     1      -0.791  12.156  19.921  0.00  0.00    +0.000 C 
ATOM     26  C   UNL     1       0.600  11.497  19.921  0.00  0.00    +0.000 C 
BRANCH  24  27
ATOM     27  O   UNL     1      -2.879  12.418  18.692  0.00  0.00    +0.000 OA
ATOM     28  H   UNL     1      -3.348  12.236  17.858  0.00  0.00    +0.000 HD
ENDBRANCH  24  27
BRANCH  25  29
ATOM     29  O   UNL     1      -0.688  13.552  20.235  0.00  0.00    +0.000 OA
ATOM     30  H   UNL     1       0.123  13.903  19.817  0.00  0.00    +0.000 HD
ENDBRANCH  25  29
BRANCH  26  31
ATOM     31  O   UNL     1       1.147  11.525  21.251  0.00  0.00    +0.000 OA
ATOM     32  H   UNL     1       1.430  10.631  21.510  0.00  0.00    +0.000 HD
ENDBRANCH  26  31
BRANCH  23  33
ATOM     33  C   UNL     1      -2.168  10.258  16.823  0.00  0.00    +0.000 C 
BRANCH  33  34
ATOM     34  O   UNL     1      -2.283  11.480  16.095  0.00  0.00    +0.000 OA
ATOM     35  H   UNL     1      -2.020  11.275  15.179  0.00  0.00    +0.000 HD
ENDBRANCH  33  34
ENDBRANCH  23  33
ENDBRANCH  20  21
ENDBRANCH  15  20
TORSDOF 8
ENDMDL
MODEL 2
REMARK VINA RESULT:      -7.6      1.848      8.593
REMARK  Name = 
REMARK  10 active torsions:
REMARK  status: ('A' for Active; 'I' for Inactive)
REMARK    1  A    between atoms: C_4  and  O_5
REMARK    2  A    between atoms: C_7  and  C_8
REMARK    3  A    between atoms: C_14  and  C_15
REMARK    4  A    between atoms: C_16  and  O_17
REMARK    5  A    between atoms: O_17  and  C_18
REMARK    6  A    between atoms: C_20  and  C_21
REMARK    7  A    between atoms: C_21  and  O_22
REMARK    8  A    between atoms: C_23  and  O_24
REMARK    9  A    between atoms: C_25  and  O_26
REMARK   10  A    between atoms: C_27  and  O_28
REMARK                            x       y       z     vdW  Elec       q    Type
REMARK                         _______ _______ _______ _____ _____    ______ ____
ROOT
ATOM      1  C   UNL     1       1.713   9.358  23.076  0.00  0.00    +0.000 C 
ATOM      2  C   UNL     1       0.505   9.366  22.472  0.00  0.00    +0.000 C 
ATOM      3  C   UNL     1      -0.595  10.263  23.016  0.00  0.00    +0.000 C 
ATOM      4  C   UNL     1      -0.846  11.537  22.191  0.00  0.00    +0.000 C 
ATOM      5  C   UNL     1      -1.196  11.258  20.720  0.00  0.00    +0.000 C 
ATOM      6  C   UNL     1      -1.603  12.522  19.947  0.00  0.00    +0.000 C 
ATOM      7  C   UNL     1      -3.076  12.517  19.549  0.00  0.00    +0.000 C 
ATOM      8  C   UNL     1      -0.800  12.443  18.683  0.00  0.00    +0.000 C 
ATOM      9  O   UNL     1      -0.776  13.278  17.795  0.00  0.00    +0.000 OA
ATOM     10  O   UNL     1      -0.180  11.237  18.608  0.00  0.00    +0.000 OA
ATOM     11  C   UNL     1       0.005  10.737  19.938  0.00  0.00    +0.000 C 
ATOM     12  C   UNL     1       0.133   9.206  19.903  0.00  0.00    +0.000 C 
ATOM     13  C   UNL     1       1.436   8.719  19.297  0.00  0.00    +0.000 C 
ATOM     14  C   UNL     1       2.079   9.388  18.129  0.00  0.00    +0.000 C 
ATOM     15  C   UNL     1       1.889   7.630  19.932  0.00  0.00    +0.000 C 
ATOM     16  C   UNL     1       1.001   7.219  21.061  0.00  0.00    +0.000 C 
ATOM     17  C   UNL     1       0.123   8.482  21.283  0.00  0.00    +0.000 C 
ENDROOT
BRANCH   4  18
ATOM     18  O   UNL     1       0.273  12.427  22.281  0.00  0.00    +0.000 OA
ATOM     19  H   UNL     1      -0.054  13.337  22.418  0.00  0.00    +0.000 HD
ENDBRANCH   4  18
BRANCH  15  20
ATOM     20  O   UNL     1       3.068   7.013  19.621  0.00  0.00    +0.000 OA
BRANCH  20  21
ATOM     21  C   UNL     1       3.020   5.654  19.155  0.00  0.00    +0.000 C 
ATOM     22  O   UNL     1       2.954   4.771  20.278  0.00  0.00    +0.000 OA
ATOM     23  C   UNL     1       3.003   3.384  19.922  0.00  0.00    +0.000 C 
ATOM     24  C   UNL     1       4.317   3.041  19.207  0.00  0.00    +0.000 C 
ATOM     25  C   UNL     1       4.496   3.945  17.982  0.00  0.00    +0.000 C 
ATOM     26  C   UNL     1       4.307   5.433  18.323  0.00  0.00    +0.000 C 
BRANCH  24  27
ATOM     27  O   UNL     1       4.310   1.662  18.816  0.00  0.00    +0.000 OA
ATOM     28  H   UNL     1       4.602   1.586  17.890  0.00  0.00    +0.000 HD
ENDBRANCH  24  27
BRANCH  25  29
ATOM     29  O   UNL     1       5.780   3.723  17.382  0.00  0.00    +0.000 OA
ATOM     30  H   UNL     1       5.862   4.308  16.603  0.00  0.00    +0.000 HD
ENDBRANCH  25  29
BRANCH  26  31
ATOM     31  O   UNL     1       4.274   6.206  17.111  0.00  0.00    +0.000 OA
ATOM     32  H   UNL     1       4.333   7.154  17.322  0.00  0.00    +0.000 HD
ENDBRANCH  26  31
BRANCH  23  33
ATOM     33  C   UNL     1       2.828   2.548  21.200  0.00  0.00    +0.000 C 
BRANCH  33  34
ATOM     34  O   UNL     1       2.367   3.346  22.289  0.00  0.00    +0.000 OA
ATOM     35  H   UNL     1       2.151   2.724  23.009  0.00  0.00    +0.000 HD
ENDBRANCH  33  34
ENDBRANCH  23  33
ENDBRANCH  20  21
ENDBRANCH  15  20
TORSDOF 8
ENDMDL
MODEL 3
REMARK VINA RESULT:      -7.5      1.915      8.323
REMARK  Name = 
REMARK  10 active torsions:
REMARK  status: ('A' for Active; 'I' for Inactive)
REMARK    1  A    between atoms: C_4  and  O_5
REMARK    2  A    between atoms: C_7  and  C_8
REMARK    3  A    between atoms: C_14  and  C_15
REMARK    4  A    between atoms: C_16  and  O_17
REMARK    5  A    between atoms: O_17  and  C_18
REMARK    6  A    between atoms: C_20  and  C_21
REMARK    7  A    between atoms: C_21  and  O_22
REMARK    8  A    between atoms: C_23  and  O_24
REMARK    9  A    between atoms: C_25  and  O_26
REMARK   10  A    between atoms: C_27  and  O_28
REMARK                            x       y       z     vdW  Elec       q    Type
REMARK                         _______ _______ _______ _____ _____    ______ ____
ROOT
ATOM      1  C   UNL     1       1.881   9.255  22.948  0.00  0.00    +0.000 C 
ATOM      2  C   UNL     1       0.665   9.237  22.362  0.00  0.00    +0.000 C 
ATOM      3  C   UNL     1      -0.451  10.097  22.933  0.00  0.00    +0.000 C 
ATOM      4  C   UNL     1      -0.748  11.375  22.129  0.00  0.00    +0.000 C 
ATOM      5  C   UNL     1      -1.112  11.105  20.660  0.00  0.00    +0.000 C 
ATOM      6  C   UNL     1      -1.565  12.366  19.909  0.00  0.00    +0.000 C 
ATOM      7  C   UNL     1      -3.044  12.327  19.533  0.00  0.00    +0.000 C 
ATOM      8  C   UNL     1      -0.779  12.326  18.633  0.00  0.00    +0.000 C 
ATOM      9  O   UNL     1      -0.791  13.172  17.756  0.00  0.00    +0.000 OA
ATOM     10  O   UNL     1      -0.128  11.138  18.534  0.00  0.00    +0.000 OA
ATOM     11  C   UNL     1       0.090  10.627  19.853  0.00  0.00    +0.000 C 
ATOM     12  C   UNL     1       0.259   9.100  19.797  0.00  0.00    +0.000 C 
ATOM     13  C   UNL     1       1.565   8.656  19.166  0.00  0.00    +0.000 C 
ATOM     14  C   UNL     1       2.173   9.357  17.998  0.00  0.00    +0.000 C 
ATOM     15  C   UNL     1       2.057   7.572  19.780  0.00  0.00    +0.000 C 
ATOM     16  C   UNL     1       1.198   7.123  20.916  0.00  0.00    +0.000 C 
ATOM     17  C   UNL     1       0.289   8.358  21.168  0.00  0.00    +0.000 C 
ENDROOT
BRANCH   4  18
ATOM     18  O   UNL     1       0.347  12.293  22.214  0.00  0.00    +0.000 OA
ATOM     19  H   UNL     1       0.650  12.342  23.142  0.00  0.00    +0.000 HD
ENDBRANCH   4  18
BRANCH  15  20
ATOM     20  O   UNL     1       3.248   6.991  19.443  0.00  0.00    +0.000 OA
BRANCH  20  21
ATOM     21  C   UNL     1       3.217   5.719  18.776  0.00  0.00    +0.000 C 
ATOM     22  O   UNL     1       1.968   5.075  19.044  0.00  0.00    +0.000 OA
ATOM     23  C   UNL     1       1.877   3.751  18.502  0.00  0.00    +0.000 C 
ATOM     24  C   UNL     1       2.950   2.832  19.102  0.00  0.00    +0.000 C 
ATOM     25  C   UNL     1       4.341   3.438  18.879  0.00  0.00    +0.000 C 
ATOM     26  C   UNL     1       4.414   4.907  19.329  0.00  0.00    +0.000 C 
BRANCH  24  27
ATOM     27  O   UNL     1       2.867   1.534  18.500  0.00  0.00    +0.000 OA
ATOM     28  H   UNL     1       3.409   1.515  17.692  0.00  0.00    +0.000 HD
ENDBRANCH  24  27
BRANCH  25  29
ATOM     29  O   UNL     1       5.339   2.655  19.548  0.00  0.00    +0.000 OA
ATOM     30  H   UNL     1       5.336   2.896  20.496  0.00  0.00    +0.000 HD
ENDBRANCH  25  29
BRANCH  26  31
ATOM     31  O   UNL     1       5.663   5.480  18.903  0.00  0.00    +0.000 OA
ATOM     32  H   UNL     1       5.669   6.435  19.093  0.00  0.00    +0.000 HD
ENDBRANCH  26  31
BRANCH  23  33
ATOM     33  C   UNL     1       0.464   3.211  18.775  0.00  0.00    +0.000 C 
BRANCH  33  34
ATOM     34  O   UNL     1       0.376   2.602  20.062  0.00  0.00    +0.000 OA
ATOM     35  H   UNL     1       1.036   3.052  20.621  0.00  0.00    +0.000 HD
ENDBRANCH  33  34
ENDBRANCH  23  33
ENDBRANCH  20  21
ENDBRANCH  15  20
TORSDOF 8
ENDMDL
MODEL 4
REMARK VINA RESULT:      -7.3      1.794      8.309
REMARK  Name = 
REMARK  10 active torsions:
REMARK  status: ('A' for Active; 'I' for Inactive)
REMARK    1  A    between atoms: C_4  and  O_5
REMARK    2  A    between atoms: C_7  and  C_8
REMARK    3  A    between atoms: C_14  and  C_15
REMARK    4  A    between atoms: C_16  and  O_17
REMARK    5  A    between atoms: O_17  and  C_18
REMARK    6  A    between atoms: C_20  and  C_21
REMARK    7  A    between atoms: C_21  and  O_22
REMARK    8  A    between atoms: C_23  and  O_24
REMARK    9  A    between atoms: C_25  and  O_26
REMARK   10  A    between atoms: C_27  and  O_28
REMARK                            x       y       z     vdW  Elec       q    Type
REMARK                         _______ _______ _______ _____ _____    ______ ____
ROOT
ATOM      1  C   UNL     1      -1.159   9.631  17.079  0.00  0.00    +0.000 C 
ATOM      2  C   UNL     1      -0.511  10.626  17.722  0.00  0.00    +0.000 C 
ATOM      3  C   UNL     1      -1.153  12.001  17.808  0.00  0.00    +0.000 C 
ATOM      4  C   UNL     1      -1.773  12.333  19.177  0.00  0.00    +0.000 C 
ATOM      5  C   UNL     1      -0.773  12.245  20.340  0.00  0.00    +0.000 C 
ATOM      6  C   UNL     1      -1.356  12.735  21.675  0.00  0.00    +0.000 C 
ATOM      7  C   UNL     1      -0.706  14.027  22.161  0.00  0.00    +0.000 C 
ATOM      8  C   UNL     1      -0.983  11.655  22.647  0.00  0.00    +0.000 C 
ATOM      9  O   UNL     1      -1.295  11.612  23.825  0.00  0.00    +0.000 OA
ATOM     10  O   UNL     1      -0.138  10.774  22.051  0.00  0.00    +0.000 OA
ATOM     11  C   UNL     1      -0.371  10.804  20.639  0.00  0.00    +0.000 C 
ATOM     12  C   UNL     1       0.885  10.322  19.895  0.00  0.00    +0.000 C 
ATOM     13  C   UNL     1       1.148   8.835  20.048  0.00  0.00    +0.000 C 
ATOM     14  C   UNL     1       0.903   8.103  21.324  0.00  0.00    +0.000 C 
ATOM     15  C   UNL     1       1.632   8.310  18.915  0.00  0.00    +0.000 C 
ATOM     16  C   UNL     1       1.755   9.323  17.825  0.00  0.00    +0.000 C 
ATOM     17  C   UNL     1       0.880  10.497  18.347  0.00  0.00    +0.000 C 
ENDROOT
BRANCH   4  18
ATOM     18  O   UNL     1      -2.913  11.505  19.430  0.00  0.00    +0.000 OA
ATOM     19  H   UNL     1      -3.420  11.400  18.602  0.00  0.00    +0.000 HD
ENDBRANCH   4  18
BRANCH  15  20
ATOM     20  O   UNL     1       1.911   6.980  18.761  0.00  0.00    +0.000 OA
BRANCH  20  21
ATOM     21  C   UNL     1       3.274   6.552  18.914  0.00  0.00    +0.000 C 
ATOM     22  O   UNL     1       3.925   6.584  17.640  0.00  0.00    +0.000 OA
ATOM     23  C   UNL     1       5.265   6.079  17.667  0.00  0.00    +0.000 C 
ATOM     24  C   UNL     1       5.295   4.608  18.106  0.00  0.00    +0.000 C 
ATOM     25  C   UNL     1       4.607   4.456  19.467  0.00  0.00    +0.000 C 
ATOM     26  C   UNL     1       3.219   5.118  19.495  0.00  0.00    +0.000 C 
BRANCH  24  27
ATOM     27  O   UNL     1       6.651   4.150  18.176  0.00  0.00    +0.000 OA
ATOM     28  H   UNL     1       6.983   4.257  19.085  0.00  0.00    +0.000 HD
ENDBRANCH  24  27
BRANCH  25  29
ATOM     29  O   UNL     1       4.512   3.070  19.826  0.00  0.00    +0.000 OA
ATOM     30  H   UNL     1       3.682   2.936  20.325  0.00  0.00    +0.000 HD
ENDBRANCH  25  29
BRANCH  26  31
ATOM     31  O   UNL     1       2.717   5.131  20.843  0.00  0.00    +0.000 OA
ATOM     32  H   UNL     1       2.989   4.318  21.304  0.00  0.00    +0.000 HD
ENDBRANCH  26  31
BRANCH  23  33
ATOM     33  C   UNL     1       5.880   6.256  16.269  0.00  0.00    +0.000 C 
BRANCH  33  34
ATOM     34  O   UNL     1       7.305   6.299  16.326  0.00  0.00    +0.000 OA
ATOM     35  H   UNL     1       7.608   6.467  15.414  0.00  0.00    +0.000 HD
ENDBRANCH  33  34
ENDBRANCH  23  33
ENDBRANCH  20  21
ENDBRANCH  15  20
TORSDOF 8
ENDMDL
MODEL 5
REMARK VINA RESULT:      -7.3      1.918      3.994
REMARK  Name = 
REMARK  10 active torsions:
REMARK  status: ('A' for Active; 'I' for Inactive)
REMARK    1  A    between atoms: C_4  and  O_5
REMARK    2  A    between atoms: C_7  and  C_8
REMARK    3  A    between atoms: C_14  and  C_15
REMARK    4  A    between atoms: C_16  and  O_17
REMARK    5  A    between atoms: O_17  and  C_18
REMARK    6  A    between atoms: C_20  and  C_21
REMARK    7  A    between atoms: C_21  and  O_22
REMARK    8  A    between atoms: C_23  and  O_24
REMARK    9  A    between atoms: C_25  and  O_26
REMARK   10  A    between atoms: C_27  and  O_28
REMARK                            x       y       z     vdW  Elec       q    Type
REMARK                         _______ _______ _______ _____ _____    ______ ____
ROOT
ATOM      1  C   UNL     1       1.185   4.086  19.549  0.00  0.00    +0.000 C 
ATOM      2  C   UNL     1       2.468   4.388  19.846  0.00  0.00    +0.000 C 
ATOM      3  C   UNL     1       3.509   3.280  19.864  0.00  0.00    +0.000 C 
ATOM      4  C   UNL     1       4.432   3.253  18.633  0.00  0.00    +0.000 C 
ATOM      5  C   UNL     1       5.196   4.568  18.409  0.00  0.00    +0.000 C 
ATOM      6  C   UNL     1       6.234   4.478  17.280  0.00  0.00    +0.000 C 
ATOM      7  C   UNL     1       7.669   4.570  17.792  0.00  0.00    +0.000 C 
ATOM      8  C   UNL     1       5.976   5.703  16.456  0.00  0.00    +0.000 C 
ATOM      9  O   UNL     1       6.544   6.005  15.421  0.00  0.00    +0.000 OA
ATOM     10  O   UNL     1       5.084   6.505  17.094  0.00  0.00    +0.000 OA
ATOM     11  C   UNL     1       4.273   5.692  17.950  0.00  0.00    +0.000 C 
ATOM     12  C   UNL     1       3.695   6.551  19.086  0.00  0.00    +0.000 C 
ATOM     13  C   UNL     1       2.628   7.527  18.628  0.00  0.00    +0.000 C 
ATOM     14  C   UNL     1       2.708   8.251  17.326  0.00  0.00    +0.000 C 
ATOM     15  C   UNL     1       1.656   7.647  19.542  0.00  0.00    +0.000 C 
ATOM     16  C   UNL     1       1.886   6.778  20.734  0.00  0.00    +0.000 C 
ATOM     17  C   UNL     1       2.967   5.782  20.230  0.00  0.00    +0.000 C 
ENDROOT
BRANCH   4  18
ATOM     18  O   UNL     1       3.699   2.891  17.458  0.00  0.00    +0.000 OA
ATOM     19  H   UNL     1       2.900   3.451  17.396  0.00  0.00    +0.000 HD
ENDBRANCH   4  18
BRANCH  15  20
ATOM     20  O   UNL     1       0.547   8.426  19.362  0.00  0.00    +0.000 OA
BRANCH  20  21
ATOM     21  C   UNL     1       0.529   9.730  19.967  0.00  0.00    +0.000 C 
ATOM     22  O   UNL     1      -0.121   9.653  21.238  0.00  0.00    +0.000 OA
ATOM     23  C   UNL     1      -0.279  10.924  21.880  0.00  0.00    +0.000 C 
ATOM     24  C   UNL     1      -1.143  11.870  21.035  0.00  0.00    +0.000 C 
ATOM     25  C   UNL     1      -0.537  12.017  19.634  0.00  0.00    +0.000 C 
ATOM     26  C   UNL     1      -0.231  10.655  18.986  0.00  0.00    +0.000 C 
BRANCH  24  27
ATOM     27  O   UNL     1      -1.235  13.147  21.677  0.00  0.00    +0.000 OA
ATOM     28  H   UNL     1      -0.392  13.624  21.574  0.00  0.00    +0.000 HD
ENDBRANCH  24  27
BRANCH  25  29
ATOM     29  O   UNL     1      -1.404  12.792  18.794  0.00  0.00    +0.000 OA
ATOM     30  H   UNL     1      -1.883  13.434  19.354  0.00  0.00    +0.000 HD
ENDBRANCH  25  29
BRANCH  26  31
ATOM     31  O   UNL     1       0.524  10.854  17.778  0.00  0.00    +0.000 OA
ATOM     32  H   UNL     1       0.528  11.799  17.543  0.00  0.00    +0.000 HD
ENDBRANCH  26  31
BRANCH  23  33
ATOM     33  C   UNL     1      -0.900  10.694  23.268  0.00  0.00    +0.000 C 
BRANCH  33  34
ATOM     34  O   UNL     1      -0.312   9.572  23.925  0.00  0.00    +0.000 OA
ATOM     35  H   UNL     1       0.276   9.152  23.270  0.00  0.00    +0.000 HD
ENDBRANCH  33  34
ENDBRANCH  23  33
ENDBRANCH  20  21
ENDBRANCH  15  20
TORSDOF 8
ENDMDL
MODEL 6
REMARK VINA RESULT:      -7.2      1.748      3.960
REMARK  Name = 
REMARK  10 active torsions:
REMARK  status: ('A' for Active; 'I' for Inactive)
REMARK    1  A    between atoms: C_4  and  O_5
REMARK    2  A    between atoms: C_7  and  C_8
REMARK    3  A    between atoms: C_14  and  C_15
REMARK    4  A    between atoms: C_16  and  O_17
REMARK    5  A    between atoms: O_17  and  C_18
REMARK    6  A    between atoms: C_20  and  C_21
REMARK    7  A    between atoms: C_21  and  O_22
REMARK    8  A    between atoms: C_23  and  O_24
REMARK    9  A    between atoms: C_25  and  O_26
REMARK   10  A    between atoms: C_27  and  O_28
REMARK                            x       y       z     vdW  Elec       q    Type
REMARK                         _______ _______ _______ _____ _____    ______ ____
ROOT
ATOM      1  C   UNL     1       0.890   4.474  19.856  0.00  0.00    +0.000 C 
ATOM      2  C   UNL     1       2.220   4.687  19.952  0.00  0.00    +0.000 C 
ATOM      3  C   UNL     1       3.175   3.513  19.816  0.00  0.00    +0.000 C 
ATOM      4  C   UNL     1       3.895   3.428  18.459  0.00  0.00    +0.000 C 
ATOM      5  C   UNL     1       4.702   4.690  18.112  0.00  0.00    +0.000 C 
ATOM      6  C   UNL     1       5.546   4.535  16.838  0.00  0.00    +0.000 C 
ATOM      7  C   UNL     1       7.045   4.528  17.124  0.00  0.00    +0.000 C 
ATOM      8  C   UNL     1       5.247   5.778  16.056  0.00  0.00    +0.000 C 
ATOM      9  O   UNL     1       5.670   6.046  14.944  0.00  0.00    +0.000 OA
ATOM     10  O   UNL     1       4.519   6.635  16.818  0.00  0.00    +0.000 OA
ATOM     11  C   UNL     1       3.797   5.875  17.794  0.00  0.00    +0.000 C 
ATOM     12  C   UNL     1       3.459   6.766  19.000  0.00  0.00    +0.000 C 
ATOM     13  C   UNL     1       2.402   7.814  18.704  0.00  0.00    +0.000 C 
ATOM     14  C   UNL     1       2.329   8.537  17.401  0.00  0.00    +0.000 C 
ATOM     15  C   UNL     1       1.591   7.995  19.755  0.00  0.00    +0.000 C 
ATOM     16  C   UNL     1       1.942   7.108  20.904  0.00  0.00    +0.000 C 
ATOM     17  C   UNL     1       2.864   6.043  20.246  0.00  0.00    +0.000 C 
ENDROOT
BRANCH   4  18
ATOM     18  O   UNL     1       2.967   3.122  17.412  0.00  0.00    +0.000 OA
ATOM     19  H   UNL     1       2.093   2.934  17.806  0.00  0.00    +0.000 HD
ENDBRANCH   4  18
BRANCH  15  20
ATOM     20  O   UNL     1       0.523   8.848  19.743  0.00  0.00    +0.000 OA
BRANCH  20  21
ATOM     21  C   UNL     1       0.718  10.172  19.221  0.00  0.00    +0.000 C 
ATOM     22  O   UNL     1       1.138  11.040  20.278  0.00  0.00    +0.000 OA
ATOM     23  C   UNL     1       1.264  12.410  19.879  0.00  0.00    +0.000 C 
ATOM     24  C   UNL     1      -0.078  12.974  19.395  0.00  0.00    +0.000 C 
ATOM     25  C   UNL     1      -0.630  12.105  18.259  0.00  0.00    +0.000 C 
ATOM     26  C   UNL     1      -0.641  10.610  18.622  0.00  0.00    +0.000 C 
BRANCH  24  27
ATOM     27  O   UNL     1       0.094  14.326  18.953  0.00  0.00    +0.000 OA
ATOM     28  H   UNL     1      -0.064  14.377  17.994  0.00  0.00    +0.000 HD
ENDBRANCH  24  27
BRANCH  25  29
ATOM     29  O   UNL     1      -1.944  12.544  17.887  0.00  0.00    +0.000 OA
ATOM     30  H   UNL     1      -2.597  12.053  18.424  0.00  0.00    +0.000 HD
ENDBRANCH  25  29
BRANCH  26  31
ATOM     31  O   UNL     1      -0.962   9.832  17.455  0.00  0.00    +0.000 OA
ATOM     32  H   UNL     1      -1.819  10.118  17.093  0.00  0.00    +0.000 HD
ENDBRANCH  26  31
BRANCH  23  33
ATOM     33  C   UNL     1       1.809  13.215  21.071  0.00  0.00    +0.000 C 
BRANCH  33  34
ATOM     34  O   UNL     1       0.755  13.699  21.901  0.00  0.00    +0.000 OA
ATOM     35  H   UNL     1       0.666  13.056  22.630  0.00  0.00    +0.000 HD
ENDBRANCH  33  34
ENDBRANCH  23  33
ENDBRANCH  20  21
ENDBRANCH  15  20
TORSDOF 8
ENDMDL
MODEL 7
REMARK VINA RESULT:      -7.0      1.719      2.381
REMARK  Name = 
REMARK  10 active torsions:
REMARK  status: ('A' for Active; 'I' for Inactive)
REMARK    1  A    between atoms: C_4  and  O_5
REMARK    2  A    between atoms: C_7  and  C_8
REMARK    3  A    between atoms: C_14  and  C_15
REMARK    4  A    between atoms: C_16  and  O_17
REMARK    5  A    between atoms: O_17  and  C_18
REMARK    6  A    between atoms: C_20  and  C_21
REMARK    7  A    between atoms: C_21  and  O_22
REMARK    8  A    between atoms: C_23  and  O_24
REMARK    9  A    between atoms: C_25  and  O_26
REMARK   10  A    between atoms: C_27  and  O_28
REMARK                            x       y       z     vdW  Elec       q    Type
REMARK                         _______ _______ _______ _____ _____    ______ ____
ROOT
ATOM      1  C   UNL     1       4.890   7.635  17.778  0.00  0.00    +0.000 C 
ATOM      2  C   UNL     1       3.896   6.741  17.586  0.00  0.00    +0.000 C 
ATOM      3  C   UNL     1       4.236   5.338  17.108  0.00  0.00    +0.000 C 
ATOM      4  C   UNL     1       4.180   4.259  18.203  0.00  0.00    +0.000 C 
ATOM      5  C   UNL     1       2.814   4.163  18.901  0.00  0.00    +0.000 C 
ATOM      6  C   UNL     1       2.716   2.979  19.876  0.00  0.00    +0.000 C 
ATOM      7  C   UNL     1       1.741   1.906  19.400  0.00  0.00    +0.000 C 
ATOM      8  C   UNL     1       2.139   3.585  21.120  0.00  0.00    +0.000 C 
ATOM      9  O   UNL     1       1.940   3.006  22.174  0.00  0.00    +0.000 OA
ATOM     10  O   UNL     1       1.754   4.864  20.871  0.00  0.00    +0.000 OA
ATOM     11  C   UNL     1       2.542   5.374  19.789  0.00  0.00    +0.000 C 
ATOM     12  C   UNL     1       1.790   6.521  19.095  0.00  0.00    +0.000 C 
ATOM     13  C   UNL     1       1.709   7.786  19.929  0.00  0.00    +0.000 C 
ATOM     14  C   UNL     1       1.511   7.763  21.408  0.00  0.00    +0.000 C 
ATOM     15  C   UNL     1       1.818   8.879  19.163  0.00  0.00    +0.000 C 
ATOM     16  C   UNL     1       2.008   8.546  17.720  0.00  0.00    +0.000 C 
ATOM     17  C   UNL     1       2.407   7.045  17.763  0.00  0.00    +0.000 C 
ENDROOT
BRANCH   4  18
ATOM     18  O   UNL     1       5.223   4.458  19.164  0.00  0.00    +0.000 OA
ATOM     19  H   UNL     1       5.141   3.784  19.867  0.00  0.00    +0.000 HD
ENDBRANCH   4  18
BRANCH  15  20
ATOM     20  O   UNL     1       1.826  10.151  19.664  0.00  0.00    +0.000 OA
BRANCH  20  21
ATOM     21  C   UNL     1       1.250  11.198  18.866  0.00  0.00    +0.000 C 
ATOM     22  O   UNL     1       2.039  12.383  18.999  0.00  0.00    +0.000 OA
ATOM     23  C   UNL     1       1.490  13.518  18.318  0.00  0.00    +0.000 C 
ATOM     24  C   UNL     1       0.106  13.882  18.871  0.00  0.00    +0.000 C 
ATOM     25  C   UNL     1      -0.826  12.668  18.786  0.00  0.00    +0.000 C 
ATOM     26  C   UNL     1      -0.192  11.403  19.391  0.00  0.00    +0.000 C 
BRANCH  24  27
ATOM     27  O   UNL     1      -0.438  14.983  18.133  0.00  0.00    +0.000 OA
ATOM     28  H   UNL     1      -1.400  15.026  18.274  0.00  0.00    +0.000 HD
ENDBRANCH  24  27
BRANCH  25  29
ATOM     29  O   UNL     1      -2.081  12.956  19.420  0.00  0.00    +0.000 OA
ATOM     30  H   UNL     1      -2.582  13.570  18.848  0.00  0.00    +0.000 HD
ENDBRANCH  25  29
BRANCH  26  31
ATOM     31  O   UNL     1      -1.014  10.262  19.093  0.00  0.00    +0.000 OA
ATOM     32  H   UNL     1      -1.940  10.541  18.981  0.00  0.00    +0.000 HD
ENDBRANCH  26  31
BRANCH  23  33
ATOM     33  C   UNL     1       2.473  14.692  18.459  0.00  0.00    +0.000 C 
BRANCH  33  34
ATOM     34  O   UNL     1       3.339  14.788  17.329  0.00  0.00    +0.000 OA
ATOM     35  H   UNL     1       3.829  13.946  17.291  0.00  0.00    +0.000 HD
ENDBRANCH  33  34
ENDBRANCH  23  33
ENDBRANCH  20  21
ENDBRANCH  15  20
TORSDOF 8
ENDMDL
MODEL 8
REMARK VINA RESULT:      -6.4      6.592      8.874
REMARK  Name = 
REMARK  10 active torsions:
REMARK  status: ('A' for Active; 'I' for Inactive)
REMARK    1  A    between atoms: C_4  and  O_5
REMARK    2  A    between atoms: C_7  and  C_8
REMARK    3  A    between atoms: C_14  and  C_15
REMARK    4  A    between atoms: C_16  and  O_17
REMARK    5  A    between atoms: O_17  and  C_18
REMARK    6  A    between atoms: C_20  and  C_21
REMARK    7  A    between atoms: C_21  and  O_22
REMARK    8  A    between atoms: C_23  and  O_24
REMARK    9  A    between atoms: C_25  and  O_26
REMARK   10  A    between atoms: C_27  and  O_28
REMARK                            x       y       z     vdW  Elec       q    Type
REMARK                         _______ _______ _______ _____ _____    ______ ____
ROOT
ATOM      1  C   UNL     1       6.332  13.948  22.400  0.00  0.00    +0.000 C 
ATOM      2  C   UNL     1       7.601  14.260  22.061  0.00  0.00    +0.000 C 
ATOM      3  C   UNL     1       8.755  13.586  22.787  0.00  0.00    +0.000 C 
ATOM      4  C   UNL     1       9.452  12.474  21.984  0.00  0.00    +0.000 C 
ATOM      5  C   UNL     1      10.005  12.948  20.631  0.00  0.00    +0.000 C 
ATOM      6  C   UNL     1      10.839  11.877  19.912  0.00  0.00    +0.000 C 
ATOM      7  C   UNL     1      12.319  12.242  19.830  0.00  0.00    +0.000 C 
ATOM      8  C   UNL     1      10.301  11.883  18.512  0.00  0.00    +0.000 C 
ATOM      9  O   UNL     1      10.646  11.142  17.608  0.00  0.00    +0.000 OA
ATOM     10  O   UNL     1       9.442  12.924  18.356  0.00  0.00    +0.000 OA
ATOM     11  C   UNL     1       8.891  13.254  19.636  0.00  0.00    +0.000 C 
ATOM     12  C   UNL     1       8.417  14.717  19.634  0.00  0.00    +0.000 C 
ATOM     13  C   UNL     1       7.179  14.953  18.789  0.00  0.00    +0.000 C 
ATOM     14  C   UNL     1       6.950  14.260  17.488  0.00  0.00    +0.000 C 
ATOM     15  C   UNL     1       6.369  15.856  19.357  0.00  0.00    +0.000 C 
ATOM     16  C   UNL     1       6.900  16.355  20.661  0.00  0.00    +0.000 C 
ATOM     17  C   UNL     1       7.989  15.305  21.013  0.00  0.00    +0.000 C 
ENDROOT
BRANCH   4  18
ATOM     18  O   UNL     1       8.577  11.354  21.805  0.00  0.00    +0.000 OA
ATOM     19  H   UNL     1       8.646  10.768  22.584  0.00  0.00    +0.000 HD
ENDBRANCH   4  18
BRANCH  15  20
ATOM     20  O   UNL     1       5.162  16.221  18.830  0.00  0.00    +0.000 OA
BRANCH  20  21
ATOM     21  C   UNL     1       3.969  15.722  19.459  0.00  0.00    +0.000 C 
ATOM     22  O   UNL     1       3.604  14.476  18.859  0.00  0.00    +0.000 OA
ATOM     23  C   UNL     1       2.368  13.944  19.350  0.00  0.00    +0.000 C 
ATOM     24  C   UNL     1       1.199  14.896  19.062  0.00  0.00    +0.000 C 
ATOM     25  C   UNL     1       1.494  16.278  19.657  0.00  0.00    +0.000 C 
ATOM     26  C   UNL     1       2.881  16.804  19.250  0.00  0.00    +0.000 C 
BRANCH  24  27
ATOM     27  O   UNL     1      -0.010  14.361  19.613  0.00  0.00    +0.000 OA
ATOM     28  H   UNL     1      -0.771  14.874  19.287  0.00  0.00    +0.000 HD
ENDBRANCH  24  27
BRANCH  25  29
ATOM     29  O   UNL     1       0.471  17.211  19.282  0.00  0.00    +0.000 OA
ATOM     30  H   UNL     1      -0.381  16.733  19.234  0.00  0.00    +0.000 HD
ENDBRANCH  25  29
BRANCH  26  31
ATOM     31  O   UNL     1       3.187  17.991  20.001  0.00  0.00    +0.000 OA
ATOM     32  H   UNL     1       3.306  18.744  19.395  0.00  0.00    +0.000 HD
ENDBRANCH  26  31
BRANCH  23  33
ATOM     33  C   UNL     1       2.139  12.568  18.701  0.00  0.00    +0.000 C 
BRANCH  33  34
ATOM     34  O   UNL     1       2.732  12.497  17.405  0.00  0.00    +0.000 OA
ATOM     35  H   UNL     1       3.068  13.391  17.211  0.00  0.00    +0.000 HD
ENDBRANCH  33  34
ENDBRANCH  23  33
ENDBRANCH  20  21
ENDBRANCH  15  20
TORSDOF 8
ENDMDL
MODEL 9
REMARK VINA RESULT:      -6.3      1.589      8.468
REMARK  Name = 
REMARK  10 active torsions:
REMARK  status: ('A' for Active; 'I' for Inactive)
REMARK    1  A    between atoms: C_4  and  O_5
REMARK    2  A    between atoms: C_7  and  C_8
REMARK    3  A    between atoms: C_14  and  C_15
REMARK    4  A    between atoms: C_16  and  O_17
REMARK    5  A    between atoms: O_17  and  C_18
REMARK    6  A    between atoms: C_20  and  C_21
REMARK    7  A    between atoms: C_21  and  O_22
REMARK    8  A    between atoms: C_23  and  O_24
REMARK    9  A    between atoms: C_25  and  O_26
REMARK   10  A    between atoms: C_27  and  O_28
REMARK                            x       y       z     vdW  Elec       q    Type
REMARK                         _______ _______ _______ _____ _____    ______ ____
ROOT
ATOM      1  C   UNL     1       1.494  11.800  20.851  0.00  0.00    +0.000 C 
ATOM      2  C   UNL     1       0.221  11.356  20.782  0.00  0.00    +0.000 C 
ATOM      3  C   UNL     1      -0.922  12.357  20.844  0.00  0.00    +0.000 C 
ATOM      4  C   UNL     1      -1.587  12.652  19.488  0.00  0.00    +0.000 C 
ATOM      5  C   UNL     1      -2.141  11.400  18.790  0.00  0.00    +0.000 C 
ATOM      6  C   UNL     1      -2.944  11.722  17.521  0.00  0.00    +0.000 C 
ATOM      7  C   UNL     1      -4.431  11.414  17.673  0.00  0.00    +0.000 C 
ATOM      8  C   UNL     1      -2.395  10.773  16.498  0.00  0.00    +0.000 C 
ATOM      9  O   UNL     1      -2.716  10.720  15.323  0.00  0.00    +0.000 OA
ATOM     10  O   UNL     1      -1.559   9.886  17.098  0.00  0.00    +0.000 OA
ATOM     11  C   UNL     1      -1.026  10.492  18.281  0.00  0.00    +0.000 C 
ATOM     12  C   UNL     1      -0.586   9.400  19.270  0.00  0.00    +0.000 C 
ATOM     13  C   UNL     1       0.653   8.643  18.828  0.00  0.00    +0.000 C 
ATOM     14  C   UNL     1       0.908   8.283  17.403  0.00  0.00    +0.000 C 
ATOM     15  C   UNL     1       1.437   8.345  19.872  0.00  0.00    +0.000 C 
ATOM     16  C   UNL     1       0.885   8.855  21.162  0.00  0.00    +0.000 C 
ATOM     17  C   UNL     1      -0.183   9.883  20.696  0.00  0.00    +0.000 C 
ENDROOT
BRANCH   4  18
ATOM     18  O   UNL     1      -0.686  13.352  18.624  0.00  0.00    +0.000 OA
ATOM     19  H   UNL     1      -0.831  14.313  18.723  0.00  0.00    +0.000 HD
ENDBRANCH   4  18
BRANCH  15  20
ATOM     20  O   UNL     1       2.640   7.707  19.751  0.00  0.00    +0.000 OA
BRANCH  20  21
ATOM     21  C   UNL     1       2.638   6.328  19.347  0.00  0.00    +0.000 C 
ATOM     22  O   UNL     1       2.137   5.522  20.418  0.00  0.00    +0.000 OA
ATOM     23  C   UNL     1       2.188   4.115  20.151  0.00  0.00    +0.000 C 
ATOM     24  C   UNL     1       3.631   3.645  19.926  0.00  0.00    +0.000 C 
ATOM     25  C   UNL     1       4.274   4.458  18.796  0.00  0.00    +0.000 C 
ATOM     26  C   UNL     1       4.104   5.973  18.999  0.00  0.00    +0.000 C 
BRANCH  24  27
ATOM     27  O   UNL     1       3.642   2.249  19.607  0.00  0.00    +0.000 OA
ATOM     28  H   UNL     1       4.287   2.082  18.896  0.00  0.00    +0.000 HD
ENDBRANCH  24  27
BRANCH  25  29
ATOM     29  O   UNL     1       5.662   4.119  18.664  0.00  0.00    +0.000 OA
ATOM     30  H   UNL     1       6.121   4.370  19.490  0.00  0.00    +0.000 HD
ENDBRANCH  25  29
BRANCH  26  31
ATOM     31  O   UNL     1       4.533   6.670  17.815  0.00  0.00    +0.000 OA
ATOM     32  H   UNL     1       3.991   7.468  17.688  0.00  0.00    +0.000 HD
ENDBRANCH  26  31
BRANCH  23  33
ATOM     33  C   UNL     1       1.537   3.373  21.330  0.00  0.00    +0.000 C 
BRANCH  33  34
ATOM     34  O   UNL     1       2.519   2.836  22.216  0.00  0.00    +0.000 OA
ATOM     35  H   UNL     1       2.531   1.874  22.055  0.00  0.00    +0.000 HD
ENDBRANCH  33  34
ENDBRANCH  23  33
ENDBRANCH  20  21
ENDBRANCH  15  20
TORSDOF 8
ENDMDL
