MODEL 1
REMARK VINA RESULT:      -8.9      0.000      0.000
REMARK  Name = 
REMARK  4 active torsions:
REMARK  status: ('A' for Active; 'I' for Inactive)
REMARK    1  A    between atoms: C_2  and  C_3
REMARK    2  A    between atoms: C_8  and  O_9
REMARK    3  A    between atoms: O_9  and  C_10
REMARK    4  A    between atoms: N_23  and  C_24
REMARK                            x       y       z     vdW  Elec       q    Type
REMARK                         _______ _______ _______ _____ _____    ______ ____
ROOT
ATOM      1  C   UNL     1       1.282   9.020  19.687  0.00  0.00    +0.000 A 
ATOM      2  C   UNL     1       1.726   8.435  20.872  0.00  0.00    +0.000 A 
ATOM      3  N   UNL     1       1.153   8.603  22.088  0.00  0.00    +0.000 NA
ATOM      4  C   UNL     1       0.131   9.471  22.153  0.00  0.00    +0.000 A 
ATOM      5  C   UNL     1      -0.322  10.192  21.063  0.00  0.00    +0.000 A 
ATOM      6  C   UNL     1       0.251   9.970  19.799  0.00  0.00    +0.000 A 
ENDROOT
BRANCH   1   8
ATOM      7  O   UNL     1       2.218   9.652  17.688  0.00  0.00    +0.000 OA
ATOM      8  C   UNL     1       2.021   8.699  18.448  0.00  0.00    +0.000 C 
ATOM      9  N   UNL     1       2.571   7.423  18.174  0.00  0.00    +0.000 N 
ATOM     10  C   UNL     1       3.474   7.343  17.017  0.00  0.00    +0.000 C 
ATOM     11  C   UNL     1       4.854   6.908  17.477  0.00  0.00    +0.000 C 
ATOM     12  N   UNL     1       4.761   5.559  18.029  0.00  0.00    +0.000 N 
ATOM     13  C   UNL     1       3.675   5.327  18.913  0.00  0.00    +0.000 A 
ATOM     14  C   UNL     1       3.696   4.213  19.774  0.00  0.00    +0.000 A 
ATOM     15  C   UNL     1       2.633   3.935  20.632  0.00  0.00    +0.000 A 
ATOM     16  C   UNL     1       1.505   4.743  20.608  0.00  0.00    +0.000 A 
ATOM     17  C   UNL     1       1.449   5.854  19.758  0.00  0.00    +0.000 A 
ATOM     18  C   UNL     1       2.541   6.206  18.955  0.00  0.00    +0.000 A 
BRANCH  12  19
ATOM     19  C   UNL     1       5.923   4.675  17.907  0.00  0.00    +0.000 C 
ATOM     20  C   UNL     1       6.957   4.904  16.835  0.00  0.00    +0.000 C 
ATOM     21  C   UNL     1       7.303   5.165  18.267  0.00  0.00    +0.000 C 
ENDBRANCH  12  19
ENDBRANCH   1   8
BRANCH   6  22
ATOM     22  O   UNL     1      -0.238  10.862  18.862  0.00  0.00    +0.000 OA
BRANCH  22  23
ATOM     23  C   UNL     1      -1.414  10.670  18.169  0.00  0.00    +0.000 A 
ATOM     24  C   UNL     1      -1.510   9.785  17.092  0.00  0.00    +0.000 A 
ATOM     25  C   UNL     1      -2.678   9.734  16.341  0.00  0.00    +0.000 A 
ATOM     26  C   UNL     1      -3.778  10.503  16.710  0.00  0.00    +0.000 A 
ATOM     27  C   UNL     1      -3.756  11.290  17.869  0.00  0.00    +0.000 A 
ATOM     28  C   UNL     1      -4.913  11.978  18.277  0.00  0.00    +0.000 A 
ATOM     29  C   UNL     1      -4.928  12.712  19.460  0.00  0.00    +0.000 A 
ATOM     30  C   UNL     1      -3.776  12.795  20.231  0.00  0.00    +0.000 A 
ATOM     31  C   UNL     1      -2.604  12.150  19.815  0.00  0.00    +0.000 A 
ATOM     32  C   UNL     1      -2.568  11.379  18.633  0.00  0.00    +0.000 A 
ENDBRANCH  22  23
ENDBRANCH   6  22
TORSDOF 4
ENDMDL
MODEL 2
REMARK VINA RESULT:      -8.8      5.868     10.252
REMARK  Name = 
REMARK  4 active torsions:
REMARK  status: ('A' for Active; 'I' for Inactive)
REMARK    1  A    between atoms: C_2  and  C_3
REMARK    2  A    between atoms: C_8  and  O_9
REMARK    3  A    between atoms: O_9  and  C_10
REMARK    4  A    between atoms: N_23  and  C_24
REMARK                            x       y       z     vdW  Elec       q    Type
REMARK                         _______ _______ _______ _____ _____    ______ ____
ROOT
ATOM      1  C   UNL     1      -6.436  12.809  19.773  0.00  0.00    +0.000 A 
ATOM      2  C   UNL     1      -7.428  12.205  20.545  0.00  0.00    +0.000 A 
ATOM      3  N   UNL     1      -7.720  10.882  20.545  0.00  0.00    +0.000 NA
ATOM      4  C   UNL     1      -7.051  10.121  19.665  0.00  0.00    +0.000 A 
ATOM      5  C   UNL     1      -6.124  10.631  18.774  0.00  0.00    +0.000 A 
ATOM      6  C   UNL     1      -5.797  11.997  18.819  0.00  0.00    +0.000 A 
ENDROOT
BRANCH   1   8
ATOM      7  O   UNL     1      -6.862  14.968  19.121  0.00  0.00    +0.000 OA
ATOM      8  C   UNL     1      -6.243  14.266  19.926  0.00  0.00    +0.000 C 
ATOM      9  N   UNL     1      -5.496  14.850  20.978  0.00  0.00    +0.000 N 
ATOM     10  C   UNL     1      -5.606  16.308  21.117  0.00  0.00    +0.000 C 
ATOM     11  C   UNL     1      -6.194  16.648  22.475  0.00  0.00    +0.000 C 
ATOM     12  N   UNL     1      -5.269  16.198  23.512  0.00  0.00    +0.000 N 
ATOM     13  C   UNL     1      -4.735  14.894  23.339  0.00  0.00    +0.000 A 
ATOM     14  C   UNL     1      -4.146  14.226  24.430  0.00  0.00    +0.000 A 
ATOM     15  C   UNL     1      -3.583  12.959  24.291  0.00  0.00    +0.000 A 
ATOM     16  C   UNL     1      -3.554  12.356  23.040  0.00  0.00    +0.000 A 
ATOM     17  C   UNL     1      -4.123  12.997  21.934  0.00  0.00    +0.000 A 
ATOM     18  C   UNL     1      -4.776  14.229  22.068  0.00  0.00    +0.000 A 
BRANCH  12  19
ATOM     19  C   UNL     1      -5.215  16.946  24.770  0.00  0.00    +0.000 C 
ATOM     20  C   UNL     1      -3.979  17.718  25.156  0.00  0.00    +0.000 C 
ATOM     21  C   UNL     1      -5.222  18.454  24.768  0.00  0.00    +0.000 C 
ENDBRANCH  12  19
ENDBRANCH   1   8
BRANCH   6  22
ATOM     22  O   UNL     1      -4.954  12.346  17.780  0.00  0.00    +0.000 OA
BRANCH  22  23
ATOM     23  C   UNL     1      -3.983  11.509  17.272  0.00  0.00    +0.000 A 
ATOM     24  C   UNL     1      -4.121  10.871  16.036  0.00  0.00    +0.000 A 
ATOM     25  C   UNL     1      -3.181   9.930  15.635  0.00  0.00    +0.000 A 
ATOM     26  C   UNL     1      -2.062   9.682  16.425  0.00  0.00    +0.000 A 
ATOM     27  C   UNL     1      -1.827  10.412  17.598  0.00  0.00    +0.000 A 
ATOM     28  C   UNL     1      -0.639  10.216  18.325  0.00  0.00    +0.000 A 
ATOM     29  C   UNL     1      -0.360  10.977  19.457  0.00  0.00    +0.000 A 
ATOM     30  C   UNL     1      -1.282  11.921  19.894  0.00  0.00    +0.000 A 
ATOM     31  C   UNL     1      -2.488  12.097  19.204  0.00  0.00    +0.000 A 
ATOM     32  C   UNL     1      -2.786  11.355  18.041  0.00  0.00    +0.000 A 
ENDBRANCH  22  23
ENDBRANCH   6  22
TORSDOF 4
ENDMDL
MODEL 3
REMARK VINA RESULT:      -8.7      4.245      8.823
REMARK  Name = 
REMARK  4 active torsions:
REMARK  status: ('A' for Active; 'I' for Inactive)
REMARK    1  A    between atoms: C_2  and  C_3
REMARK    2  A    between atoms: C_8  and  O_9
REMARK    3  A    between atoms: O_9  and  C_10
REMARK    4  A    between atoms: N_23  and  C_24
REMARK                            x       y       z     vdW  Elec       q    Type
REMARK                         _______ _______ _______ _____ _____    ______ ____
ROOT
ATOM      1  C   UNL     1      -1.053  14.666  20.689  0.00  0.00    +0.000 A 
ATOM      2  C   UNL     1      -1.368  15.849  20.023  0.00  0.00    +0.000 A 
ATOM      3  N   UNL     1      -0.541  16.517  19.183  0.00  0.00    +0.000 NA
ATOM      4  C   UNL     1       0.706  16.034  19.061  0.00  0.00    +0.000 A 
ATOM      5  C   UNL     1       1.162  14.931  19.759  0.00  0.00    +0.000 A 
ATOM      6  C   UNL     1       0.277  14.221  20.589  0.00  0.00    +0.000 A 
ENDROOT
BRANCH   1   8
ATOM      7  O   UNL     1      -2.206  14.564  22.670  0.00  0.00    +0.000 OA
ATOM      8  C   UNL     1      -2.095  14.066  21.547  0.00  0.00    +0.000 C 
ATOM      9  N   UNL     1      -2.992  13.063  21.102  0.00  0.00    +0.000 N 
ATOM     10  C   UNL     1      -4.112  12.753  22.001  0.00  0.00    +0.000 C 
ATOM     11  C   UNL     1      -5.426  13.053  21.301  0.00  0.00    +0.000 C 
ATOM     12  N   UNL     1      -5.556  12.165  20.148  0.00  0.00    +0.000 N 
ATOM     13  C   UNL     1      -4.399  12.032  19.337  0.00  0.00    +0.000 A 
ATOM     14  C   UNL     1      -4.512  11.518  18.031  0.00  0.00    +0.000 A 
ATOM     15  C   UNL     1      -3.394  11.344  17.217  0.00  0.00    +0.000 A 
ATOM     16  C   UNL     1      -2.132  11.635  17.716  0.00  0.00    +0.000 A 
ATOM     17  C   UNL     1      -1.984  12.140  19.014  0.00  0.00    +0.000 A 
ATOM     18  C   UNL     1      -3.100  12.411  19.816  0.00  0.00    +0.000 A 
BRANCH  12  19
ATOM     19  C   UNL     1      -6.900  11.753  19.734  0.00  0.00    +0.000 C 
ATOM     20  C   UNL     1      -7.195  10.315  19.393  0.00  0.00    +0.000 C 
ATOM     21  C   UNL     1      -7.760  10.911  20.643  0.00  0.00    +0.000 C 
ENDBRANCH  12  19
ENDBRANCH   1   8
BRANCH   6  22
ATOM     22  O   UNL     1       0.937  13.232  21.297  0.00  0.00    +0.000 OA
BRANCH  22  23
ATOM     23  C   UNL     1       0.588  11.899  21.248  0.00  0.00    +0.000 A 
ATOM     24  C   UNL     1      -0.223  11.304  22.219  0.00  0.00    +0.000 A 
ATOM     25  C   UNL     1      -0.428   9.930  22.201  0.00  0.00    +0.000 A 
ATOM     26  C   UNL     1       0.107   9.159  21.173  0.00  0.00    +0.000 A 
ATOM     27  C   UNL     1       0.802   9.750  20.110  0.00  0.00    +0.000 A 
ATOM     28  C   UNL     1       1.245   8.964  19.031  0.00  0.00    +0.000 A 
ATOM     29  C   UNL     1       1.881   9.544  17.937  0.00  0.00    +0.000 A 
ATOM     30  C   UNL     1       2.113  10.914  17.925  0.00  0.00    +0.000 A 
ATOM     31  C   UNL     1       1.716  11.703  19.012  0.00  0.00    +0.000 A 
ATOM     32  C   UNL     1       1.048  11.145  20.122  0.00  0.00    +0.000 A 
ENDBRANCH  22  23
ENDBRANCH   6  22
TORSDOF 4
ENDMDL
MODEL 4
REMARK VINA RESULT:      -8.7      9.028     12.104
REMARK  Name = 
REMARK  4 active torsions:
REMARK  status: ('A' for Active; 'I' for Inactive)
REMARK    1  A    between atoms: C_2  and  C_3
REMARK    2  A    between atoms: C_8  and  O_9
REMARK    3  A    between atoms: O_9  and  C_10
REMARK    4  A    between atoms: N_23  and  C_24
REMARK                            x       y       z     vdW  Elec       q    Type
REMARK                         _______ _______ _______ _____ _____    ______ ____
ROOT
ATOM      1  C   UNL     1       9.657  12.938  18.072  0.00  0.00    +0.000 A 
ATOM      2  C   UNL     1      10.675  13.194  17.155  0.00  0.00    +0.000 A 
ATOM      3  N   UNL     1      11.988  12.925  17.352  0.00  0.00    +0.000 NA
ATOM      4  C   UNL     1      12.329  12.455  18.562  0.00  0.00    +0.000 A 
ATOM      5  C   UNL     1      11.418  12.266  19.585  0.00  0.00    +0.000 A 
ATOM      6  C   UNL     1      10.053  12.504  19.350  0.00  0.00    +0.000 A 
ENDROOT
BRANCH   1   8
ATOM      7  O   UNL     1       7.594  12.328  17.270  0.00  0.00    +0.000 OA
ATOM      8  C   UNL     1       8.275  13.276  17.672  0.00  0.00    +0.000 C 
ATOM      9  N   UNL     1       7.709  14.565  17.830  0.00  0.00    +0.000 N 
ATOM     10  C   UNL     1       6.260  14.666  17.606  0.00  0.00    +0.000 C 
ATOM     11  C   UNL     1       5.579  15.133  18.881  0.00  0.00    +0.000 C 
ATOM     12  N   UNL     1       6.048  16.479  19.197  0.00  0.00    +0.000 N 
ATOM     13  C   UNL     1       7.448  16.685  19.091  0.00  0.00    +0.000 A 
ATOM     14  C   UNL     1       8.043  17.800  19.714  0.00  0.00    +0.000 A 
ATOM     15  C   UNL     1       9.409  18.053  19.606  0.00  0.00    +0.000 A 
ATOM     16  C   UNL     1      10.200  17.218  18.827  0.00  0.00    +0.000 A 
ATOM     17  C   UNL     1       9.638  16.107  18.188  0.00  0.00    +0.000 A 
ATOM     18  C   UNL     1       8.287  15.781  18.358  0.00  0.00    +0.000 A 
BRANCH  12  19
ATOM     19  C   UNL     1       5.135  17.391  19.890  0.00  0.00    +0.000 C 
ATOM     20  C   UNL     1       3.755  16.939  20.297  0.00  0.00    +0.000 C 
ATOM     21  C   UNL     1       4.796  17.179  21.345  0.00  0.00    +0.000 C 
ENDBRANCH  12  19
ENDBRANCH   1   8
BRANCH   6  22
ATOM     22  O   UNL     1       9.315  12.385  20.514  0.00  0.00    +0.000 OA
BRANCH  22  23
ATOM     23  C   UNL     1       9.290  13.346  21.502  0.00  0.00    +0.000 A 
ATOM     24  C   UNL     1       9.873  14.605  21.333  0.00  0.00    +0.000 A 
ATOM     25  C   UNL     1       9.944  15.484  22.407  0.00  0.00    +0.000 A 
ATOM     26  C   UNL     1       9.365  15.143  23.626  0.00  0.00    +0.000 A 
ATOM     27  C   UNL     1       8.650  13.948  23.780  0.00  0.00    +0.000 A 
ATOM     28  C   UNL     1       7.987  13.673  24.989  0.00  0.00    +0.000 A 
ATOM     29  C   UNL     1       7.220  12.520  25.137  0.00  0.00    +0.000 A 
ATOM     30  C   UNL     1       7.134  11.613  24.088  0.00  0.00    +0.000 A 
ATOM     31  C   UNL     1       7.824  11.854  22.893  0.00  0.00    +0.000 A 
ATOM     32  C   UNL     1       8.589  13.025  22.708  0.00  0.00    +0.000 A 
ENDBRANCH  22  23
ENDBRANCH   6  22
TORSDOF 4
ENDMDL
MODEL 5
REMARK VINA RESULT:      -8.6      0.550      1.880
REMARK  Name = 
REMARK  4 active torsions:
REMARK  status: ('A' for Active; 'I' for Inactive)
REMARK    1  A    between atoms: C_2  and  C_3
REMARK    2  A    between atoms: C_8  and  O_9
REMARK    3  A    between atoms: O_9  and  C_10
REMARK    4  A    between atoms: N_23  and  C_24
REMARK                            x       y       z     vdW  Elec       q    Type
REMARK                         _______ _______ _______ _____ _____    ______ ____
ROOT
ATOM      1  C   UNL     1       1.387   8.800  19.587  0.00  0.00    +0.000 A 
ATOM      2  C   UNL     1       1.806   8.206  20.777  0.00  0.00    +0.000 A 
ATOM      3  N   UNL     1       1.194   8.347  21.978  0.00  0.00    +0.000 NA
ATOM      4  C   UNL     1       0.155   9.197  22.025  0.00  0.00    +0.000 A 
ATOM      5  C   UNL     1      -0.278   9.924  20.931  0.00  0.00    +0.000 A 
ATOM      6  C   UNL     1       0.337   9.730  19.682  0.00  0.00    +0.000 A 
ENDROOT
BRANCH   1   8
ATOM      7  O   UNL     1       2.386   9.480  17.636  0.00  0.00    +0.000 OA
ATOM      8  C   UNL     1       2.167   8.510  18.367  0.00  0.00    +0.000 C 
ATOM      9  N   UNL     1       2.731   7.242  18.083  0.00  0.00    +0.000 N 
ATOM     10  C   UNL     1       3.673   7.191  16.955  0.00  0.00    +0.000 C 
ATOM     11  C   UNL     1       5.038   6.750  17.451  0.00  0.00    +0.000 C 
ATOM     12  N   UNL     1       4.932   5.388  17.969  0.00  0.00    +0.000 N 
ATOM     13  C   UNL     1       3.818   5.133  18.811  0.00  0.00    +0.000 A 
ATOM     14  C   UNL     1       3.814   4.000  19.647  0.00  0.00    +0.000 A 
ATOM     15  C   UNL     1       2.725   3.700  20.463  0.00  0.00    +0.000 A 
ATOM     16  C   UNL     1       1.595   4.504  20.419  0.00  0.00    +0.000 A 
ATOM     17  C   UNL     1       1.563   5.634  19.593  0.00  0.00    +0.000 A 
ATOM     18  C   UNL     1       2.680   6.007  18.835  0.00  0.00    +0.000 A 
BRANCH  12  19
ATOM     19  C   UNL     1       6.100   4.511  17.866  0.00  0.00    +0.000 C 
ATOM     20  C   UNL     1       7.153   4.748  16.814  0.00  0.00    +0.000 C 
ATOM     21  C   UNL     1       7.471   5.007  18.252  0.00  0.00    +0.000 C 
ENDBRANCH  12  19
ENDBRANCH   1   8
BRANCH   6  22
ATOM     22  O   UNL     1      -0.140  10.627  18.743  0.00  0.00    +0.000 OA
BRANCH  22  23
ATOM     23  C   UNL     1      -1.388  11.210  18.812  0.00  0.00    +0.000 A 
ATOM     24  C   UNL     1      -1.747  12.083  19.843  0.00  0.00    +0.000 A 
ATOM     25  C   UNL     1      -3.058  12.532  19.942  0.00  0.00    +0.000 A 
ATOM     26  C   UNL     1      -3.992  12.179  18.972  0.00  0.00    +0.000 A 
ATOM     27  C   UNL     1      -3.622  11.423  17.852  0.00  0.00    +0.000 A 
ATOM     28  C   UNL     1      -4.558  11.165  16.834  0.00  0.00    +0.000 A 
ATOM     29  C   UNL     1      -4.190  10.471  15.685  0.00  0.00    +0.000 A 
ATOM     30  C   UNL     1      -2.891   9.997  15.555  0.00  0.00    +0.000 A 
ATOM     31  C   UNL     1      -1.960  10.210  16.579  0.00  0.00    +0.000 A 
ATOM     32  C   UNL     1      -2.299  10.931  17.744  0.00  0.00    +0.000 A 
ENDBRANCH  22  23
ENDBRANCH   6  22
TORSDOF 4
ENDMDL
MODEL 6
REMARK VINA RESULT:      -8.6      3.561      7.067
REMARK  Name = 
REMARK  4 active torsions:
REMARK  status: ('A' for Active; 'I' for Inactive)
REMARK    1  A    between atoms: C_2  and  C_3
REMARK    2  A    between atoms: C_8  and  O_9
REMARK    3  A    between atoms: O_9  and  C_10
REMARK    4  A    between atoms: N_23  and  C_24
REMARK                            x       y       z     vdW  Elec       q    Type
REMARK                         _______ _______ _______ _____ _____    ______ ____
ROOT
ATOM      1  C   UNL     1       0.737  11.646  18.567  0.00  0.00    +0.000 A 
ATOM      2  C   UNL     1       2.102  11.382  18.456  0.00  0.00    +0.000 A 
ATOM      3  N   UNL     1       2.638  10.228  17.989  0.00  0.00    +0.000 NA
ATOM      4  C   UNL     1       1.775   9.243  17.696  0.00  0.00    +0.000 A 
ATOM      5  C   UNL     1       0.408   9.355  17.873  0.00  0.00    +0.000 A 
ATOM      6  C   UNL     1      -0.136  10.574  18.311  0.00  0.00    +0.000 A 
ENDROOT
BRANCH   1   8
ATOM      7  O   UNL     1       0.412  13.898  18.258  0.00  0.00    +0.000 OA
ATOM      8  C   UNL     1       0.337  12.975  19.074  0.00  0.00    +0.000 C 
ATOM      9  N   UNL     1      -0.201  13.189  20.367  0.00  0.00    +0.000 N 
ATOM     10  C   UNL     1      -0.766  14.521  20.620  0.00  0.00    +0.000 C 
ATOM     11  C   UNL     1      -2.244  14.396  20.944  0.00  0.00    +0.000 C 
ATOM     12  N   UNL     1      -2.389  13.637  22.185  0.00  0.00    +0.000 N 
ATOM     13  C   UNL     1      -1.596  12.465  22.288  0.00  0.00    +0.000 A 
ATOM     14  C   UNL     1      -1.918  11.481  23.242  0.00  0.00    +0.000 A 
ATOM     15  C   UNL     1      -1.143  10.332  23.394  0.00  0.00    +0.000 A 
ATOM     16  C   UNL     1       0.000  10.171  22.625  0.00  0.00    +0.000 A 
ATOM     17  C   UNL     1       0.353  11.135  21.672  0.00  0.00    +0.000 A 
ATOM     18  C   UNL     1      -0.460  12.251  21.437  0.00  0.00    +0.000 A 
BRANCH  12  19
ATOM     19  C   UNL     1      -3.530  13.935  23.053  0.00  0.00    +0.000 C 
ATOM     20  C   UNL     1      -4.671  14.790  22.564  0.00  0.00    +0.000 C 
ATOM     21  C   UNL     1      -4.883  13.325  22.780  0.00  0.00    +0.000 C 
ENDBRANCH  12  19
ENDBRANCH   1   8
BRANCH   6  22
ATOM     22  O   UNL     1      -1.494  10.462  18.548  0.00  0.00    +0.000 OA
BRANCH  22  23
ATOM     23  C   UNL     1      -2.451  10.572  17.561  0.00  0.00    +0.000 A 
ATOM     24  C   UNL     1      -2.326   9.932  16.325  0.00  0.00    +0.000 A 
ATOM     25  C   UNL     1      -3.247  10.188  15.317  0.00  0.00    +0.000 A 
ATOM     26  C   UNL     1      -4.337  11.019  15.563  0.00  0.00    +0.000 A 
ATOM     27  C   UNL     1      -4.563  11.558  16.836  0.00  0.00    +0.000 A 
ATOM     28  C   UNL     1      -5.725  12.310  17.088  0.00  0.00    +0.000 A 
ATOM     29  C   UNL     1      -5.998  12.800  18.362  0.00  0.00    +0.000 A 
ATOM     30  C   UNL     1      -5.094  12.572  19.393  0.00  0.00    +0.000 A 
ATOM     31  C   UNL     1      -3.913  11.862  19.147  0.00  0.00    +0.000 A 
ATOM     32  C   UNL     1      -3.623  11.334  17.871  0.00  0.00    +0.000 A 
ENDBRANCH  22  23
ENDBRANCH   6  22
TORSDOF 4
ENDMDL
MODEL 7
REMARK VINA RESULT:      -8.6      5.014      9.946
REMARK  Name = 
REMARK  4 active torsions:
REMARK  status: ('A' for Active; 'I' for Inactive)
REMARK    1  A    between atoms: C_2  and  C_3
REMARK    2  A    between atoms: C_8  and  O_9
REMARK    3  A    between atoms: O_9  and  C_10
REMARK    4  A    between atoms: N_23  and  C_24
REMARK                            x       y       z     vdW  Elec       q    Type
REMARK                         _______ _______ _______ _____ _____    ______ ____
ROOT
ATOM      1  C   UNL     1      -3.553  13.972  22.357  0.00  0.00    +0.000 A 
ATOM      2  C   UNL     1      -3.780  13.486  23.643  0.00  0.00    +0.000 A 
ATOM      3  N   UNL     1      -3.143  12.428  24.201  0.00  0.00    +0.000 NA
ATOM      4  C   UNL     1      -2.293  11.755  23.410  0.00  0.00    +0.000 A 
ATOM      5  C   UNL     1      -2.073  12.081  22.084  0.00  0.00    +0.000 A 
ATOM      6  C   UNL     1      -2.704  13.210  21.534  0.00  0.00    +0.000 A 
ENDROOT
BRANCH   1   8
ATOM      7  O   UNL     1      -3.813  16.247  22.192  0.00  0.00    +0.000 OA
ATOM      8  C   UNL     1      -4.326  15.156  21.927  0.00  0.00    +0.000 C 
ATOM      9  N   UNL     1      -5.519  15.077  21.168  0.00  0.00    +0.000 N 
ATOM     10  C   UNL     1      -6.024  16.346  20.624  0.00  0.00    +0.000 C 
ATOM     11  C   UNL     1      -6.050  16.276  19.107  0.00  0.00    +0.000 C 
ATOM     12  N   UNL     1      -6.997  15.240  18.701  0.00  0.00    +0.000 N 
ATOM     13  C   UNL     1      -6.911  14.014  19.410  0.00  0.00    +0.000 A 
ATOM     14  C   UNL     1      -7.497  12.850  18.874  0.00  0.00    +0.000 A 
ATOM     15  C   UNL     1      -7.460  11.636  19.557  0.00  0.00    +0.000 A 
ATOM     16  C   UNL     1      -6.879  11.575  20.816  0.00  0.00    +0.000 A 
ATOM     17  C   UNL     1      -6.295  12.715  21.380  0.00  0.00    +0.000 A 
ATOM     18  C   UNL     1      -6.237  13.923  20.674  0.00  0.00    +0.000 A 
BRANCH  12  19
ATOM     19  C   UNL     1      -7.709  15.406  17.433  0.00  0.00    +0.000 C 
ATOM     20  C   UNL     1      -7.309  16.484  16.458  0.00  0.00    +0.000 C 
ATOM     21  C   UNL     1      -7.045  15.050  16.126  0.00  0.00    +0.000 C 
ENDBRANCH  12  19
ENDBRANCH   1   8
BRANCH   6  22
ATOM     22  O   UNL     1      -2.467  13.306  20.175  0.00  0.00    +0.000 OA
BRANCH  22  23
ATOM     23  C   UNL     1      -2.567  12.240  19.307  0.00  0.00    +0.000 A 
ATOM     24  C   UNL     1      -3.779  11.869  18.718  0.00  0.00    +0.000 A 
ATOM     25  C   UNL     1      -3.853  10.705  17.963  0.00  0.00    +0.000 A 
ATOM     26  C   UNL     1      -2.706   9.952  17.727  0.00  0.00    +0.000 A 
ATOM     27  C   UNL     1      -1.453  10.379  18.186  0.00  0.00    +0.000 A 
ATOM     28  C   UNL     1      -0.295   9.656  17.849  0.00  0.00    +0.000 A 
ATOM     29  C   UNL     1       0.965  10.101  18.242  0.00  0.00    +0.000 A 
ATOM     30  C   UNL     1       1.077  11.255  19.007  0.00  0.00    +0.000 A 
ATOM     31  C   UNL     1      -0.071  11.962  19.386  0.00  0.00    +0.000 A 
ATOM     32  C   UNL     1      -1.358  11.547  18.981  0.00  0.00    +0.000 A 
ENDBRANCH  22  23
ENDBRANCH   6  22
TORSDOF 4
ENDMDL
MODEL 8
REMARK VINA RESULT:      -8.4      3.344      6.136
REMARK  Name = 
REMARK  4 active torsions:
REMARK  status: ('A' for Active; 'I' for Inactive)
REMARK    1  A    between atoms: C_2  and  C_3
REMARK    2  A    between atoms: C_8  and  O_9
REMARK    3  A    between atoms: O_9  and  C_10
REMARK    4  A    between atoms: N_23  and  C_24
REMARK                            x       y       z     vdW  Elec       q    Type
REMARK                         _______ _______ _______ _____ _____    ______ ____
ROOT
ATOM      1  C   UNL     1      -1.704  13.366  22.787  0.00  0.00    +0.000 A 
ATOM      2  C   UNL     1      -1.377  14.085  23.935  0.00  0.00    +0.000 A 
ATOM      3  N   UNL     1      -1.729  15.371  24.177  0.00  0.00    +0.000 NA
ATOM      4  C   UNL     1      -2.369  16.014  23.187  0.00  0.00    +0.000 A 
ATOM      5  C   UNL     1      -2.647  15.433  21.964  0.00  0.00    +0.000 A 
ATOM      6  C   UNL     1      -2.319  14.084  21.746  0.00  0.00    +0.000 A 
ENDROOT
BRANCH   1   8
ATOM      7  O   UNL     1      -1.900  11.160  23.392  0.00  0.00    +0.000 OA
ATOM      8  C   UNL     1      -1.254  11.961  22.709  0.00  0.00    +0.000 C 
ATOM      9  N   UNL     1      -0.229  11.515  21.839  0.00  0.00    +0.000 N 
ATOM     10  C   UNL     1      -0.074  10.059  21.715  0.00  0.00    +0.000 C 
ATOM     11  C   UNL     1      -0.318   9.642  20.275  0.00  0.00    +0.000 C 
ATOM     12  N   UNL     1       0.711  10.245  19.431  0.00  0.00    +0.000 N 
ATOM     13  C   UNL     1       0.984  11.616  19.677  0.00  0.00    +0.000 A 
ATOM     14  C   UNL     1       1.663  12.381  18.708  0.00  0.00    +0.000 A 
ATOM     15  C   UNL     1       1.977  13.721  18.927  0.00  0.00    +0.000 A 
ATOM     16  C   UNL     1       1.660  14.309  20.144  0.00  0.00    +0.000 A 
ATOM     17  C   UNL     1       0.992  13.574  21.131  0.00  0.00    +0.000 A 
ATOM     18  C   UNL     1       0.584  12.254  20.898  0.00  0.00    +0.000 A 
BRANCH  12  19
ATOM     19  C   UNL     1       1.133   9.528  18.226  0.00  0.00    +0.000 C 
ATOM     20  C   UNL     1       2.590   9.441  17.851  0.00  0.00    +0.000 C 
ATOM     21  C   UNL     1       1.875   8.219  18.332  0.00  0.00    +0.000 C 
ENDBRANCH  12  19
ENDBRANCH   1   8
BRANCH   6  22
ATOM     22  O   UNL     1      -2.556  13.715  20.434  0.00  0.00    +0.000 OA
BRANCH  22  23
ATOM     23  C   UNL     1      -3.674  13.019  20.028  0.00  0.00    +0.000 A 
ATOM     24  C   UNL     1      -4.942  13.268  20.561  0.00  0.00    +0.000 A 
ATOM     25  C   UNL     1      -6.009  12.445  20.221  0.00  0.00    +0.000 A 
ATOM     26  C   UNL     1      -5.834  11.424  19.291  0.00  0.00    +0.000 A 
ATOM     27  C   UNL     1      -4.609  11.245  18.636  0.00  0.00    +0.000 A 
ATOM     28  C   UNL     1      -4.484  10.273  17.626  0.00  0.00    +0.000 A 
ATOM     29  C   UNL     1      -3.293  10.124  16.920  0.00  0.00    +0.000 A 
ATOM     30  C   UNL     1      -2.202  10.923  17.239  0.00  0.00    +0.000 A 
ATOM     31  C   UNL     1      -2.298  11.865  18.271  0.00  0.00    +0.000 A 
ATOM     32  C   UNL     1      -3.500  12.053  18.986  0.00  0.00    +0.000 A 
ENDBRANCH  22  23
ENDBRANCH   6  22
TORSDOF 4
ENDMDL
MODEL 9
REMARK VINA RESULT:      -8.4      3.591      8.785
REMARK  Name = 
REMARK  4 active torsions:
REMARK  status: ('A' for Active; 'I' for Inactive)
REMARK    1  A    between atoms: C_2  and  C_3
REMARK    2  A    between atoms: C_8  and  O_9
REMARK    3  A    between atoms: O_9  and  C_10
REMARK    4  A    between atoms: N_23  and  C_24
REMARK                            x       y       z     vdW  Elec       q    Type
REMARK                         _______ _______ _______ _____ _____    ______ ____
ROOT
ATOM      1  C   UNL     1       0.049  12.173  18.902  0.00  0.00    +0.000 A 
ATOM      2  C   UNL     1      -1.125  12.659  18.328  0.00  0.00    +0.000 A 
ATOM      3  N   UNL     1      -2.062  11.902  17.709  0.00  0.00    +0.000 NA
ATOM      4  C   UNL     1      -1.783  10.596  17.571  0.00  0.00    +0.000 A 
ATOM      5  C   UNL     1      -0.600  10.025  18.004  0.00  0.00    +0.000 A 
ATOM      6  C   UNL     1       0.341  10.814  18.688  0.00  0.00    +0.000 A 
ENDROOT
BRANCH   1   8
ATOM      7  O   UNL     1       1.821  13.630  18.837  0.00  0.00    +0.000 OA
ATOM      8  C   UNL     1       0.944  13.149  19.559  0.00  0.00    +0.000 C 
ATOM      9  N   UNL     1       0.765  13.601  20.889  0.00  0.00    +0.000 N 
ATOM     10  C   UNL     1       1.594  14.743  21.300  0.00  0.00    +0.000 C 
ATOM     11  C   UNL     1       0.701  15.912  21.676  0.00  0.00    +0.000 C 
ATOM     12  N   UNL     1      -0.100  15.536  22.838  0.00  0.00    +0.000 N 
ATOM     13  C   UNL     1      -0.696  14.249  22.787  0.00  0.00    +0.000 A 
ATOM     14  C   UNL     1      -1.763  13.935  23.651  0.00  0.00    +0.000 A 
ATOM     15  C   UNL     1      -2.352  12.672  23.652  0.00  0.00    +0.000 A 
ATOM     16  C   UNL     1      -1.848  11.681  22.819  0.00  0.00    +0.000 A 
ATOM     17  C   UNL     1      -0.783  11.959  21.954  0.00  0.00    +0.000 A 
ATOM     18  C   UNL     1      -0.237  13.246  21.870  0.00  0.00    +0.000 A 
BRANCH  12  19
ATOM     19  C   UNL     1      -0.492  16.585  23.783  0.00  0.00    +0.000 C 
ATOM     20  C   UNL     1      -0.167  18.031  23.508  0.00  0.00    +0.000 C 
ATOM     21  C   UNL     1      -1.586  17.563  23.434  0.00  0.00    +0.000 C 
ENDBRANCH  12  19
ENDBRANCH   1   8
BRANCH   6  22
ATOM     22  O   UNL     1       1.506  10.109  18.930  0.00  0.00    +0.000 OA
BRANCH  22  23
ATOM     23  C   UNL     1       1.535   8.870  19.534  0.00  0.00    +0.000 A 
ATOM     24  C   UNL     1       0.774   8.575  20.669  0.00  0.00    +0.000 A 
ATOM     25  C   UNL     1       0.945   7.359  21.319  0.00  0.00    +0.000 A 
ATOM     26  C   UNL     1       1.813   6.404  20.796  0.00  0.00    +0.000 A 
ATOM     27  C   UNL     1       2.478   6.619  19.582  0.00  0.00    +0.000 A 
ATOM     28  C   UNL     1       3.270   5.600  19.021  0.00  0.00    +0.000 A 
ATOM     29  C   UNL     1       3.886   5.772  17.785  0.00  0.00    +0.000 A 
ATOM     30  C   UNL     1       3.746   6.979  17.110  0.00  0.00    +0.000 A 
ATOM     31  C   UNL     1       2.996   8.018  17.676  0.00  0.00    +0.000 A 
ATOM     32  C   UNL     1       2.341   7.861  18.916  0.00  0.00    +0.000 A 
ENDBRANCH  22  23
ENDBRANCH   6  22
TORSDOF 4
ENDMDL
