MODEL 1
REMARK VINA RESULT:      -6.2      0.000      0.000
REMARK  Name = 
REMARK  8 active torsions:
REMARK  status: ('A' for Active; 'I' for Inactive)
REMARK    1  A    between atoms: C_1  and  C_2
REMARK    2  A    between atoms: C_10  and  C_11
REMARK    3  A    between atoms: N_21  and  C_22
REMARK    4  A    between atoms: C_22  and  C_23
REMARK    5  A    between atoms: C_27  and  C_29
REMARK    6  A    between atoms: C_29  and  C_30
REMARK    7  A    between atoms: C_29  and  C_31
REMARK    8  A    between atoms: C_29  and  C_32
REMARK                            x       y       z     vdW  Elec       q    Type
REMARK                         _______ _______ _______ _____ _____    ______ ____
ROOT
ATOM      1  C   UNL     1       0.971  11.081  20.206  0.00  0.00    +0.000 C 
ATOM      2  C   UNL     1      -0.467  11.125  19.702  0.00  0.00    +0.000 C 
ATOM      3  C   UNL     1      -0.710   9.982  18.687  0.00  0.00    +0.000 C 
ATOM      4  O   UNL     1      -2.096   9.919  18.297  0.00  0.00    +0.000 OA
ATOM      5  C   UNL     1      -2.518  11.164  17.708  0.00  0.00    +0.000 C 
ATOM      6  C   UNL     1      -2.309  12.351  18.668  0.00  0.00    +0.000 C 
ATOM      7  N   UNL     1      -0.886  12.377  19.029  0.00  0.00    +0.000 N 
ATOM      8  C   UNL     1      -0.371  13.580  19.454  0.00  0.00    +0.000 A 
ATOM      9  N   UNL     1       0.948  13.757  19.242  0.00  0.00    +0.000 NA
ATOM     10  C   UNL     1       1.526  14.930  19.553  0.00  0.00    +0.000 A 
ATOM     11  C   UNL     1       0.755  15.940  20.067  0.00  0.00    +0.000 A 
ATOM     12  C   UNL     1      -0.601  15.715  20.213  0.00  0.00    +0.000 A 
ATOM     13  N   UNL     1      -1.173  14.548  19.927  0.00  0.00    +0.000 NA
ATOM     14  N   UNL     1      -1.276  16.878  20.604  0.00  0.00    +0.000 N 
ATOM     15  C   UNL     1      -0.258  17.885  20.896  0.00  0.00    +0.000 C 
ATOM     16  C   UNL     1       1.102  17.327  20.459  0.00  0.00    +0.000 C 
ENDROOT
BRANCH  10  17
ATOM     17  C   UNL     1       2.964  14.999  19.279  0.00  0.00    +0.000 A 
ATOM     18  C   UNL     1       3.491  15.067  18.000  0.00  0.00    +0.000 A 
ATOM     19  N   UNL     1       4.817  15.112  17.706  0.00  0.00    +0.000 NA
ATOM     20  C   UNL     1       5.655  15.060  18.741  0.00  0.00    +0.000 A 
ATOM     21  N   UNL     1       7.009  15.092  18.487  0.00  0.00    +0.000 N 
ATOM     22  N   UNL     1       5.278  15.012  20.018  0.00  0.00    +0.000 NA
ATOM     23  C   UNL     1       3.947  14.964  20.249  0.00  0.00    +0.000 A 
ATOM     24  H   UNL     1       7.187  15.514  17.589  0.00  0.00    +0.000 HD
ATOM     25  H   UNL     1       7.503  15.457  19.288  0.00  0.00    +0.000 HD
ENDBRANCH  10  17
BRANCH  14  26
ATOM     26  C   UNL     1      -2.677  16.962  21.051  0.00  0.00    +0.000 C 
ATOM     27  C   UNL     1      -3.594  17.445  19.922  0.00  0.00    +0.000 C 
ATOM     28  C   UNL     1      -2.821  17.816  22.323  0.00  0.00    +0.000 C 
ATOM     29  C   UNL     1      -2.530  16.847  23.460  0.00  0.00    +0.000 C 
ATOM     30  N   UNL     1      -3.035  15.562  23.005  0.00  0.00    +0.000 N 
ATOM     31  C   UNL     1      -3.253  14.542  23.909  0.00  0.00    +0.000 C 
ATOM     32  O   UNL     1      -2.981  14.725  25.102  0.00  0.00    +0.000 OA
ATOM     33  C   UNL     1      -3.211  15.589  21.562  0.00  0.00    +0.000 C 
BRANCH  31  34
ATOM     34  C   UNL     1      -3.846  13.174  23.455  0.00  0.00    +0.000 C 
ATOM     35  C   UNL     1      -2.807  12.290  22.752  0.00  0.00    +0.000 C 
ATOM     36  C   UNL     1      -4.292  12.389  24.715  0.00  0.00    +0.000 C 
ATOM     37  C   UNL     1      -5.106  13.352  22.597  0.00  0.00    +0.000 C 
ENDBRANCH  31  34
ENDBRANCH  14  26
TORSDOF 3
ENDMDL
MODEL 2
REMARK VINA RESULT:      -6.2      0.970      1.250
REMARK  Name = 
REMARK  8 active torsions:
REMARK  status: ('A' for Active; 'I' for Inactive)
REMARK    1  A    between atoms: C_1  and  C_2
REMARK    2  A    between atoms: C_10  and  C_11
REMARK    3  A    between atoms: N_21  and  C_22
REMARK    4  A    between atoms: C_22  and  C_23
REMARK    5  A    between atoms: C_27  and  C_29
REMARK    6  A    between atoms: C_29  and  C_30
REMARK    7  A    between atoms: C_29  and  C_31
REMARK    8  A    between atoms: C_29  and  C_32
REMARK                            x       y       z     vdW  Elec       q    Type
REMARK                         _______ _______ _______ _____ _____    ______ ____
ROOT
ATOM      1  C   UNL     1       1.262  11.916  20.728  0.00  0.00    +0.000 C 
ATOM      2  C   UNL     1      -0.143  11.630  20.210  0.00  0.00    +0.000 C 
ATOM      3  C   UNL     1      -0.130  10.383  19.295  0.00  0.00    +0.000 C 
ATOM      4  O   UNL     1      -1.467  10.013  18.901  0.00  0.00    +0.000 OA
ATOM      5  C   UNL     1      -2.112  11.096  18.205  0.00  0.00    +0.000 C 
ATOM      6  C   UNL     1      -2.166  12.375  19.062  0.00  0.00    +0.000 C 
ATOM      7  N   UNL     1      -0.786  12.714  19.431  0.00  0.00    +0.000 N 
ATOM      8  C   UNL     1      -0.529  14.026  19.755  0.00  0.00    +0.000 A 
ATOM      9  N   UNL     1       0.734  14.445  19.539  0.00  0.00    +0.000 NA
ATOM     10  C   UNL     1       1.060  15.731  19.754  0.00  0.00    +0.000 A 
ATOM     11  C   UNL     1       0.092  16.606  20.173  0.00  0.00    +0.000 A 
ATOM     12  C   UNL     1      -1.196  16.128  20.327  0.00  0.00    +0.000 A 
ATOM     13  N   UNL     1      -1.518  14.851  20.138  0.00  0.00    +0.000 NA
ATOM     14  N   UNL     1      -2.096  17.161  20.613  0.00  0.00    +0.000 N 
ATOM     15  C   UNL     1      -1.305  18.371  20.826  0.00  0.00    +0.000 C 
ATOM     16  C   UNL     1       0.148  18.061  20.449  0.00  0.00    +0.000 C 
ENDROOT
BRANCH  10  17
ATOM     17  C   UNL     1       2.462  16.062  19.486  0.00  0.00    +0.000 A 
ATOM     18  C   UNL     1       3.491  15.786  20.373  0.00  0.00    +0.000 A 
ATOM     19  N   UNL     1       4.798  16.095  20.169  0.00  0.00    +0.000 NA
ATOM     20  C   UNL     1       5.085  16.737  19.036  0.00  0.00    +0.000 A 
ATOM     21  N   UNL     1       6.397  17.080  18.795  0.00  0.00    +0.000 N 
ATOM     22  N   UNL     1       4.194  17.045  18.094  0.00  0.00    +0.000 NA
ATOM     23  C   UNL     1       2.909  16.716  18.354  0.00  0.00    +0.000 A 
ATOM     24  H   UNL     1       7.017  16.488  19.325  0.00  0.00    +0.000 HD
ATOM     25  H   UNL     1       6.556  17.163  17.802  0.00  0.00    +0.000 HD
ENDBRANCH  10  17
BRANCH  14  26
ATOM     26  C   UNL     1      -3.497  17.000  21.040  0.00  0.00    +0.000 C 
ATOM     27  C   UNL     1      -4.467  17.295  19.891  0.00  0.00    +0.000 C 
ATOM     28  C   UNL     1      -3.811  17.835  22.295  0.00  0.00    +0.000 C 
ATOM     29  C   UNL     1      -3.370  16.950  23.453  0.00  0.00    +0.000 C 
ATOM     30  N   UNL     1      -3.631  15.590  23.014  0.00  0.00    +0.000 N 
ATOM     31  C   UNL     1      -3.678  14.561  23.933  0.00  0.00    +0.000 C 
ATOM     32  O   UNL     1      -3.462  14.808  25.126  0.00  0.00    +0.000 OA
ATOM     33  C   UNL     1      -3.786  15.563  21.569  0.00  0.00    +0.000 C 
BRANCH  31  34
ATOM     34  C   UNL     1      -4.011  13.102  23.497  0.00  0.00    +0.000 C 
ATOM     35  C   UNL     1      -2.803  12.388  22.874  0.00  0.00    +0.000 C 
ATOM     36  C   UNL     1      -4.387  12.284  24.759  0.00  0.00    +0.000 C 
ATOM     37  C   UNL     1      -5.235  13.046  22.573  0.00  0.00    +0.000 C 
ENDBRANCH  31  34
ENDBRANCH  14  26
TORSDOF 3
ENDMDL
MODEL 3
REMARK VINA RESULT:      -6.2      3.779      6.044
REMARK  Name = 
REMARK  8 active torsions:
REMARK  status: ('A' for Active; 'I' for Inactive)
REMARK    1  A    between atoms: C_1  and  C_2
REMARK    2  A    between atoms: C_10  and  C_11
REMARK    3  A    between atoms: N_21  and  C_22
REMARK    4  A    between atoms: C_22  and  C_23
REMARK    5  A    between atoms: C_27  and  C_29
REMARK    6  A    between atoms: C_29  and  C_30
REMARK    7  A    between atoms: C_29  and  C_31
REMARK    8  A    between atoms: C_29  and  C_32
REMARK                            x       y       z     vdW  Elec       q    Type
REMARK                         _______ _______ _______ _____ _____    ______ ____
ROOT
ATOM      1  C   UNL     1       0.684  11.555  19.606  0.00  0.00    +0.000 C 
ATOM      2  C   UNL     1       0.480  11.255  21.087  0.00  0.00    +0.000 C 
ATOM      3  C   UNL     1       1.387  10.080  21.521  0.00  0.00    +0.000 C 
ATOM      4  O   UNL     1       1.313   9.864  22.945  0.00  0.00    +0.000 OA
ATOM      5  C   UNL     1      -0.042   9.584  23.349  0.00  0.00    +0.000 C 
ATOM      6  C   UNL     1      -1.004  10.719  22.951  0.00  0.00    +0.000 C 
ATOM      7  N   UNL     1      -0.897  10.894  21.497  0.00  0.00    +0.000 N 
ATOM      8  C   UNL     1      -1.969  11.473  20.857  0.00  0.00    +0.000 A 
ATOM      9  N   UNL     1      -2.129  11.133  19.562  0.00  0.00    +0.000 NA
ATOM     10  C   UNL     1      -3.191  11.588  18.876  0.00  0.00    +0.000 A 
ATOM     11  C   UNL     1      -4.111  12.379  19.513  0.00  0.00    +0.000 A 
ATOM     12  C   UNL     1      -3.919  12.650  20.855  0.00  0.00    +0.000 A 
ATOM     13  N   UNL     1      -2.858  12.221  21.532  0.00  0.00    +0.000 NA
ATOM     14  N   UNL     1      -5.009  13.340  21.400  0.00  0.00    +0.000 N 
ATOM     15  C   UNL     1      -5.893  13.688  20.290  0.00  0.00    +0.000 C 
ATOM     16  C   UNL     1      -5.376  12.983  19.031  0.00  0.00    +0.000 C 
ENDROOT
BRANCH  10  17
ATOM     17  C   UNL     1      -3.252  11.152  17.478  0.00  0.00    +0.000 A 
ATOM     18  C   UNL     1      -2.279  10.362  16.885  0.00  0.00    +0.000 A 
ATOM     19  N   UNL     1      -2.292   9.955  15.590  0.00  0.00    +0.000 NA
ATOM     20  C   UNL     1      -3.311  10.381  14.844  0.00  0.00    +0.000 A 
ATOM     21  N   UNL     1      -3.356  10.001  13.521  0.00  0.00    +0.000 N 
ATOM     22  N   UNL     1      -4.318  11.128  15.296  0.00  0.00    +0.000 NA
ATOM     23  C   UNL     1      -4.250  11.506  16.591  0.00  0.00    +0.000 A 
ATOM     24  H   UNL     1      -2.817   9.161  13.379  0.00  0.00    +0.000 HD
ATOM     25  H   UNL     1      -4.309  10.012  13.189  0.00  0.00    +0.000 HD
ENDBRANCH  10  17
BRANCH  14  26
ATOM     26  C   UNL     1      -5.061  13.970  22.731  0.00  0.00    +0.000 C 
ATOM     27  C   UNL     1      -5.738  13.051  23.755  0.00  0.00    +0.000 C 
ATOM     28  C   UNL     1      -5.713  15.363  22.679  0.00  0.00    +0.000 C 
ATOM     29  C   UNL     1      -4.571  16.296  22.298  0.00  0.00    +0.000 C 
ATOM     30  N   UNL     1      -3.387  15.721  22.914  0.00  0.00    +0.000 N 
ATOM     31  C   UNL     1      -2.246  16.483  23.068  0.00  0.00    +0.000 C 
ATOM     32  O   UNL     1      -2.235  17.645  22.645  0.00  0.00    +0.000 OA
ATOM     33  C   UNL     1      -3.642  14.333  23.263  0.00  0.00    +0.000 C 
BRANCH  31  34
ATOM     34  C   UNL     1      -0.982  15.909  23.776  0.00  0.00    +0.000 C 
ATOM     35  C   UNL     1      -0.422  14.671  23.061  0.00  0.00    +0.000 C 
ATOM     36  C   UNL     1       0.140  16.977  23.722  0.00  0.00    +0.000 C 
ATOM     37  C   UNL     1      -1.234  15.631  25.264  0.00  0.00    +0.000 C 
ENDBRANCH  31  34
ENDBRANCH  14  26
TORSDOF 3
ENDMDL
MODEL 4
REMARK VINA RESULT:      -6.1      2.755      5.364
REMARK  Name = 
REMARK  8 active torsions:
REMARK  status: ('A' for Active; 'I' for Inactive)
REMARK    1  A    between atoms: C_1  and  C_2
REMARK    2  A    between atoms: C_10  and  C_11
REMARK    3  A    between atoms: N_21  and  C_22
REMARK    4  A    between atoms: C_22  and  C_23
REMARK    5  A    between atoms: C_27  and  C_29
REMARK    6  A    between atoms: C_29  and  C_30
REMARK    7  A    between atoms: C_29  and  C_31
REMARK    8  A    between atoms: C_29  and  C_32
REMARK                            x       y       z     vdW  Elec       q    Type
REMARK                         _______ _______ _______ _____ _____    ______ ____
ROOT
ATOM      1  C   UNL     1      -1.120  11.468  22.816  0.00  0.00    +0.000 C 
ATOM      2  C   UNL     1      -1.995  12.685  22.537  0.00  0.00    +0.000 C 
ATOM      3  C   UNL     1      -3.486  12.330  22.749  0.00  0.00    +0.000 C 
ATOM      4  O   UNL     1      -4.322  13.497  22.622  0.00  0.00    +0.000 OA
ATOM      5  C   UNL     1      -4.165  14.099  21.323  0.00  0.00    +0.000 C 
ATOM      6  C   UNL     1      -2.700  14.485  21.044  0.00  0.00    +0.000 C 
ATOM      7  N   UNL     1      -1.893  13.266  21.178  0.00  0.00    +0.000 N 
ATOM      8  C   UNL     1      -0.685  13.240  20.519  0.00  0.00    +0.000 A 
ATOM      9  N   UNL     1      -0.236  12.018  20.170  0.00  0.00    +0.000 NA
ATOM     10  C   UNL     1       0.896  11.898  19.456  0.00  0.00    +0.000 A 
ATOM     11  C   UNL     1       1.570  13.029  19.075  0.00  0.00    +0.000 A 
ATOM     12  C   UNL     1       1.032  14.255  19.419  0.00  0.00    +0.000 A 
ATOM     13  N   UNL     1      -0.076  14.378  20.145  0.00  0.00    +0.000 NA
ATOM     14  N   UNL     1       1.745  15.310  18.838  0.00  0.00    +0.000 N 
ATOM     15  C   UNL     1       2.932  14.731  18.210  0.00  0.00    +0.000 C 
ATOM     16  C   UNL     1       2.800  13.203  18.266  0.00  0.00    +0.000 C 
ENDROOT
BRANCH  10  17
ATOM     17  C   UNL     1       1.281  10.520  19.141  0.00  0.00    +0.000 A 
ATOM     18  C   UNL     1       1.228   9.486  20.063  0.00  0.00    +0.000 A 
ATOM     19  N   UNL     1       1.594   8.202  19.813  0.00  0.00    +0.000 NA
ATOM     20  C   UNL     1       2.063   7.946  18.592  0.00  0.00    +0.000 A 
ATOM     21  N   UNL     1       2.457   6.659  18.301  0.00  0.00    +0.000 N 
ATOM     22  N   UNL     1       2.148   8.844  17.611  0.00  0.00    +0.000 NA
ATOM     23  C   UNL     1       1.773  10.105  17.918  0.00  0.00    +0.000 A 
ATOM     24  H   UNL     1       2.005   6.005  18.922  0.00  0.00    +0.000 HD
ATOM     25  H   UNL     1       2.389   6.492  17.308  0.00  0.00    +0.000 HD
ENDBRANCH  10  17
BRANCH  14  26
ATOM     26  C   UNL     1       1.589  16.742  19.149  0.00  0.00    +0.000 C 
ATOM     27  C   UNL     1       0.785  17.463  18.061  0.00  0.00    +0.000 C 
ATOM     28  C   UNL     1       2.943  17.420  19.418  0.00  0.00    +0.000 C 
ATOM     29  C   UNL     1       3.214  17.144  20.890  0.00  0.00    +0.000 C 
ATOM     30  N   UNL     1       1.907  17.139  21.525  0.00  0.00    +0.000 N 
ATOM     31  C   UNL     1       1.799  17.266  22.895  0.00  0.00    +0.000 C 
ATOM     32  O   UNL     1       2.829  17.348  23.575  0.00  0.00    +0.000 OA
ATOM     33  C   UNL     1       0.874  16.968  20.516  0.00  0.00    +0.000 C 
BRANCH  31  34
ATOM     34  C   UNL     1       0.408  17.320  23.595  0.00  0.00    +0.000 C 
ATOM     35  C   UNL     1      -0.344  15.985  23.506  0.00  0.00    +0.000 C 
ATOM     36  C   UNL     1       0.627  17.588  25.106  0.00  0.00    +0.000 C 
ATOM     37  C   UNL     1      -0.449  18.483  23.076  0.00  0.00    +0.000 C 
ENDBRANCH  31  34
ENDBRANCH  14  26
TORSDOF 3
ENDMDL
MODEL 5
REMARK VINA RESULT:      -6.0      6.575     11.095
REMARK  Name = 
REMARK  8 active torsions:
REMARK  status: ('A' for Active; 'I' for Inactive)
REMARK    1  A    between atoms: C_1  and  C_2
REMARK    2  A    between atoms: C_10  and  C_11
REMARK    3  A    between atoms: N_21  and  C_22
REMARK    4  A    between atoms: C_22  and  C_23
REMARK    5  A    between atoms: C_27  and  C_29
REMARK    6  A    between atoms: C_29  and  C_30
REMARK    7  A    between atoms: C_29  and  C_31
REMARK    8  A    between atoms: C_29  and  C_32
REMARK                            x       y       z     vdW  Elec       q    Type
REMARK                         _______ _______ _______ _____ _____    ______ ____
ROOT
ATOM      1  C   UNL     1       5.320  17.185  22.158  0.00  0.00    +0.000 C 
ATOM      2  C   UNL     1       5.249  16.959  20.652  0.00  0.00    +0.000 C 
ATOM      3  C   UNL     1       3.893  17.460  20.102  0.00  0.00    +0.000 C 
ATOM      4  O   UNL     1       3.853  17.381  18.662  0.00  0.00    +0.000 OA
ATOM      5  C   UNL     1       4.066  16.026  18.220  0.00  0.00    +0.000 C 
ATOM      6  C   UNL     1       5.406  15.462  18.728  0.00  0.00    +0.000 C 
ATOM      7  N   UNL     1       5.394  15.558  20.194  0.00  0.00    +0.000 N 
ATOM      8  C   UNL     1       6.222  14.701  20.883  0.00  0.00    +0.000 A 
ATOM      9  N   UNL     1       5.826  14.387  22.132  0.00  0.00    +0.000 NA
ATOM     10  C   UNL     1       6.530  13.498  22.854  0.00  0.00    +0.000 A 
ATOM     11  C   UNL     1       7.635  12.908  22.298  0.00  0.00    +0.000 A 
ATOM     12  C   UNL     1       7.960  13.233  20.994  0.00  0.00    +0.000 A 
ATOM     13  N   UNL     1       7.279  14.129  20.284  0.00  0.00    +0.000 NA
ATOM     14  N   UNL     1       9.014  12.445  20.516  0.00  0.00    +0.000 N 
ATOM     15  C   UNL     1       9.519  11.672  21.649  0.00  0.00    +0.000 C 
ATOM     16  C   UNL     1       8.564  11.883  22.831  0.00  0.00    +0.000 C 
ENDROOT
BRANCH  10  17
ATOM     17  C   UNL     1       6.002  13.241  24.197  0.00  0.00    +0.000 A 
ATOM     18  C   UNL     1       5.645  14.250  25.079  0.00  0.00    +0.000 A 
ATOM     19  N   UNL     1       5.172  14.051  26.337  0.00  0.00    +0.000 NA
ATOM     20  C   UNL     1       5.077  12.784  26.741  0.00  0.00    +0.000 A 
ATOM     21  N   UNL     1       4.612  12.539  28.014  0.00  0.00    +0.000 N 
ATOM     22  N   UNL     1       5.368  11.726  25.987  0.00  0.00    +0.000 NA
ATOM     23  C   UNL     1       5.839  11.984  24.746  0.00  0.00    +0.000 A 
ATOM     24  H   UNL     1       4.064  13.319  28.344  0.00  0.00    +0.000 HD
ATOM     25  H   UNL     1       4.200  11.619  28.061  0.00  0.00    +0.000 HD
ENDBRANCH  10  17
BRANCH  14  26
ATOM     26  C   UNL     1       9.754  12.653  19.260  0.00  0.00    +0.000 C 
ATOM     27  C   UNL     1       9.198  11.774  18.134  0.00  0.00    +0.000 C 
ATOM     28  C   UNL     1      11.270  12.464  19.451  0.00  0.00    +0.000 C 
ATOM     29  C   UNL     1      11.756  13.819  19.946  0.00  0.00    +0.000 C 
ATOM     30  N   UNL     1      10.903  14.794  19.289  0.00  0.00    +0.000 N 
ATOM     31  C   UNL     1      11.280  16.121  19.234  0.00  0.00    +0.000 C 
ATOM     32  O   UNL     1      12.333  16.472  19.779  0.00  0.00    +0.000 OA
ATOM     33  C   UNL     1       9.705  14.139  18.790  0.00  0.00    +0.000 C 
BRANCH  31  34
ATOM     34  C   UNL     1      10.410  17.177  18.488  0.00  0.00    +0.000 C 
ATOM     35  C   UNL     1      10.319  16.902  16.981  0.00  0.00    +0.000 C 
ATOM     36  C   UNL     1       8.959  17.090  19.027  0.00  0.00    +0.000 C 
ATOM     37  C   UNL     1      10.883  18.611  18.769  0.00  0.00    +0.000 C 
ENDBRANCH  31  34
ENDBRANCH  14  26
TORSDOF 3
ENDMDL
MODEL 6
REMARK VINA RESULT:      -6.0      0.115      1.084
REMARK  Name = 
REMARK  8 active torsions:
REMARK  status: ('A' for Active; 'I' for Inactive)
REMARK    1  A    between atoms: C_1  and  C_2
REMARK    2  A    between atoms: C_10  and  C_11
REMARK    3  A    between atoms: N_21  and  C_22
REMARK    4  A    between atoms: C_22  and  C_23
REMARK    5  A    between atoms: C_27  and  C_29
REMARK    6  A    between atoms: C_29  and  C_30
REMARK    7  A    between atoms: C_29  and  C_31
REMARK    8  A    between atoms: C_29  and  C_32
REMARK                            x       y       z     vdW  Elec       q    Type
REMARK                         _______ _______ _______ _____ _____    ______ ____
ROOT
ATOM      1  C   UNL     1       1.020  11.046  20.067  0.00  0.00    +0.000 C 
ATOM      2  C   UNL     1      -0.418  11.109  19.565  0.00  0.00    +0.000 C 
ATOM      3  C   UNL     1      -0.666   9.995  18.520  0.00  0.00    +0.000 C 
ATOM      4  O   UNL     1      -2.053   9.948  18.129  0.00  0.00    +0.000 OA
ATOM      5  C   UNL     1      -2.470  11.210  17.574  0.00  0.00    +0.000 C 
ATOM      6  C   UNL     1      -2.256  12.369  18.566  0.00  0.00    +0.000 C 
ATOM      7  N   UNL     1      -0.833  12.380  18.927  0.00  0.00    +0.000 N 
ATOM      8  C   UNL     1      -0.313  13.569  19.384  0.00  0.00    +0.000 A 
ATOM      9  N   UNL     1       1.007  13.747  19.176  0.00  0.00    +0.000 NA
ATOM     10  C   UNL     1       1.589  14.909  19.519  0.00  0.00    +0.000 A 
ATOM     11  C   UNL     1       0.822  15.908  20.061  0.00  0.00    +0.000 A 
ATOM     12  C   UNL     1      -0.535  15.684  20.201  0.00  0.00    +0.000 A 
ATOM     13  N   UNL     1      -1.111  14.528  19.884  0.00  0.00    +0.000 NA
ATOM     14  N   UNL     1      -1.204  16.838  20.624  0.00  0.00    +0.000 N 
ATOM     15  C   UNL     1      -0.182  17.833  20.943  0.00  0.00    +0.000 C 
ATOM     16  C   UNL     1       1.175  17.282  20.490  0.00  0.00    +0.000 C 
ENDROOT
BRANCH  10  17
ATOM     17  C   UNL     1       3.027  14.980  19.247  0.00  0.00    +0.000 A 
ATOM     18  C   UNL     1       3.991  14.954  20.242  0.00  0.00    +0.000 A 
ATOM     19  N   UNL     1       5.330  15.038  20.030  0.00  0.00    +0.000 NA
ATOM     20  C   UNL     1       5.722  15.182  18.764  0.00  0.00    +0.000 A 
ATOM     21  N   UNL     1       7.071  15.282  18.505  0.00  0.00    +0.000 N 
ATOM     22  N   UNL     1       4.900  15.203  17.716  0.00  0.00    +0.000 NA
ATOM     23  C   UNL     1       3.579  15.120  17.988  0.00  0.00    +0.000 A 
ATOM     24  H   UNL     1       7.604  14.872  19.257  0.00  0.00    +0.000 HD
ATOM     25  H   UNL     1       7.268  14.974  17.565  0.00  0.00    +0.000 HD
ENDBRANCH  10  17
BRANCH  14  26
ATOM     26  C   UNL     1      -2.605  16.915  21.074  0.00  0.00    +0.000 C 
ATOM     27  C   UNL     1      -3.529  17.374  19.941  0.00  0.00    +0.000 C 
ATOM     28  C   UNL     1      -2.753  17.786  22.335  0.00  0.00    +0.000 C 
ATOM     29  C   UNL     1      -2.450  16.834  23.484  0.00  0.00    +0.000 C 
ATOM     30  N   UNL     1      -2.945  15.539  23.048  0.00  0.00    +0.000 N 
ATOM     31  C   UNL     1      -3.151  14.529  23.966  0.00  0.00    +0.000 C 
ATOM     32  O   UNL     1      -2.878  14.731  25.156  0.00  0.00    +0.000 OA
ATOM     33  C   UNL     1      -3.125  15.545  21.605  0.00  0.00    +0.000 C 
BRANCH  31  34
ATOM     34  C   UNL     1      -3.733  13.150  23.533  0.00  0.00    +0.000 C 
ATOM     35  C   UNL     1      -4.312  12.362  24.716  0.00  0.00    +0.000 C 
ATOM     36  C   UNL     1      -4.916  13.397  22.563  0.00  0.00    +0.000 C 
ATOM     37  C   UNL     1      -2.708  12.317  22.751  0.00  0.00    +0.000 C 
ENDBRANCH  31  34
ENDBRANCH  14  26
TORSDOF 3
ENDMDL
MODEL 7
REMARK VINA RESULT:      -6.0      2.923      8.109
REMARK  Name = 
REMARK  8 active torsions:
REMARK  status: ('A' for Active; 'I' for Inactive)
REMARK    1  A    between atoms: C_1  and  C_2
REMARK    2  A    between atoms: C_10  and  C_11
REMARK    3  A    between atoms: N_21  and  C_22
REMARK    4  A    between atoms: C_22  and  C_23
REMARK    5  A    between atoms: C_27  and  C_29
REMARK    6  A    between atoms: C_29  and  C_30
REMARK    7  A    between atoms: C_29  and  C_31
REMARK    8  A    between atoms: C_29  and  C_32
REMARK                            x       y       z     vdW  Elec       q    Type
REMARK                         _______ _______ _______ _____ _____    ______ ____
ROOT
ATOM      1  C   UNL     1      -1.732  11.863  22.966  0.00  0.00    +0.000 C 
ATOM      2  C   UNL     1      -1.423  13.244  23.533  0.00  0.00    +0.000 C 
ATOM      3  C   UNL     1      -2.706  13.877  24.123  0.00  0.00    +0.000 C 
ATOM      4  O   UNL     1      -2.415  15.124  24.785  0.00  0.00    +0.000 OA
ATOM      5  C   UNL     1      -1.811  16.058  23.870  0.00  0.00    +0.000 C 
ATOM      6  C   UNL     1      -0.520  15.495  23.246  0.00  0.00    +0.000 C 
ATOM      7  N   UNL     1      -0.870  14.234  22.580  0.00  0.00    +0.000 N 
ATOM      8  C   UNL     1      -0.038  13.810  21.568  0.00  0.00    +0.000 A 
ATOM      9  N   UNL     1      -0.614  13.034  20.627  0.00  0.00    +0.000 NA
ATOM     10  C   UNL     1       0.100  12.635  19.561  0.00  0.00    +0.000 A 
ATOM     11  C   UNL     1       1.403  13.042  19.436  0.00  0.00    +0.000 A 
ATOM     12  C   UNL     1       1.920  13.879  20.407  0.00  0.00    +0.000 A 
ATOM     13  N   UNL     1       1.224  14.258  21.476  0.00  0.00    +0.000 NA
ATOM     14  N   UNL     1       3.202  14.327  20.069  0.00  0.00    +0.000 N 
ATOM     15  C   UNL     1       3.611  13.591  18.874  0.00  0.00    +0.000 C 
ATOM     16  C   UNL     1       2.402  12.795  18.369  0.00  0.00    +0.000 C 
ENDROOT
BRANCH  10  17
ATOM     17  C   UNL     1      -0.634  11.794  18.611  0.00  0.00    +0.000 A 
ATOM     18  C   UNL     1      -1.716  12.248  17.873  0.00  0.00    +0.000 A 
ATOM     19  N   UNL     1      -2.432  11.494  16.999  0.00  0.00    +0.000 NA
ATOM     20  C   UNL     1      -2.065  10.218  16.878  0.00  0.00    +0.000 A 
ATOM     21  N   UNL     1      -2.772   9.415  16.010  0.00  0.00    +0.000 N 
ATOM     22  N   UNL     1      -1.034   9.664  17.514  0.00  0.00    +0.000 NA
ATOM     23  C   UNL     1      -0.362  10.461  18.374  0.00  0.00    +0.000 A 
ATOM     24  H   UNL     1      -3.238   9.976  15.313  0.00  0.00    +0.000 HD
ATOM     25  H   UNL     1      -2.192   8.653  15.692  0.00  0.00    +0.000 HD
ENDBRANCH  10  17
BRANCH  14  26
ATOM     26  C   UNL     1       4.130  15.055  20.952  0.00  0.00    +0.000 C 
ATOM     27  C   UNL     1       4.126  14.468  22.368  0.00  0.00    +0.000 C 
ATOM     28  C   UNL     1       3.853  16.568  20.949  0.00  0.00    +0.000 C 
ATOM     29  C   UNL     1       4.619  17.087  19.740  0.00  0.00    +0.000 C 
ATOM     30  N   UNL     1       5.799  16.243  19.645  0.00  0.00    +0.000 N 
ATOM     31  C   UNL     1       6.880  16.643  18.886  0.00  0.00    +0.000 C 
ATOM     32  O   UNL     1       6.817  17.710  18.264  0.00  0.00    +0.000 OA
ATOM     33  C   UNL     1       5.593  15.026  20.415  0.00  0.00    +0.000 C 
BRANCH  31  34
ATOM     34  C   UNL     1       8.178  15.784  18.813  0.00  0.00    +0.000 C 
ATOM     35  C   UNL     1       9.322  16.512  18.093  0.00  0.00    +0.000 C 
ATOM     36  C   UNL     1       8.679  15.523  20.257  0.00  0.00    +0.000 C 
ATOM     37  C   UNL     1       7.916  14.402  18.197  0.00  0.00    +0.000 C 
ENDBRANCH  31  34
ENDBRANCH  14  26
TORSDOF 3
ENDMDL
MODEL 8
REMARK VINA RESULT:      -6.0      2.946      5.815
REMARK  Name = 
REMARK  8 active torsions:
REMARK  status: ('A' for Active; 'I' for Inactive)
REMARK    1  A    between atoms: C_1  and  C_2
REMARK    2  A    between atoms: C_10  and  C_11
REMARK    3  A    between atoms: N_21  and  C_22
REMARK    4  A    between atoms: C_22  and  C_23
REMARK    5  A    between atoms: C_27  and  C_29
REMARK    6  A    between atoms: C_29  and  C_30
REMARK    7  A    between atoms: C_29  and  C_31
REMARK    8  A    between atoms: C_29  and  C_32
REMARK                            x       y       z     vdW  Elec       q    Type
REMARK                         _______ _______ _______ _____ _____    ______ ____
ROOT
ATOM      1  C   UNL     1       1.880  13.698  18.123  0.00  0.00    +0.000 C 
ATOM      2  C   UNL     1       2.122  14.929  18.988  0.00  0.00    +0.000 C 
ATOM      3  C   UNL     1       3.527  15.511  18.705  0.00  0.00    +0.000 C 
ATOM      4  O   UNL     1       3.728  16.752  19.412  0.00  0.00    +0.000 OA
ATOM      5  C   UNL     1       3.578  16.561  20.832  0.00  0.00    +0.000 C 
ATOM      6  C   UNL     1       2.195  15.987  21.189  0.00  0.00    +0.000 C 
ATOM      7  N   UNL     1       2.041  14.725  20.453  0.00  0.00    +0.000 N 
ATOM      8  C   UNL     1       1.149  13.809  20.962  0.00  0.00    +0.000 A 
ATOM      9  N   UNL     1       1.405  12.519  20.667  0.00  0.00    +0.000 NA
ATOM     10  C   UNL     1       0.633  11.548  21.183  0.00  0.00    +0.000 A 
ATOM     11  C   UNL     1      -0.397  11.886  22.022  0.00  0.00    +0.000 A 
ATOM     12  C   UNL     1      -0.577  13.222  22.328  0.00  0.00    +0.000 A 
ATOM     13  N   UNL     1       0.171  14.188  21.801  0.00  0.00    +0.000 NA
ATOM     14  N   UNL     1      -1.564  13.397  23.305  0.00  0.00    +0.000 N 
ATOM     15  C   UNL     1      -2.186  12.092  23.524  0.00  0.00    +0.000 C 
ATOM     16  C   UNL     1      -1.371  11.043  22.756  0.00  0.00    +0.000 C 
ENDROOT
BRANCH  10  17
ATOM     17  C   UNL     1       1.009  10.188  20.787  0.00  0.00    +0.000 A 
ATOM     18  C   UNL     1       1.253   9.171  21.697  0.00  0.00    +0.000 A 
ATOM     19  N   UNL     1       1.622   7.906  21.369  0.00  0.00    +0.000 NA
ATOM     20  C   UNL     1       1.782   7.653  20.070  0.00  0.00    +0.000 A 
ATOM     21  N   UNL     1       2.167   6.385  19.694  0.00  0.00    +0.000 N 
ATOM     22  N   UNL     1       1.562   8.535  19.095  0.00  0.00    +0.000 NA
ATOM     23  C   UNL     1       1.201   9.778  19.481  0.00  0.00    +0.000 A 
ATOM     24  H   UNL     1       1.927   5.719  20.412  0.00  0.00    +0.000 HD
ATOM     25  H   UNL     1       1.861   6.195  18.752  0.00  0.00    +0.000 HD
ENDBRANCH  10  17
BRANCH  14  26
ATOM     26  C   UNL     1      -2.160  14.679  23.719  0.00  0.00    +0.000 C 
ATOM     27  C   UNL     1      -1.504  15.211  24.998  0.00  0.00    +0.000 C 
ATOM     28  C   UNL     1      -3.691  14.582  23.846  0.00  0.00    +0.000 C 
ATOM     29  C   UNL     1      -4.200  14.817  22.431  0.00  0.00    +0.000 C 
ATOM     30  N   UNL     1      -3.261  15.755  21.839  0.00  0.00    +0.000 N 
ATOM     31  C   UNL     1      -3.602  16.452  20.697  0.00  0.00    +0.000 C 
ATOM     32  O   UNL     1      -4.701  16.242  20.169  0.00  0.00    +0.000 OA
ATOM     33  C   UNL     1      -2.030  15.769  22.612  0.00  0.00    +0.000 C 
BRANCH  31  34
ATOM     34  C   UNL     1      -2.636  17.503  20.073  0.00  0.00    +0.000 C 
ATOM     35  C   UNL     1      -3.271  18.255  18.895  0.00  0.00    +0.000 C 
ATOM     36  C   UNL     1      -2.318  18.577  21.145  0.00  0.00    +0.000 C 
ATOM     37  C   UNL     1      -1.289  16.881  19.681  0.00  0.00    +0.000 C 
ENDBRANCH  31  34
ENDBRANCH  14  26
TORSDOF 3
ENDMDL
MODEL 9
REMARK VINA RESULT:      -5.9      5.049     10.595
REMARK  Name = 
REMARK  8 active torsions:
REMARK  status: ('A' for Active; 'I' for Inactive)
REMARK    1  A    between atoms: C_1  and  C_2
REMARK    2  A    between atoms: C_10  and  C_11
REMARK    3  A    between atoms: N_21  and  C_22
REMARK    4  A    between atoms: C_22  and  C_23
REMARK    5  A    between atoms: C_27  and  C_29
REMARK    6  A    between atoms: C_29  and  C_30
REMARK    7  A    between atoms: C_29  and  C_31
REMARK    8  A    between atoms: C_29  and  C_32
REMARK                            x       y       z     vdW  Elec       q    Type
REMARK                         _______ _______ _______ _____ _____    ______ ____
ROOT
ATOM      1  C   UNL     1       6.019  11.688  23.648  0.00  0.00    +0.000 C 
ATOM      2  C   UNL     1       7.195  12.476  24.213  0.00  0.00    +0.000 C 
ATOM      3  C   UNL     1       7.272  12.291  25.747  0.00  0.00    +0.000 C 
ATOM      4  O   UNL     1       8.453  12.916  26.288  0.00  0.00    +0.000 OA
ATOM      5  C   UNL     1       8.469  14.324  25.986  0.00  0.00    +0.000 C 
ATOM      6  C   UNL     1       8.400  14.585  24.470  0.00  0.00    +0.000 C 
ATOM      7  N   UNL     1       7.181  13.937  23.969  0.00  0.00    +0.000 N 
ATOM      8  C   UNL     1       6.651  14.423  22.795  0.00  0.00    +0.000 A 
ATOM      9  N   UNL     1       5.323  14.255  22.641  0.00  0.00    +0.000 NA
ATOM     10  C   UNL     1       4.703  14.765  21.563  0.00  0.00    +0.000 A 
ATOM     11  C   UNL     1       5.434  15.469  20.641  0.00  0.00    +0.000 A 
ATOM     12  C   UNL     1       6.783  15.651  20.881  0.00  0.00    +0.000 A 
ATOM     13  N   UNL     1       7.404  15.129  21.936  0.00  0.00    +0.000 NA
ATOM     14  N   UNL     1       7.361  16.509  19.938  0.00  0.00    +0.000 N 
ATOM     15  C   UNL     1       6.350  16.764  18.915  0.00  0.00    +0.000 C 
ATOM     16  C   UNL     1       5.023  16.164  19.398  0.00  0.00    +0.000 C 
ENDROOT
BRANCH  10  17
ATOM     17  C   UNL     1       3.261  14.514  21.506  0.00  0.00    +0.000 A 
ATOM     18  C   UNL     1       2.329  15.282  22.185  0.00  0.00    +0.000 A 
ATOM     19  N   UNL     1       0.987  15.069  22.173  0.00  0.00    +0.000 NA
ATOM     20  C   UNL     1       0.561  14.019  21.470  0.00  0.00    +0.000 A 
ATOM     21  N   UNL     1      -0.792  13.759  21.441  0.00  0.00    +0.000 N 
ATOM     22  N   UNL     1       1.349  13.214  20.759  0.00  0.00    +0.000 NA
ATOM     23  C   UNL     1       2.675  13.472  20.813  0.00  0.00    +0.000 A 
ATOM     24  H   UNL     1      -1.314  14.597  21.650  0.00  0.00    +0.000 HD
ATOM     25  H   UNL     1      -1.029  13.252  20.602  0.00  0.00    +0.000 HD
ENDBRANCH  10  17
BRANCH  14  26
ATOM     26  C   UNL     1       8.802  16.762  19.760  0.00  0.00    +0.000 C 
ATOM     27  C   UNL     1       9.326  17.754  20.804  0.00  0.00    +0.000 C 
ATOM     28  C   UNL     1       9.132  17.200  18.322  0.00  0.00    +0.000 C 
ATOM     29  C   UNL     1       9.281  15.892  17.557  0.00  0.00    +0.000 C 
ATOM     30  N   UNL     1       9.839  14.952  18.514  0.00  0.00    +0.000 N 
ATOM     31  C   UNL     1      10.424  13.780  18.076  0.00  0.00    +0.000 C 
ATOM     32  O   UNL     1      10.435  13.528  16.865  0.00  0.00    +0.000 OA
ATOM     33  C   UNL     1       9.643  15.453  19.864  0.00  0.00    +0.000 C 
BRANCH  31  34
ATOM     34  C   UNL     1      11.079  12.781  19.076  0.00  0.00    +0.000 C 
ATOM     35  C   UNL     1      11.579  11.505  18.386  0.00  0.00    +0.000 C 
ATOM     36  C   UNL     1      12.332  13.453  19.694  0.00  0.00    +0.000 C 
ATOM     37  C   UNL     1      10.148  12.455  20.253  0.00  0.00    +0.000 C 
ENDBRANCH  31  34
ENDBRANCH  14  26
TORSDOF 3
ENDMDL
