MODEL 1
REMARK VINA RESULT:      -8.3      0.000      0.000
REMARK  Name = 
REMARK  10 active torsions:
REMARK  status: ('A' for Active; 'I' for Inactive)
REMARK    1  A    between atoms: C_2  and  C_3
REMARK    2  A    between atoms: C_3  and  O_4
REMARK    3  A    between atoms: O_4  and  C_5
REMARK    4  A    between atoms: C_5  and  C_6
REMARK    5  A    between atoms: C_5  and  C_7
REMARK    6  A    between atoms: C_9  and  C_10
REMARK    7  A    between atoms: C_9  and  C_11
REMARK    8  A    between atoms: C_16  and  C_17
REMARK    9  A    between atoms: C_23  and  O_24
REMARK   10  A    between atoms: O_24  and  C_25
REMARK                            x       y       z     vdW  Elec       q    Type
REMARK                         _______ _______ _______ _____ _____    ______ ____
ROOT
ATOM      1  C   UNL     1       0.858   9.952  20.786  0.00  0.00    +0.000 C 
ATOM      2  C   UNL     1       0.595  11.190  20.310  0.00  0.00    +0.000 C 
ATOM      3  C   UNL     1       0.852  11.639  18.892  0.00  0.00    +0.000 C 
ATOM      4  C   UNL     1       1.826  12.823  18.946  0.00  0.00    +0.000 C 
ATOM      5  C   UNL     1      -0.489  12.074  18.278  0.00  0.00    +0.000 C 
ATOM      6  N   UNL     1       1.429  10.591  18.065  0.00  0.00    +0.000 N 
ATOM      7  C   UNL     1       1.714   9.282  18.537  0.00  0.00    +0.000 A 
ATOM      8  C   UNL     1       2.271   8.342  17.666  0.00  0.00    +0.000 A 
ATOM      9  C   UNL     1       2.554   7.049  18.100  0.00  0.00    +0.000 A 
ATOM     10  C   UNL     1       2.282   6.649  19.425  0.00  0.00    +0.000 A 
ATOM     11  C   UNL     1       1.734   7.616  20.298  0.00  0.00    +0.000 A 
ATOM     12  C   UNL     1       1.442   8.927  19.868  0.00  0.00    +0.000 A 
ATOM     13  H   UNL     1       1.637  10.816  17.078  0.00  0.00    +0.000 HD
ENDROOT
BRANCH  10  14
ATOM     14  C   UNL     1       2.570   5.232  19.871  0.00  0.00    +0.000 A 
ATOM     15  C   UNL     1       1.637   4.563  20.696  0.00  0.00    +0.000 A 
ATOM     16  C   UNL     1       1.862   3.260  21.144  0.00  0.00    +0.000 A 
ATOM     17  F   UNL     1       0.943   2.644  21.926  0.00  0.00    +0.000 F 
ATOM     18  C   UNL     1       3.026   2.593  20.788  0.00  0.00    +0.000 A 
ATOM     19  C   UNL     1       3.974   3.220  19.983  0.00  0.00    +0.000 A 
ATOM     20  C   UNL     1       3.770   4.538  19.512  0.00  0.00    +0.000 A 
BRANCH  20  21
ATOM     21  O   UNL     1       4.716   5.154  18.761  0.00  0.00    +0.000 OA
ATOM     22  C   UNL     1       6.036   5.370  19.100  0.00  0.00    +0.000 C 
ENDBRANCH  20  21
ENDBRANCH  10  14
BRANCH   1  23
ATOM     23  C   UNL     1       0.512   9.637  22.242  0.00  0.00    +0.000 C 
ATOM     24  C   UNL     1      -0.598   8.568  22.223  0.00  0.00    +0.000 C 
BRANCH  23  25
ATOM     25  O   UNL     1       0.093  10.837  22.880  0.00  0.00    +0.000 OA
BRANCH  25  26
ATOM     26  C   UNL     1      -1.266  10.837  23.237  0.00  0.00    +0.000 C 
BRANCH  26  28
ATOM     27  C   UNL     1      -2.541  12.498  21.892  0.00  0.00    +0.000 C 
ATOM     28  C   UNL     1      -1.798  12.212  22.962  0.00  0.00    +0.000 C 
ENDBRANCH  26  28
ENDBRANCH  25  26
ENDBRANCH  23  25
ENDBRANCH   1  23
TORSDOF 6
ENDMDL
MODEL 2
REMARK VINA RESULT:      -7.7      2.488      7.066
REMARK  Name = 
REMARK  10 active torsions:
REMARK  status: ('A' for Active; 'I' for Inactive)
REMARK    1  A    between atoms: C_2  and  C_3
REMARK    2  A    between atoms: C_3  and  O_4
REMARK    3  A    between atoms: O_4  and  C_5
REMARK    4  A    between atoms: C_5  and  C_6
REMARK    5  A    between atoms: C_5  and  C_7
REMARK    6  A    between atoms: C_9  and  C_10
REMARK    7  A    between atoms: C_9  and  C_11
REMARK    8  A    between atoms: C_16  and  C_17
REMARK    9  A    between atoms: C_23  and  O_24
REMARK   10  A    between atoms: O_24  and  C_25
REMARK                            x       y       z     vdW  Elec       q    Type
REMARK                         _______ _______ _______ _____ _____    ______ ____
ROOT
ATOM      1  C   UNL     1       3.589   4.776  19.584  0.00  0.00    +0.000 C 
ATOM      2  C   UNL     1       4.414   4.109  18.747  0.00  0.00    +0.000 C 
ATOM      3  C   UNL     1       4.903   4.636  17.419  0.00  0.00    +0.000 C 
ATOM      4  C   UNL     1       4.442   3.660  16.330  0.00  0.00    +0.000 C 
ATOM      5  C   UNL     1       6.439   4.701  17.468  0.00  0.00    +0.000 C 
ATOM      6  N   UNL     1       4.386   5.962  17.115  0.00  0.00    +0.000 N 
ATOM      7  C   UNL     1       3.520   6.687  17.976  0.00  0.00    +0.000 A 
ATOM      8  C   UNL     1       3.074   7.955  17.596  0.00  0.00    +0.000 A 
ATOM      9  C   UNL     1       2.230   8.691  18.423  0.00  0.00    +0.000 A 
ATOM     10  C   UNL     1       1.807   8.183  19.670  0.00  0.00    +0.000 A 
ATOM     11  C   UNL     1       2.254   6.892  20.033  0.00  0.00    +0.000 A 
ATOM     12  C   UNL     1       3.110   6.140  19.202  0.00  0.00    +0.000 A 
ATOM     13  H   UNL     1       4.673   6.396  16.222  0.00  0.00    +0.000 HD
ENDROOT
BRANCH  10  14
ATOM     14  C   UNL     1       0.912   9.009  20.568  0.00  0.00    +0.000 A 
ATOM     15  C   UNL     1       0.981   8.828  21.969  0.00  0.00    +0.000 A 
ATOM     16  C   UNL     1       0.170   9.556  22.840  0.00  0.00    +0.000 A 
ATOM     17  F   UNL     1       0.268   9.366  24.178  0.00  0.00    +0.000 F 
ATOM     18  C   UNL     1      -0.739  10.478  22.337  0.00  0.00    +0.000 A 
ATOM     19  C   UNL     1      -0.844  10.680  20.964  0.00  0.00    +0.000 A 
ATOM     20  C   UNL     1      -0.030   9.958  20.059  0.00  0.00    +0.000 A 
BRANCH  20  21
ATOM     21  O   UNL     1      -0.167  10.134  18.722  0.00  0.00    +0.000 OA
ATOM     22  C   UNL     1      -1.274  10.621  18.055  0.00  0.00    +0.000 C 
ENDBRANCH  20  21
ENDBRANCH  10  14
BRANCH   1  23
ATOM     23  C   UNL     1       3.206   4.122  20.913  0.00  0.00    +0.000 C 
ATOM     24  C   UNL     1       3.729   2.673  20.873  0.00  0.00    +0.000 C 
BRANCH  23  25
ATOM     25  O   UNL     1       1.792   4.180  21.057  0.00  0.00    +0.000 OA
BRANCH  25  26
ATOM     26  C   UNL     1       1.159   2.938  20.879  0.00  0.00    +0.000 C 
BRANCH  26  28
ATOM     27  C   UNL     1       0.989   2.293  18.481  0.00  0.00    +0.000 C 
ATOM     28  C   UNL     1       0.506   2.962  19.529  0.00  0.00    +0.000 C 
ENDBRANCH  26  28
ENDBRANCH  25  26
ENDBRANCH  23  25
ENDBRANCH   1  23
TORSDOF 6
ENDMDL
MODEL 3
REMARK VINA RESULT:      -7.7      2.870      7.316
REMARK  Name = 
REMARK  10 active torsions:
REMARK  status: ('A' for Active; 'I' for Inactive)
REMARK    1  A    between atoms: C_2  and  C_3
REMARK    2  A    between atoms: C_3  and  O_4
REMARK    3  A    between atoms: O_4  and  C_5
REMARK    4  A    between atoms: C_5  and  C_6
REMARK    5  A    between atoms: C_5  and  C_7
REMARK    6  A    between atoms: C_9  and  C_10
REMARK    7  A    between atoms: C_9  and  C_11
REMARK    8  A    between atoms: C_16  and  C_17
REMARK    9  A    between atoms: C_23  and  O_24
REMARK   10  A    between atoms: O_24  and  C_25
REMARK                            x       y       z     vdW  Elec       q    Type
REMARK                         _______ _______ _______ _____ _____    ______ ____
ROOT
ATOM      1  C   UNL     1       2.707   5.573  19.638  0.00  0.00    +0.000 C 
ATOM      2  C   UNL     1       3.688   4.784  19.146  0.00  0.00    +0.000 C 
ATOM      3  C   UNL     1       4.626   5.172  18.028  0.00  0.00    +0.000 C 
ATOM      4  C   UNL     1       4.444   4.159  16.892  0.00  0.00    +0.000 C 
ATOM      5  C   UNL     1       6.063   5.119  18.572  0.00  0.00    +0.000 C 
ATOM      6  N   UNL     1       4.367   6.508  17.515  0.00  0.00    +0.000 N 
ATOM      7  C   UNL     1       3.346   7.361  18.014  0.00  0.00    +0.000 A 
ATOM      8  C   UNL     1       3.174   8.629  17.454  0.00  0.00    +0.000 A 
ATOM      9  C   UNL     1       2.186   9.488  17.929  0.00  0.00    +0.000 A 
ATOM     10  C   UNL     1       1.338   9.108  18.990  0.00  0.00    +0.000 A 
ATOM     11  C   UNL     1       1.514   7.816  19.535  0.00  0.00    +0.000 A 
ATOM     12  C   UNL     1       2.513   6.939  19.063  0.00  0.00    +0.000 A 
ATOM     13  H   UNL     1       4.966   6.852  16.746  0.00  0.00    +0.000 HD
ENDROOT
BRANCH  10  14
ATOM     14  C   UNL     1       0.288  10.065  19.511  0.00  0.00    +0.000 A 
ATOM     15  C   UNL     1       0.422  10.598  20.814  0.00  0.00    +0.000 A 
ATOM     16  C   UNL     1      -0.524  11.476  21.345  0.00  0.00    +0.000 A 
ATOM     17  F   UNL     1      -0.361  11.975  22.594  0.00  0.00    +0.000 F 
ATOM     18  C   UNL     1      -1.634  11.839  20.595  0.00  0.00    +0.000 A 
ATOM     19  C   UNL     1      -1.808  11.331  19.310  0.00  0.00    +0.000 A 
ATOM     20  C   UNL     1      -0.861  10.443  18.746  0.00  0.00    +0.000 A 
BRANCH  20  21
ATOM     21  O   UNL     1      -1.059   9.924  17.510  0.00  0.00    +0.000 OA
ATOM     22  C   UNL     1      -2.212   9.992  16.753  0.00  0.00    +0.000 C 
ENDBRANCH  20  21
ENDBRANCH  10  14
BRANCH   1  23
ATOM     23  C   UNL     1       1.856   5.051  20.797  0.00  0.00    +0.000 C 
ATOM     24  C   UNL     1       2.729   4.059  21.590  0.00  0.00    +0.000 C 
BRANCH  23  25
ATOM     25  O   UNL     1       0.691   4.435  20.263  0.00  0.00    +0.000 OA
BRANCH  25  26
ATOM     26  C   UNL     1       0.723   3.031  20.318  0.00  0.00    +0.000 C 
BRANCH  26  28
ATOM     27  C   UNL     1       1.792   1.993  18.324  0.00  0.00    +0.000 C 
ATOM     28  C   UNL     1       0.717   2.530  18.905  0.00  0.00    +0.000 C 
ENDBRANCH  26  28
ENDBRANCH  25  26
ENDBRANCH  23  25
ENDBRANCH   1  23
TORSDOF 6
ENDMDL
MODEL 4
REMARK VINA RESULT:      -7.6      2.919      8.090
REMARK  Name = 
REMARK  10 active torsions:
REMARK  status: ('A' for Active; 'I' for Inactive)
REMARK    1  A    between atoms: C_2  and  C_3
REMARK    2  A    between atoms: C_3  and  O_4
REMARK    3  A    between atoms: O_4  and  C_5
REMARK    4  A    between atoms: C_5  and  C_6
REMARK    5  A    between atoms: C_5  and  C_7
REMARK    6  A    between atoms: C_9  and  C_10
REMARK    7  A    between atoms: C_9  and  C_11
REMARK    8  A    between atoms: C_16  and  C_17
REMARK    9  A    between atoms: C_23  and  O_24
REMARK   10  A    between atoms: O_24  and  C_25
REMARK                            x       y       z     vdW  Elec       q    Type
REMARK                         _______ _______ _______ _____ _____    ______ ____
ROOT
ATOM      1  C   UNL     1       4.022   5.226  17.894  0.00  0.00    +0.000 C 
ATOM      2  C   UNL     1       4.299   3.905  17.975  0.00  0.00    +0.000 C 
ATOM      3  C   UNL     1       3.696   2.960  18.986  0.00  0.00    +0.000 C 
ATOM      4  C   UNL     1       4.844   2.357  19.804  0.00  0.00    +0.000 C 
ATOM      5  C   UNL     1       2.943   1.859  18.221  0.00  0.00    +0.000 C 
ATOM      6  N   UNL     1       2.768   3.621  19.892  0.00  0.00    +0.000 N 
ATOM      7  C   UNL     1       2.457   5.006  19.828  0.00  0.00    +0.000 A 
ATOM      8  C   UNL     1       1.552   5.550  20.743  0.00  0.00    +0.000 A 
ATOM      9  C   UNL     1       1.223   6.903  20.700  0.00  0.00    +0.000 A 
ATOM     10  C   UNL     1       1.784   7.758  19.729  0.00  0.00    +0.000 A 
ATOM     11  C   UNL     1       2.709   7.195  18.821  0.00  0.00    +0.000 A 
ATOM     12  C   UNL     1       3.048   5.827  18.855  0.00  0.00    +0.000 A 
ATOM     13  H   UNL     1       2.310   3.044  20.616  0.00  0.00    +0.000 HD
ENDROOT
BRANCH  10  14
ATOM     14  C   UNL     1       1.393   9.220  19.679  0.00  0.00    +0.000 A 
ATOM     15  C   UNL     1       1.921  10.043  18.658  0.00  0.00    +0.000 A 
ATOM     16  C   UNL     1       1.600  11.399  18.575  0.00  0.00    +0.000 A 
ATOM     17  F   UNL     1       2.116  12.158  17.578  0.00  0.00    +0.000 F 
ATOM     18  C   UNL     1       0.752  11.972  19.513  0.00  0.00    +0.000 A 
ATOM     19  C   UNL     1       0.218  11.198  20.540  0.00  0.00    +0.000 A 
ATOM     20  C   UNL     1       0.523   9.820  20.644  0.00  0.00    +0.000 A 
BRANCH  20  21
ATOM     21  O   UNL     1       0.028   9.083  21.669  0.00  0.00    +0.000 OA
ATOM     22  C   UNL     1      -0.189   9.502  22.967  0.00  0.00    +0.000 C 
ENDBRANCH  20  21
ENDBRANCH  10  14
BRANCH   1  23
ATOM     23  C   UNL     1       4.690   6.049  16.791  0.00  0.00    +0.000 C 
ATOM     24  C   UNL     1       5.286   5.053  15.779  0.00  0.00    +0.000 C 
BRANCH  23  25
ATOM     25  O   UNL     1       5.684   6.877  17.381  0.00  0.00    +0.000 OA
BRANCH  25  26
ATOM     26  C   UNL     1       6.997   6.441  17.132  0.00  0.00    +0.000 C 
BRANCH  26  28
ATOM     27  C   UNL     1       7.649   5.619  19.389  0.00  0.00    +0.000 C 
ATOM     28  C   UNL     1       7.751   6.536  18.425  0.00  0.00    +0.000 C 
ENDBRANCH  26  28
ENDBRANCH  25  26
ENDBRANCH  23  25
ENDBRANCH   1  23
TORSDOF 6
ENDMDL
MODEL 5
REMARK VINA RESULT:      -7.6      2.801      7.286
REMARK  Name = 
REMARK  10 active torsions:
REMARK  status: ('A' for Active; 'I' for Inactive)
REMARK    1  A    between atoms: C_2  and  C_3
REMARK    2  A    between atoms: C_3  and  O_4
REMARK    3  A    between atoms: O_4  and  C_5
REMARK    4  A    between atoms: C_5  and  C_6
REMARK    5  A    between atoms: C_5  and  C_7
REMARK    6  A    between atoms: C_9  and  C_10
REMARK    7  A    between atoms: C_9  and  C_11
REMARK    8  A    between atoms: C_16  and  C_17
REMARK    9  A    between atoms: C_23  and  O_24
REMARK   10  A    between atoms: O_24  and  C_25
REMARK                            x       y       z     vdW  Elec       q    Type
REMARK                         _______ _______ _______ _____ _____    ______ ____
ROOT
ATOM      1  C   UNL     1       2.764   5.506  19.658  0.00  0.00    +0.000 C 
ATOM      2  C   UNL     1       3.795   4.729  19.255  0.00  0.00    +0.000 C 
ATOM      3  C   UNL     1       4.800   5.113  18.197  0.00  0.00    +0.000 C 
ATOM      4  C   UNL     1       4.721   4.068  17.077  0.00  0.00    +0.000 C 
ATOM      5  C   UNL     1       6.196   5.107  18.841  0.00  0.00    +0.000 C 
ATOM      6  N   UNL     1       4.549   6.430  17.632  0.00  0.00    +0.000 N 
ATOM      7  C   UNL     1       3.476   7.269  18.037  0.00  0.00    +0.000 A 
ATOM      8  C   UNL     1       3.316   8.519  17.434  0.00  0.00    +0.000 A 
ATOM      9  C   UNL     1       2.278   9.366  17.816  0.00  0.00    +0.000 A 
ATOM     10  C   UNL     1       1.366   8.991  18.825  0.00  0.00    +0.000 A 
ATOM     11  C   UNL     1       1.533   7.717  19.413  0.00  0.00    +0.000 A 
ATOM     12  C   UNL     1       2.581   6.853  19.035  0.00  0.00    +0.000 A 
ATOM     13  H   UNL     1       5.193   6.769  16.899  0.00  0.00    +0.000 HD
ENDROOT
BRANCH  10  14
ATOM     14  C   UNL     1       0.261   9.935  19.246  0.00  0.00    +0.000 A 
ATOM     15  C   UNL     1      -0.650  10.411  18.276  0.00  0.00    +0.000 A 
ATOM     16  C   UNL     1      -1.680  11.292  18.611  0.00  0.00    +0.000 A 
ATOM     17  F   UNL     1      -2.542  11.722  17.659  0.00  0.00    +0.000 F 
ATOM     18  C   UNL     1      -1.823  11.728  19.922  0.00  0.00    +0.000 A 
ATOM     19  C   UNL     1      -0.942  11.289  20.906  0.00  0.00    +0.000 A 
ATOM     20  C   UNL     1       0.108  10.392  20.594  0.00  0.00    +0.000 A 
BRANCH  20  21
ATOM     21  O   UNL     1       0.984  10.001  21.552  0.00  0.00    +0.000 OA
ATOM     22  C   UNL     1       0.683   9.409  22.763  0.00  0.00    +0.000 C 
ENDBRANCH  20  21
ENDBRANCH  10  14
BRANCH   1  23
ATOM     23  C   UNL     1       1.846   4.992  20.767  0.00  0.00    +0.000 C 
ATOM     24  C   UNL     1       2.671   4.010  21.621  0.00  0.00    +0.000 C 
BRANCH  23  25
ATOM     25  O   UNL     1       0.717   4.367  20.169  0.00  0.00    +0.000 OA
BRANCH  25  26
ATOM     26  C   UNL     1       0.721   2.967  20.291  0.00  0.00    +0.000 C 
BRANCH  26  28
ATOM     27  C   UNL     1       1.812   2.160  18.205  0.00  0.00    +0.000 C 
ATOM     28  C   UNL     1       0.701   2.399  18.903  0.00  0.00    +0.000 C 
ENDBRANCH  26  28
ENDBRANCH  25  26
ENDBRANCH  23  25
ENDBRANCH   1  23
TORSDOF 6
ENDMDL
MODEL 6
REMARK VINA RESULT:      -7.4      2.754      4.726
REMARK  Name = 
REMARK  10 active torsions:
REMARK  status: ('A' for Active; 'I' for Inactive)
REMARK    1  A    between atoms: C_2  and  C_3
REMARK    2  A    between atoms: C_3  and  O_4
REMARK    3  A    between atoms: O_4  and  C_5
REMARK    4  A    between atoms: C_5  and  C_6
REMARK    5  A    between atoms: C_5  and  C_7
REMARK    6  A    between atoms: C_9  and  C_10
REMARK    7  A    between atoms: C_9  and  C_11
REMARK    8  A    between atoms: C_16  and  C_17
REMARK    9  A    between atoms: C_23  and  O_24
REMARK   10  A    between atoms: O_24  and  C_25
REMARK                            x       y       z     vdW  Elec       q    Type
REMARK                         _______ _______ _______ _____ _____    ______ ____
ROOT
ATOM      1  C   UNL     1      -0.829  11.245  19.897  0.00  0.00    +0.000 C 
ATOM      2  C   UNL     1      -1.426  12.126  20.731  0.00  0.00    +0.000 C 
ATOM      3  C   UNL     1      -1.272  12.131  22.233  0.00  0.00    +0.000 C 
ATOM      4  C   UNL     1      -2.666  11.947  22.846  0.00  0.00    +0.000 C 
ATOM      5  C   UNL     1      -0.676  13.486  22.647  0.00  0.00    +0.000 C 
ATOM      6  N   UNL     1      -0.402  11.068  22.713  0.00  0.00    +0.000 N 
ATOM      7  C   UNL     1       0.240  10.130  21.860  0.00  0.00    +0.000 A 
ATOM      8  C   UNL     1       1.058   9.143  22.416  0.00  0.00    +0.000 A 
ATOM      9  C   UNL     1       1.706   8.215  21.604  0.00  0.00    +0.000 A 
ATOM     10  C   UNL     1       1.562   8.249  20.201  0.00  0.00    +0.000 A 
ATOM     11  C   UNL     1       0.719   9.243  19.656  0.00  0.00    +0.000 A 
ATOM     12  C   UNL     1       0.060  10.189  20.469  0.00  0.00    +0.000 A 
ATOM     13  H   UNL     1      -0.243  11.000  23.731  0.00  0.00    +0.000 HD
ENDROOT
BRANCH  10  14
ATOM     14  C   UNL     1       2.296   7.250  19.332  0.00  0.00    +0.000 A 
ATOM     15  C   UNL     1       3.040   7.712  18.223  0.00  0.00    +0.000 A 
ATOM     16  C   UNL     1       3.725   6.831  17.385  0.00  0.00    +0.000 A 
ATOM     17  F   UNL     1       4.436   7.308  16.335  0.00  0.00    +0.000 F 
ATOM     18  C   UNL     1       3.679   5.464  17.626  0.00  0.00    +0.000 A 
ATOM     19  C   UNL     1       2.950   4.967  18.703  0.00  0.00    +0.000 A 
ATOM     20  C   UNL     1       2.251   5.839  19.571  0.00  0.00    +0.000 A 
BRANCH  20  21
ATOM     21  O   UNL     1       1.514   5.343  20.595  0.00  0.00    +0.000 OA
ATOM     22  C   UNL     1       1.379   4.017  20.957  0.00  0.00    +0.000 C 
ENDBRANCH  20  21
ENDBRANCH  10  14
BRANCH   1  23
ATOM     23  C   UNL     1      -1.058  11.389  18.392  0.00  0.00    +0.000 C 
ATOM     24  C   UNL     1      -0.815  12.868  18.035  0.00  0.00    +0.000 C 
BRANCH  23  25
ATOM     25  O   UNL     1      -2.384  10.972  18.091  0.00  0.00    +0.000 OA
BRANCH  25  26
ATOM     26  C   UNL     1      -2.802  11.325  16.797  0.00  0.00    +0.000 C 
BRANCH  26  28
ATOM     27  C   UNL     1      -3.035  10.079  14.655  0.00  0.00    +0.000 C 
ATOM     28  C   UNL     1      -2.728  10.087  15.953  0.00  0.00    +0.000 C 
ENDBRANCH  26  28
ENDBRANCH  25  26
ENDBRANCH  23  25
ENDBRANCH   1  23
TORSDOF 6
ENDMDL
MODEL 7
REMARK VINA RESULT:      -7.3      2.648      7.107
REMARK  Name = 
REMARK  10 active torsions:
REMARK  status: ('A' for Active; 'I' for Inactive)
REMARK    1  A    between atoms: C_2  and  C_3
REMARK    2  A    between atoms: C_3  and  O_4
REMARK    3  A    between atoms: O_4  and  C_5
REMARK    4  A    between atoms: C_5  and  C_6
REMARK    5  A    between atoms: C_5  and  C_7
REMARK    6  A    between atoms: C_9  and  C_10
REMARK    7  A    between atoms: C_9  and  C_11
REMARK    8  A    between atoms: C_16  and  C_17
REMARK    9  A    between atoms: C_23  and  O_24
REMARK   10  A    between atoms: O_24  and  C_25
REMARK                            x       y       z     vdW  Elec       q    Type
REMARK                         _______ _______ _______ _____ _____    ______ ____
ROOT
ATOM      1  C   UNL     1       3.876   4.583  18.307  0.00  0.00    +0.000 C 
ATOM      2  C   UNL     1       4.791   4.047  17.468  0.00  0.00    +0.000 C 
ATOM      3  C   UNL     1       5.516   4.807  16.384  0.00  0.00    +0.000 C 
ATOM      4  C   UNL     1       5.186   4.137  15.044  0.00  0.00    +0.000 C 
ATOM      5  C   UNL     1       7.024   4.725  16.671  0.00  0.00    +0.000 C 
ATOM      6  N   UNL     1       5.125   6.207  16.320  0.00  0.00    +0.000 N 
ATOM      7  C   UNL     1       4.169   6.798  17.190  0.00  0.00    +0.000 A 
ATOM      8  C   UNL     1       3.858   8.154  17.050  0.00  0.00    +0.000 A 
ATOM      9  C   UNL     1       2.931   8.762  17.892  0.00  0.00    +0.000 A 
ATOM     10  C   UNL     1       2.285   8.032  18.913  0.00  0.00    +0.000 A 
ATOM     11  C   UNL     1       2.599   6.659  19.030  0.00  0.00    +0.000 A 
ATOM     12  C   UNL     1       3.538   6.034  18.183  0.00  0.00    +0.000 A 
ATOM     13  H   UNL     1       5.575   6.799  15.604  0.00  0.00    +0.000 HD
ENDROOT
BRANCH  10  14
ATOM     14  C   UNL     1       1.301   8.716  19.836  0.00  0.00    +0.000 A 
ATOM     15  C   UNL     1       1.424   8.538  21.233  0.00  0.00    +0.000 A 
ATOM     16  C   UNL     1       0.535   9.138  22.127  0.00  0.00    +0.000 A 
ATOM     17  F   UNL     1       0.688   8.955  23.461  0.00  0.00    +0.000 F 
ATOM     18  C   UNL     1      -0.505   9.924  21.651  0.00  0.00    +0.000 A 
ATOM     19  C   UNL     1      -0.667  10.117  20.282  0.00  0.00    +0.000 A 
ATOM     20  C   UNL     1       0.222   9.524  19.354  0.00  0.00    +0.000 A 
BRANCH  20  21
ATOM     21  O   UNL     1       0.034   9.688  18.022  0.00  0.00    +0.000 OA
ATOM     22  C   UNL     1      -1.158   9.946  17.375  0.00  0.00    +0.000 C 
ENDBRANCH  20  21
ENDBRANCH  10  14
BRANCH   1  23
ATOM     23  C   UNL     1       3.249   3.690  19.378  0.00  0.00    +0.000 C 
ATOM     24  C   UNL     1       4.332   2.689  19.826  0.00  0.00    +0.000 C 
BRANCH  23  25
ATOM     25  O   UNL     1       2.113   3.042  18.822  0.00  0.00    +0.000 OA
BRANCH  25  26
ATOM     26  C   UNL     1       0.935   3.240  19.563  0.00  0.00    +0.000 C 
BRANCH  26  28
ATOM     27  C   UNL     1       1.280   2.623  21.949  0.00  0.00    +0.000 C 
ATOM     28  C   UNL     1       1.343   3.533  20.976  0.00  0.00    +0.000 C 
ENDBRANCH  26  28
ENDBRANCH  25  26
ENDBRANCH  23  25
ENDBRANCH   1  23
TORSDOF 6
ENDMDL
MODEL 8
REMARK VINA RESULT:      -7.2      2.872      7.732
REMARK  Name = 
REMARK  10 active torsions:
REMARK  status: ('A' for Active; 'I' for Inactive)
REMARK    1  A    between atoms: C_2  and  C_3
REMARK    2  A    between atoms: C_3  and  O_4
REMARK    3  A    between atoms: O_4  and  C_5
REMARK    4  A    between atoms: C_5  and  C_6
REMARK    5  A    between atoms: C_5  and  C_7
REMARK    6  A    between atoms: C_9  and  C_10
REMARK    7  A    between atoms: C_9  and  C_11
REMARK    8  A    between atoms: C_16  and  C_17
REMARK    9  A    between atoms: C_23  and  O_24
REMARK   10  A    between atoms: O_24  and  C_25
REMARK                            x       y       z     vdW  Elec       q    Type
REMARK                         _______ _______ _______ _____ _____    ______ ____
ROOT
ATOM      1  C   UNL     1       4.385   5.058  18.720  0.00  0.00    +0.000 C 
ATOM      2  C   UNL     1       4.731   3.770  18.501  0.00  0.00    +0.000 C 
ATOM      3  C   UNL     1       3.950   2.573  18.989  0.00  0.00    +0.000 C 
ATOM      4  C   UNL     1       4.873   1.751  19.896  0.00  0.00    +0.000 C 
ATOM      5  C   UNL     1       3.525   1.749  17.763  0.00  0.00    +0.000 C 
ATOM      6  N   UNL     1       2.760   2.945  19.740  0.00  0.00    +0.000 N 
ATOM      7  C   UNL     1       2.371   4.290  19.983  0.00  0.00    +0.000 A 
ATOM      8  C   UNL     1       1.210   4.548  20.717  0.00  0.00    +0.000 A 
ATOM      9  C   UNL     1       0.800   5.855  20.965  0.00  0.00    +0.000 A 
ATOM     10  C   UNL     1       1.538   6.955  20.477  0.00  0.00    +0.000 A 
ATOM     11  C   UNL     1       2.718   6.677  19.750  0.00  0.00    +0.000 A 
ATOM     12  C   UNL     1       3.140   5.357  19.493  0.00  0.00    +0.000 A 
ATOM     13  H   UNL     1       2.168   2.184  20.110  0.00  0.00    +0.000 HD
ENDROOT
BRANCH  10  14
ATOM     14  C   UNL     1       1.062   8.369  20.732  0.00  0.00    +0.000 A 
ATOM     15  C   UNL     1       0.572   8.713  22.013  0.00  0.00    +0.000 A 
ATOM     16  C   UNL     1       0.111  10.000  22.296  0.00  0.00    +0.000 A 
ATOM     17  F   UNL     1      -0.343  10.300  23.536  0.00  0.00    +0.000 F 
ATOM     18  C   UNL     1       0.119  10.975  21.308  0.00  0.00    +0.000 A 
ATOM     19  C   UNL     1       0.586  10.675  20.031  0.00  0.00    +0.000 A 
ATOM     20  C   UNL     1       1.063   9.379  19.718  0.00  0.00    +0.000 A 
BRANCH  20  21
ATOM     21  O   UNL     1       1.481   9.086  18.462  0.00  0.00    +0.000 OA
ATOM     22  C   UNL     1       2.279   9.864  17.648  0.00  0.00    +0.000 C 
ENDBRANCH  20  21
ENDBRANCH  10  14
BRANCH   1  23
ATOM     23  C   UNL     1       5.263   6.164  18.134  0.00  0.00    +0.000 C 
ATOM     24  C   UNL     1       4.595   6.628  16.825  0.00  0.00    +0.000 C 
BRANCH  23  25
ATOM     25  O   UNL     1       6.567   5.642  17.916  0.00  0.00    +0.000 OA
BRANCH  25  26
ATOM     26  C   UNL     1       7.409   6.514  17.205  0.00  0.00    +0.000 C 
BRANCH  26  28
ATOM     27  C   UNL     1       8.116   8.810  17.858  0.00  0.00    +0.000 C 
ATOM     28  C   UNL     1       7.925   7.529  18.181  0.00  0.00    +0.000 C 
ENDBRANCH  26  28
ENDBRANCH  25  26
ENDBRANCH  23  25
ENDBRANCH   1  23
TORSDOF 6
ENDMDL
MODEL 9
REMARK VINA RESULT:      -7.2      1.714      2.343
REMARK  Name = 
REMARK  10 active torsions:
REMARK  status: ('A' for Active; 'I' for Inactive)
REMARK    1  A    between atoms: C_2  and  C_3
REMARK    2  A    between atoms: C_3  and  O_4
REMARK    3  A    between atoms: O_4  and  C_5
REMARK    4  A    between atoms: C_5  and  C_6
REMARK    5  A    between atoms: C_5  and  C_7
REMARK    6  A    between atoms: C_9  and  C_10
REMARK    7  A    between atoms: C_9  and  C_11
REMARK    8  A    between atoms: C_16  and  C_17
REMARK    9  A    between atoms: C_23  and  O_24
REMARK   10  A    between atoms: O_24  and  C_25
REMARK                            x       y       z     vdW  Elec       q    Type
REMARK                         _______ _______ _______ _____ _____    ______ ____
ROOT
ATOM      1  C   UNL     1       0.713   9.822  20.629  0.00  0.00    +0.000 C 
ATOM      2  C   UNL     1       0.112  10.996  20.330  0.00  0.00    +0.000 C 
ATOM      3  C   UNL     1       0.138  11.655  18.972  0.00  0.00    +0.000 C 
ATOM      4  C   UNL     1       0.786  13.036  19.136  0.00  0.00    +0.000 C 
ATOM      5  C   UNL     1      -1.312  11.796  18.482  0.00  0.00    +0.000 C 
ATOM      6  N   UNL     1       0.894  10.893  17.990  0.00  0.00    +0.000 N 
ATOM      7  C   UNL     1       1.534   9.657  18.275  0.00  0.00    +0.000 A 
ATOM      8  C   UNL     1       2.239   8.998  17.264  0.00  0.00    +0.000 A 
ATOM      9  C   UNL     1       2.869   7.782  17.513  0.00  0.00    +0.000 A 
ATOM     10  C   UNL     1       2.809   7.176  18.786  0.00  0.00    +0.000 A 
ATOM     11  C   UNL     1       2.105   7.863  19.801  0.00  0.00    +0.000 A 
ATOM     12  C   UNL     1       1.462   9.094  19.559  0.00  0.00    +0.000 A 
ATOM     13  H   UNL     1       0.962  11.276  17.033  0.00  0.00    +0.000 HD
ENDROOT
BRANCH  10  14
ATOM     14  C   UNL     1       3.477   5.840  19.030  0.00  0.00    +0.000 A 
ATOM     15  C   UNL     1       4.822   5.657  18.636  0.00  0.00    +0.000 A 
ATOM     16  C   UNL     1       5.480   4.441  18.829  0.00  0.00    +0.000 A 
ATOM     17  F   UNL     1       6.772   4.301  18.448  0.00  0.00    +0.000 F 
ATOM     18  C   UNL     1       4.811   3.373  19.412  0.00  0.00    +0.000 A 
ATOM     19  C   UNL     1       3.483   3.510  19.807  0.00  0.00    +0.000 A 
ATOM     20  C   UNL     1       2.794   4.733  19.627  0.00  0.00    +0.000 A 
BRANCH  20  21
ATOM     21  O   UNL     1       1.490   4.845  19.981  0.00  0.00    +0.000 OA
ATOM     22  C   UNL     1       0.651   3.830  20.397  0.00  0.00    +0.000 C 
ENDBRANCH  20  21
ENDBRANCH  10  14
BRANCH   1  23
ATOM     23  C   UNL     1       0.570   9.264  22.045  0.00  0.00    +0.000 C 
ATOM     24  C   UNL     1      -0.561   8.218  22.009  0.00  0.00    +0.000 C 
BRANCH  23  25
ATOM     25  O   UNL     1       0.282  10.338  22.931  0.00  0.00    +0.000 OA
BRANCH  25  26
ATOM     26  C   UNL     1      -1.057  10.371  23.355  0.00  0.00    +0.000 C 
BRANCH  26  28
ATOM     27  C   UNL     1      -2.842  12.106  23.311  0.00  0.00    +0.000 C 
ATOM     28  C   UNL     1      -1.576  11.752  23.085  0.00  0.00    +0.000 C 
ENDBRANCH  26  28
ENDBRANCH  25  26
ENDBRANCH  23  25
ENDBRANCH   1  23
TORSDOF 6
ENDMDL
