MODEL 1
REMARK VINA RESULT:      -6.7      0.000      0.000
REMARK  Name = 
REMARK  8 active torsions:
REMARK  status: ('A' for Active; 'I' for Inactive)
REMARK    1  A    between atoms: C_1  and  C_2
REMARK    2  A    between atoms: C_2  and  C_4
REMARK    3  A    between atoms: C_4  and  C_5
REMARK    4  A    between atoms: C_5  and  C_6
REMARK    5  A    between atoms: C_9  and  O_10
REMARK    6  A    between atoms: O_10  and  C_11
REMARK    7  A    between atoms: C_11  and  C_12
REMARK    8  A    between atoms: C_12  and  N_13
REMARK                            x       y       z     vdW  Elec       q    Type
REMARK                         _______ _______ _______ _____ _____    ______ ____
ROOT
ATOM      1  C   UNL     1       7.807   7.992  17.974  0.00  0.00    +0.000 A 
ATOM      2  C   UNL     1       6.699   7.545  17.245  0.00  0.00    +0.000 A 
ATOM      3  C   UNL     1       6.148   6.294  17.474  0.00  0.00    +0.000 A 
ATOM      4  C   UNL     1       6.735   5.415  18.380  0.00  0.00    +0.000 A 
ATOM      5  C   UNL     1       7.849   5.834  19.108  0.00  0.00    +0.000 A 
ATOM      6  C   UNL     1       8.384   7.117  18.904  0.00  0.00    +0.000 A 
ENDROOT
BRANCH   1   7
ATOM      7  C   UNL     1       8.370   9.381  17.740  0.00  0.00    +0.000 C 
BRANCH   7   8
ATOM      8  C   UNL     1       9.187   9.865  18.942  0.00  0.00    +0.000 C 
BRANCH   8  10
ATOM      9  C   UNL     1      10.732  11.602  17.911  0.00  0.00    +0.000 C 
ATOM     10  C   UNL     1       9.614  11.308  18.882  0.00  0.00    +0.000 C 
ATOM     11  O   UNL     1       9.106  12.187  19.571  0.00  0.00    +0.000 OA
ENDBRANCH   8  10
ENDBRANCH   7   8
ENDBRANCH   1   7
BRANCH   4  12
ATOM     12  O   UNL     1       6.296   4.130  18.590  0.00  0.00    +0.000 OA
BRANCH  12  13
ATOM     13  C   UNL     1       4.924   3.936  18.218  0.00  0.00    +0.000 C 
BRANCH  13  14
ATOM     14  C   UNL     1       3.997   4.042  19.428  0.00  0.00    +0.000 C 
BRANCH  14  15
ATOM     15  N   UNL     1       3.437   2.729  19.806  0.00  0.00    +0.000 NA
ATOM     16  C   UNL     1       2.627   2.083  18.752  0.00  0.00    +0.000 C 
ATOM     17  C   UNL     1       1.228   2.697  18.554  0.00  0.00    +0.000 C 
ATOM     18  O   UNL     1       0.502   2.782  19.786  0.00  0.00    +0.000 OA
ATOM     19  C   UNL     1       1.248   3.500  20.775  0.00  0.00    +0.000 C 
ATOM     20  C   UNL     1       2.608   2.836  21.026  0.00  0.00    +0.000 C 
ENDBRANCH  14  15
ENDBRANCH  13  14
ENDBRANCH  12  13
ENDBRANCH   4  12
TORSDOF 7
ENDMDL
MODEL 2
REMARK VINA RESULT:      -6.7      1.054      1.829
REMARK  Name = 
REMARK  8 active torsions:
REMARK  status: ('A' for Active; 'I' for Inactive)
REMARK    1  A    between atoms: C_1  and  C_2
REMARK    2  A    between atoms: C_2  and  C_4
REMARK    3  A    between atoms: C_4  and  C_5
REMARK    4  A    between atoms: C_5  and  C_6
REMARK    5  A    between atoms: C_9  and  O_10
REMARK    6  A    between atoms: O_10  and  C_11
REMARK    7  A    between atoms: C_11  and  C_12
REMARK    8  A    between atoms: C_12  and  N_13
REMARK                            x       y       z     vdW  Elec       q    Type
REMARK                         _______ _______ _______ _____ _____    ______ ____
ROOT
ATOM      1  C   UNL     1       7.733   7.864  17.921  0.00  0.00    +0.000 A 
ATOM      2  C   UNL     1       8.267   6.979  18.864  0.00  0.00    +0.000 A 
ATOM      3  C   UNL     1       7.763   5.695  19.008  0.00  0.00    +0.000 A 
ATOM      4  C   UNL     1       6.657   5.280  18.272  0.00  0.00    +0.000 A 
ATOM      5  C   UNL     1       6.099   6.151  17.336  0.00  0.00    +0.000 A 
ATOM      6  C   UNL     1       6.634   7.439  17.162  0.00  0.00    +0.000 A 
ENDROOT
BRANCH   1   7
ATOM      7  C   UNL     1       8.325   9.249  17.748  0.00  0.00    +0.000 C 
BRANCH   7   8
ATOM      8  C   UNL     1       9.015   9.729  19.029  0.00  0.00    +0.000 C 
BRANCH   8  10
ATOM      9  C   UNL     1      10.356  11.513  17.812  0.00  0.00    +0.000 C 
ATOM     10  C   UNL     1       9.494  11.155  18.998  0.00  0.00    +0.000 C 
ATOM     11  O   UNL     1       9.219  11.974  19.871  0.00  0.00    +0.000 OA
ENDBRANCH   8  10
ENDBRANCH   7   8
ENDBRANCH   1   7
BRANCH   4  12
ATOM     12  O   UNL     1       6.051   4.056  18.429  0.00  0.00    +0.000 OA
BRANCH  12  13
ATOM     13  C   UNL     1       4.907   3.882  17.580  0.00  0.00    +0.000 C 
BRANCH  13  14
ATOM     14  C   UNL     1       3.707   3.348  18.362  0.00  0.00    +0.000 C 
BRANCH  14  15
ATOM     15  N   UNL     1       2.495   4.156  18.125  0.00  0.00    +0.000 NA
ATOM     16  C   UNL     1       2.446   5.422  18.887  0.00  0.00    +0.000 C 
ATOM     17  C   UNL     1       2.123   5.255  20.384  0.00  0.00    +0.000 C 
ATOM     18  O   UNL     1       0.937   4.479  20.593  0.00  0.00    +0.000 OA
ATOM     19  C   UNL     1       1.031   3.208  19.938  0.00  0.00    +0.000 C 
ATOM     20  C   UNL     1       1.272   3.384  18.433  0.00  0.00    +0.000 C 
ENDBRANCH  14  15
ENDBRANCH  13  14
ENDBRANCH  12  13
ENDBRANCH   4  12
TORSDOF 7
ENDMDL
MODEL 3
REMARK VINA RESULT:      -6.7      0.718      1.369
REMARK  Name = 
REMARK  8 active torsions:
REMARK  status: ('A' for Active; 'I' for Inactive)
REMARK    1  A    between atoms: C_1  and  C_2
REMARK    2  A    between atoms: C_2  and  C_4
REMARK    3  A    between atoms: C_4  and  C_5
REMARK    4  A    between atoms: C_5  and  C_6
REMARK    5  A    between atoms: C_9  and  O_10
REMARK    6  A    between atoms: O_10  and  C_11
REMARK    7  A    between atoms: C_11  and  C_12
REMARK    8  A    between atoms: C_12  and  N_13
REMARK                            x       y       z     vdW  Elec       q    Type
REMARK                         _______ _______ _______ _____ _____    ______ ____
ROOT
ATOM      1  C   UNL     1       7.783   7.946  17.954  0.00  0.00    +0.000 A 
ATOM      2  C   UNL     1       6.725   7.520  17.143  0.00  0.00    +0.000 A 
ATOM      3  C   UNL     1       6.163   6.262  17.300  0.00  0.00    +0.000 A 
ATOM      4  C   UNL     1       6.693   5.357  18.216  0.00  0.00    +0.000 A 
ATOM      5  C   UNL     1       7.758   5.756  19.025  0.00  0.00    +0.000 A 
ATOM      6  C   UNL     1       8.301   7.044  18.893  0.00  0.00    +0.000 A 
ENDROOT
BRANCH   1   7
ATOM      7  C   UNL     1       8.356   9.341  17.797  0.00  0.00    +0.000 C 
BRANCH   7   8
ATOM      8  C   UNL     1       9.061   9.806  19.075  0.00  0.00    +0.000 C 
BRANCH   8  10
ATOM      9  C   UNL     1      10.437  11.525  17.805  0.00  0.00    +0.000 C 
ATOM     10  C   UNL     1       9.610  11.207  19.027  0.00  0.00    +0.000 C 
ATOM     11  O   UNL     1       9.414  12.035  19.912  0.00  0.00    +0.000 OA
ENDBRANCH   8  10
ENDBRANCH   7   8
ENDBRANCH   1   7
BRANCH   4  12
ATOM     12  O   UNL     1       6.245   4.066  18.359  0.00  0.00    +0.000 OA
BRANCH  12  13
ATOM     13  C   UNL     1       4.834   3.933  18.136  0.00  0.00    +0.000 C 
BRANCH  13  14
ATOM     14  C   UNL     1       4.048   4.055  19.441  0.00  0.00    +0.000 C 
BRANCH  14  15
ATOM     15  N   UNL     1       2.751   4.731  19.239  0.00  0.00    +0.000 NA
ATOM     16  C   UNL     1       1.891   4.777  20.441  0.00  0.00    +0.000 C 
ATOM     17  C   UNL     1       1.214   3.439  20.794  0.00  0.00    +0.000 C 
ATOM     18  O   UNL     1       0.512   2.883  19.676  0.00  0.00    +0.000 OA
ATOM     19  C   UNL     1       1.376   2.744  18.542  0.00  0.00    +0.000 C 
ATOM     20  C   UNL     1       1.984   4.095  18.146  0.00  0.00    +0.000 C 
ENDBRANCH  14  15
ENDBRANCH  13  14
ENDBRANCH  12  13
ENDBRANCH   4  12
TORSDOF 7
ENDMDL
MODEL 4
REMARK VINA RESULT:      -6.5      0.637      1.243
REMARK  Name = 
REMARK  8 active torsions:
REMARK  status: ('A' for Active; 'I' for Inactive)
REMARK    1  A    between atoms: C_1  and  C_2
REMARK    2  A    between atoms: C_2  and  C_4
REMARK    3  A    between atoms: C_4  and  C_5
REMARK    4  A    between atoms: C_5  and  C_6
REMARK    5  A    between atoms: C_9  and  O_10
REMARK    6  A    between atoms: O_10  and  C_11
REMARK    7  A    between atoms: C_11  and  C_12
REMARK    8  A    between atoms: C_12  and  N_13
REMARK                            x       y       z     vdW  Elec       q    Type
REMARK                         _______ _______ _______ _____ _____    ______ ____
ROOT
ATOM      1  C   UNL     1       7.943   8.127  17.981  0.00  0.00    +0.000 A 
ATOM      2  C   UNL     1       8.401   7.286  19.002  0.00  0.00    +0.000 A 
ATOM      3  C   UNL     1       7.979   5.968  19.088  0.00  0.00    +0.000 A 
ATOM      4  C   UNL     1       7.023   5.470  18.206  0.00  0.00    +0.000 A 
ATOM      5  C   UNL     1       6.542   6.295  17.190  0.00  0.00    +0.000 A 
ATOM      6  C   UNL     1       7.000   7.619  17.078  0.00  0.00    +0.000 A 
ENDROOT
BRANCH   1   7
ATOM      7  C   UNL     1       8.449   9.552  17.878  0.00  0.00    +0.000 C 
BRANCH   7   8
ATOM      8  C   UNL     1       9.179   9.984  19.154  0.00  0.00    +0.000 C 
BRANCH   8  10
ATOM      9  C   UNL     1      11.222  11.480  19.377  0.00  0.00    +0.000 C 
ATOM     10  C   UNL     1       9.736  11.382  19.127  0.00  0.00    +0.000 C 
ATOM     11  O   UNL     1       9.045  12.377  18.928  0.00  0.00    +0.000 OA
ENDBRANCH   8  10
ENDBRANCH   7   8
ENDBRANCH   1   7
BRANCH   4  12
ATOM     12  O   UNL     1       6.494   4.205  18.290  0.00  0.00    +0.000 OA
BRANCH  12  13
ATOM     13  C   UNL     1       5.076   4.172  18.075  0.00  0.00    +0.000 C 
BRANCH  13  14
ATOM     14  C   UNL     1       4.311   4.118  19.397  0.00  0.00    +0.000 C 
BRANCH  14  15
ATOM     15  N   UNL     1       3.921   2.738  19.747  0.00  0.00    +0.000 NA
ATOM     16  C   UNL     1       3.501   1.910  18.596  0.00  0.00    +0.000 C 
ATOM     17  C   UNL     1       2.099   2.239  18.050  0.00  0.00    +0.000 C 
ATOM     18  O   UNL     1       1.106   2.231  19.082  0.00  0.00    +0.000 OA
ATOM     19  C   UNL     1       1.467   3.115  20.150  0.00  0.00    +0.000 C 
ATOM     20  C   UNL     1       2.828   2.731  20.744  0.00  0.00    +0.000 C 
ENDBRANCH  14  15
ENDBRANCH  13  14
ENDBRANCH  12  13
ENDBRANCH   4  12
TORSDOF 7
ENDMDL
MODEL 5
REMARK VINA RESULT:      -6.5      1.160      1.772
REMARK  Name = 
REMARK  8 active torsions:
REMARK  status: ('A' for Active; 'I' for Inactive)
REMARK    1  A    between atoms: C_1  and  C_2
REMARK    2  A    between atoms: C_2  and  C_4
REMARK    3  A    between atoms: C_4  and  C_5
REMARK    4  A    between atoms: C_5  and  C_6
REMARK    5  A    between atoms: C_9  and  O_10
REMARK    6  A    between atoms: O_10  and  C_11
REMARK    7  A    between atoms: C_11  and  C_12
REMARK    8  A    between atoms: C_12  and  N_13
REMARK                            x       y       z     vdW  Elec       q    Type
REMARK                         _______ _______ _______ _____ _____    ______ ____
ROOT
ATOM      1  C   UNL     1       7.893   8.059  18.032  0.00  0.00    +0.000 A 
ATOM      2  C   UNL     1       8.412   7.188  18.996  0.00  0.00    +0.000 A 
ATOM      3  C   UNL     1       7.915   5.902  19.141  0.00  0.00    +0.000 A 
ATOM      4  C   UNL     1       6.828   5.471  18.385  0.00  0.00    +0.000 A 
ATOM      5  C   UNL     1       6.284   6.329  17.429  0.00  0.00    +0.000 A 
ATOM      6  C   UNL     1       6.814   7.619  17.254  0.00  0.00    +0.000 A 
ENDROOT
BRANCH   1   7
ATOM      7  C   UNL     1       8.478   9.447  17.859  0.00  0.00    +0.000 C 
BRANCH   7   8
ATOM      8  C   UNL     1       9.240   9.896  19.110  0.00  0.00    +0.000 C 
BRANCH   8  10
ATOM      9  C   UNL     1       9.328  12.147  17.930  0.00  0.00    +0.000 C 
ATOM     10  C   UNL     1       9.888  11.251  19.009  0.00  0.00    +0.000 C 
ATOM     11  O   UNL     1      10.809  11.611  19.737  0.00  0.00    +0.000 OA
ENDBRANCH   8  10
ENDBRANCH   7   8
ENDBRANCH   1   7
BRANCH   4  12
ATOM     12  O   UNL     1       6.228   4.245  18.541  0.00  0.00    +0.000 OA
BRANCH  12  13
ATOM     13  C   UNL     1       4.987   4.313  19.258  0.00  0.00    +0.000 C 
BRANCH  13  14
ATOM     14  C   UNL     1       4.279   2.959  19.279  0.00  0.00    +0.000 C 
BRANCH  14  15
ATOM     15  N   UNL     1       3.639   2.654  17.984  0.00  0.00    +0.000 NA
ATOM     16  C   UNL     1       3.130   3.838  17.260  0.00  0.00    +0.000 C 
ATOM     17  C   UNL     1       1.831   4.431  17.838  0.00  0.00    +0.000 C 
ATOM     18  O   UNL     1       0.810   3.438  17.989  0.00  0.00    +0.000 OA
ATOM     19  C   UNL     1       1.274   2.337  18.779  0.00  0.00    +0.000 C 
ATOM     20  C   UNL     1       2.521   1.700  18.154  0.00  0.00    +0.000 C 
ENDBRANCH  14  15
ENDBRANCH  13  14
ENDBRANCH  12  13
ENDBRANCH   4  12
TORSDOF 7
ENDMDL
MODEL 6
REMARK VINA RESULT:      -6.5      3.661      6.210
REMARK  Name = 
REMARK  8 active torsions:
REMARK  status: ('A' for Active; 'I' for Inactive)
REMARK    1  A    between atoms: C_1  and  C_2
REMARK    2  A    between atoms: C_2  and  C_4
REMARK    3  A    between atoms: C_4  and  C_5
REMARK    4  A    between atoms: C_5  and  C_6
REMARK    5  A    between atoms: C_9  and  O_10
REMARK    6  A    between atoms: O_10  and  C_11
REMARK    7  A    between atoms: C_11  and  C_12
REMARK    8  A    between atoms: C_12  and  N_13
REMARK                            x       y       z     vdW  Elec       q    Type
REMARK                         _______ _______ _______ _____ _____    ______ ____
ROOT
ATOM      1  C   UNL     1       6.167   4.274  14.718  0.00  0.00    +0.000 A 
ATOM      2  C   UNL     1       4.955   4.090  15.394  0.00  0.00    +0.000 A 
ATOM      3  C   UNL     1       4.759   4.605  16.666  0.00  0.00    +0.000 A 
ATOM      4  C   UNL     1       5.794   5.250  17.338  0.00  0.00    +0.000 A 
ATOM      5  C   UNL     1       7.015   5.431  16.688  0.00  0.00    +0.000 A 
ATOM      6  C   UNL     1       7.201   4.944  15.384  0.00  0.00    +0.000 A 
ENDROOT
BRANCH   1   7
ATOM      7  C   UNL     1       6.348   3.741  13.310  0.00  0.00    +0.000 C 
BRANCH   7   8
ATOM      8  C   UNL     1       5.095   3.966  12.458  0.00  0.00    +0.000 C 
BRANCH   8  10
ATOM      9  C   UNL     1       3.510   3.060  10.689  0.00  0.00    +0.000 C 
ATOM     10  C   UNL     1       4.766   2.852  11.501  0.00  0.00    +0.000 C 
ATOM     11  O   UNL     1       5.453   1.841  11.385  0.00  0.00    +0.000 OA
ENDBRANCH   8  10
ENDBRANCH   7   8
ENDBRANCH   1   7
BRANCH   4  12
ATOM     12  O   UNL     1       5.698   5.703  18.631  0.00  0.00    +0.000 OA
BRANCH  12  13
ATOM     13  C   UNL     1       5.021   4.785  19.501  0.00  0.00    +0.000 C 
BRANCH  13  14
ATOM     14  C   UNL     1       3.556   5.174  19.695  0.00  0.00    +0.000 C 
BRANCH  14  15
ATOM     15  N   UNL     1       2.792   4.112  20.378  0.00  0.00    +0.000 NA
ATOM     16  C   UNL     1       3.363   2.756  20.230  0.00  0.00    +0.000 C 
ATOM     17  C   UNL     1       3.142   2.118  18.845  0.00  0.00    +0.000 C 
ATOM     18  O   UNL     1       1.763   2.144  18.457  0.00  0.00    +0.000 OA
ATOM     19  C   UNL     1       1.241   3.477  18.503  0.00  0.00    +0.000 C 
ATOM     20  C   UNL     1       1.391   4.077  19.907  0.00  0.00    +0.000 C 
ENDBRANCH  14  15
ENDBRANCH  13  14
ENDBRANCH  12  13
ENDBRANCH   4  12
TORSDOF 7
ENDMDL
MODEL 7
REMARK VINA RESULT:      -6.5      3.630      4.834
REMARK  Name = 
REMARK  8 active torsions:
REMARK  status: ('A' for Active; 'I' for Inactive)
REMARK    1  A    between atoms: C_1  and  C_2
REMARK    2  A    between atoms: C_2  and  C_4
REMARK    3  A    between atoms: C_4  and  C_5
REMARK    4  A    between atoms: C_5  and  C_6
REMARK    5  A    between atoms: C_9  and  O_10
REMARK    6  A    between atoms: O_10  and  C_11
REMARK    7  A    between atoms: C_11  and  C_12
REMARK    8  A    between atoms: C_12  and  N_13
REMARK                            x       y       z     vdW  Elec       q    Type
REMARK                         _______ _______ _______ _____ _____    ______ ____
ROOT
ATOM      1  C   UNL     1       5.763   6.117  17.680  0.00  0.00    +0.000 A 
ATOM      2  C   UNL     1       5.658   5.499  18.932  0.00  0.00    +0.000 A 
ATOM      3  C   UNL     1       4.472   5.530  19.648  0.00  0.00    +0.000 A 
ATOM      4  C   UNL     1       3.376   6.248  19.177  0.00  0.00    +0.000 A 
ATOM      5  C   UNL     1       3.463   6.884  17.938  0.00  0.00    +0.000 A 
ATOM      6  C   UNL     1       4.653   6.819  17.193  0.00  0.00    +0.000 A 
ENDROOT
BRANCH   1   7
ATOM      7  C   UNL     1       7.056   6.036  16.892  0.00  0.00    +0.000 C 
BRANCH   7   8
ATOM      8  C   UNL     1       7.164   4.713  16.126  0.00  0.00    +0.000 C 
BRANCH   8  10
ATOM      9  C   UNL     1       5.728   4.163  14.101  0.00  0.00    +0.000 C 
ATOM     10  C   UNL     1       6.977   4.823  14.636  0.00  0.00    +0.000 C 
ATOM     11  O   UNL     1       7.775   5.394  13.899  0.00  0.00    +0.000 OA
ENDBRANCH   8  10
ENDBRANCH   7   8
ENDBRANCH   1   7
BRANCH   4  12
ATOM     12  O   UNL     1       2.202   6.396  19.877  0.00  0.00    +0.000 OA
BRANCH  12  13
ATOM     13  C   UNL     1       1.768   5.184  20.510  0.00  0.00    +0.000 C 
BRANCH  13  14
ATOM     14  C   UNL     1       1.127   4.227  19.505  0.00  0.00    +0.000 C 
BRANCH  14  15
ATOM     15  N   UNL     1       1.243   2.821  19.937  0.00  0.00    +0.000 NA
ATOM     16  C   UNL     1       2.469   2.515  20.706  0.00  0.00    +0.000 C 
ATOM     17  C   UNL     1       3.751   2.429  19.856  0.00  0.00    +0.000 C 
ATOM     18  O   UNL     1       3.599   1.535  18.747  0.00  0.00    +0.000 OA
ATOM     19  C   UNL     1       2.468   1.897  17.945  0.00  0.00    +0.000 C 
ATOM     20  C   UNL     1       1.182   1.901  18.780  0.00  0.00    +0.000 C 
ENDBRANCH  14  15
ENDBRANCH  13  14
ENDBRANCH  12  13
ENDBRANCH   4  12
TORSDOF 7
ENDMDL
MODEL 8
REMARK VINA RESULT:      -6.4      1.080      1.742
REMARK  Name = 
REMARK  8 active torsions:
REMARK  status: ('A' for Active; 'I' for Inactive)
REMARK    1  A    between atoms: C_1  and  C_2
REMARK    2  A    between atoms: C_2  and  C_4
REMARK    3  A    between atoms: C_4  and  C_5
REMARK    4  A    between atoms: C_5  and  C_6
REMARK    5  A    between atoms: C_9  and  O_10
REMARK    6  A    between atoms: O_10  and  C_11
REMARK    7  A    between atoms: C_11  and  C_12
REMARK    8  A    between atoms: C_12  and  N_13
REMARK                            x       y       z     vdW  Elec       q    Type
REMARK                         _______ _______ _______ _____ _____    ______ ____
ROOT
ATOM      1  C   UNL     1       7.378   7.574  17.636  0.00  0.00    +0.000 A 
ATOM      2  C   UNL     1       7.876   6.544  18.442  0.00  0.00    +0.000 A 
ATOM      3  C   UNL     1       7.363   5.259  18.361  0.00  0.00    +0.000 A 
ATOM      4  C   UNL     1       6.280   4.977  17.531  0.00  0.00    +0.000 A 
ATOM      5  C   UNL     1       5.758   5.993  16.729  0.00  0.00    +0.000 A 
ATOM      6  C   UNL     1       6.304   7.287  16.783  0.00  0.00    +0.000 A 
ENDROOT
BRANCH   1   7
ATOM      7  C   UNL     1       7.981   8.963  17.708  0.00  0.00    +0.000 C 
BRANCH   7   8
ATOM      8  C   UNL     1       8.885   9.121  18.934  0.00  0.00    +0.000 C 
BRANCH   8  10
ATOM      9  C   UNL     1       9.920  11.249  18.005  0.00  0.00    +0.000 C 
ATOM     10  C   UNL     1       9.355  10.525  19.203  0.00  0.00    +0.000 C 
ATOM     11  O   UNL     1       9.297  11.052  20.311  0.00  0.00    +0.000 OA
ENDBRANCH   8  10
ENDBRANCH   7   8
ENDBRANCH   1   7
BRANCH   4  12
ATOM     12  O   UNL     1       5.665   3.750  17.469  0.00  0.00    +0.000 OA
BRANCH  12  13
ATOM     13  C   UNL     1       4.234   3.836  17.515  0.00  0.00    +0.000 C 
BRANCH  13  14
ATOM     14  C   UNL     1       3.647   2.853  18.528  0.00  0.00    +0.000 C 
BRANCH  14  15
ATOM     15  N   UNL     1       3.682   3.394  19.900  0.00  0.00    +0.000 NA
ATOM     16  C   UNL     1       2.809   2.685  20.860  0.00  0.00    +0.000 C 
ATOM     17  C   UNL     1       1.308   2.991  20.706  0.00  0.00    +0.000 C 
ATOM     18  O   UNL     1       1.045   4.399  20.711  0.00  0.00    +0.000 OA
ATOM     19  C   UNL     1       1.817   5.071  19.709  0.00  0.00    +0.000 C 
ATOM     20  C   UNL     1       3.317   4.828  19.917  0.00  0.00    +0.000 C 
ENDBRANCH  14  15
ENDBRANCH  13  14
ENDBRANCH  12  13
ENDBRANCH   4  12
TORSDOF 7
ENDMDL
MODEL 9
REMARK VINA RESULT:      -6.4      0.924      1.237
REMARK  Name = 
REMARK  8 active torsions:
REMARK  status: ('A' for Active; 'I' for Inactive)
REMARK    1  A    between atoms: C_1  and  C_2
REMARK    2  A    between atoms: C_2  and  C_4
REMARK    3  A    between atoms: C_4  and  C_5
REMARK    4  A    between atoms: C_5  and  C_6
REMARK    5  A    between atoms: C_9  and  O_10
REMARK    6  A    between atoms: O_10  and  C_11
REMARK    7  A    between atoms: C_11  and  C_12
REMARK    8  A    between atoms: C_12  and  N_13
REMARK                            x       y       z     vdW  Elec       q    Type
REMARK                         _______ _______ _______ _____ _____    ______ ____
ROOT
ATOM      1  C   UNL     1       7.948   8.161  18.003  0.00  0.00    +0.000 A 
ATOM      2  C   UNL     1       6.993   7.700  17.090  0.00  0.00    +0.000 A 
ATOM      3  C   UNL     1       6.467   6.421  17.188  0.00  0.00    +0.000 A 
ATOM      4  C   UNL     1       6.937   5.532  18.151  0.00  0.00    +0.000 A 
ATOM      5  C   UNL     1       7.899   5.967  19.063  0.00  0.00    +0.000 A 
ATOM      6  C   UNL     1       8.404   7.276  18.988  0.00  0.00    +0.000 A 
ENDROOT
BRANCH   1   7
ATOM      7  C   UNL     1       8.479   9.578  17.906  0.00  0.00    +0.000 C 
BRANCH   7   8
ATOM      8  C   UNL     1       9.201   9.997  19.191  0.00  0.00    +0.000 C 
BRANCH   8  10
ATOM      9  C   UNL     1      11.071  11.608  19.797  0.00  0.00    +0.000 C 
ATOM     10  C   UNL     1       9.694  11.419  19.210  0.00  0.00    +0.000 C 
ATOM     11  O   UNL     1       9.032  12.365  18.791  0.00  0.00    +0.000 OA
ENDBRANCH   8  10
ENDBRANCH   7   8
ENDBRANCH   1   7
BRANCH   4  12
ATOM     12  O   UNL     1       6.527   4.224  18.247  0.00  0.00    +0.000 OA
BRANCH  12  13
ATOM     13  C   UNL     1       5.151   4.038  17.886  0.00  0.00    +0.000 C 
BRANCH  13  14
ATOM     14  C   UNL     1       4.226   4.235  19.086  0.00  0.00    +0.000 C 
BRANCH  14  15
ATOM     15  N   UNL     1       2.924   3.568  18.890  0.00  0.00    +0.000 NA
ATOM     16  C   UNL     1       1.750   4.434  19.132  0.00  0.00    +0.000 C 
ATOM     17  C   UNL     1       1.457   4.714  20.618  0.00  0.00    +0.000 C 
ATOM     18  O   UNL     1       1.377   3.506  21.384  0.00  0.00    +0.000 OA
ATOM     19  C   UNL     1       2.562   2.717  21.229  0.00  0.00    +0.000 C 
ATOM     20  C   UNL     1       2.803   2.373  19.753  0.00  0.00    +0.000 C 
ENDBRANCH  14  15
ENDBRANCH  13  14
ENDBRANCH  12  13
ENDBRANCH   4  12
TORSDOF 7
ENDMDL
