MODEL 1
REMARK VINA RESULT:      -7.9      0.000      0.000
REMARK  Name = 
REMARK  3 active torsions:
REMARK  status: ('A' for Active; 'I' for Inactive)
REMARK    1  A    between atoms: C_2  and  C_13
REMARK    2  A    between atoms: N_3  and  C_4
REMARK    3  A    between atoms: C_4  and  C_5
REMARK                            x       y       z     vdW  Elec       q    Type
REMARK                         _______ _______ _______ _____ _____    ______ ____
ROOT
ATOM      1  O   UNL     1       1.682   8.728  18.679  0.00  0.00    +0.000 OA
ATOM      2  C   UNL     1       1.594   8.381  19.852  0.00  0.00    +0.000 C 
ATOM      3  N   UNL     1       2.156   7.229  20.352  0.00  0.00    +0.000 N 
ATOM      4  H   UNL     1       2.118   6.993  21.330  0.00  0.00    +0.000 HD
ENDROOT
BRANCH   2   5
ATOM      5  C   UNL     1       0.873   9.252  20.819  0.00  0.00    +0.000 A 
ATOM      6  C   UNL     1       0.253   8.742  21.968  0.00  0.00    +0.000 A 
ATOM      7  C   UNL     1      -0.432   9.604  22.832  0.00  0.00    +0.000 A 
ATOM      8  C   UNL     1      -0.504  10.967  22.547  0.00  0.00    +0.000 A 
ATOM      9  C   UNL     1       0.127  11.479  21.411  0.00  0.00    +0.000 A 
ATOM     10  C   UNL     1       0.798  10.624  20.540  0.00  0.00    +0.000 A 
ATOM     11  O   UNL     1       0.119  12.811  21.083  0.00  0.00    +0.000 OA
ATOM     12  C   UNL     1      -0.292  13.624  22.187  0.00  0.00    +0.000 C 
ATOM     13  C   UNL     1      -1.509  13.029  22.876  0.00  0.00    +0.000 C 
ATOM     14  O   UNL     1      -1.205  11.745  23.433  0.00  0.00    +0.000 OA
ENDBRANCH   2   5
BRANCH   3  15
ATOM     15  C   UNL     1       2.879   6.302  19.510  0.00  0.00    +0.000 C 
BRANCH  15  16
ATOM     16  C   UNL     1       2.348   4.916  19.756  0.00  0.00    +0.000 C 
ATOM     17  C   UNL     1       1.246   4.620  20.475  0.00  0.00    +0.000 C 
ATOM     18  C   UNL     1       0.969   3.131  20.573  0.00  0.00    +0.000 C 
ATOM     19  C   UNL     1       0.839   2.595  19.130  0.00  0.00    +0.000 C 
ATOM     20  C   UNL     1       2.118   2.968  18.339  0.00  0.00    +0.000 C 
ATOM     21  N   UNL     1       3.020   3.770  19.236  0.00  0.00    +0.000 N 
ATOM     22  C   UNL     1       3.464   2.861  20.348  0.00  0.00    +0.000 C 
ATOM     23  C   UNL     1       2.225   2.474  21.189  0.00  0.00    +0.000 C 
ENDBRANCH  15  16
ENDBRANCH   3  15
TORSDOF 3
ENDMDL
MODEL 2
REMARK VINA RESULT:      -7.8      1.401      2.162
REMARK  Name = 
REMARK  3 active torsions:
REMARK  status: ('A' for Active; 'I' for Inactive)
REMARK    1  A    between atoms: C_2  and  C_13
REMARK    2  A    between atoms: N_3  and  C_4
REMARK    3  A    between atoms: C_4  and  C_5
REMARK                            x       y       z     vdW  Elec       q    Type
REMARK                         _______ _______ _______ _____ _____    ______ ____
ROOT
ATOM      1  O   UNL     1       2.583   8.704  17.345  0.00  0.00    +0.000 OA
ATOM      2  C   UNL     1       2.086   8.384  18.420  0.00  0.00    +0.000 C 
ATOM      3  N   UNL     1       2.418   7.237  19.104  0.00  0.00    +0.000 N 
ATOM      4  H   UNL     1       2.038   7.024  20.012  0.00  0.00    +0.000 HD
ENDROOT
BRANCH   2   5
ATOM      5  C   UNL     1       1.090   9.285  19.061  0.00  0.00    +0.000 A 
ATOM      6  C   UNL     1       0.186  10.053  18.314  0.00  0.00    +0.000 A 
ATOM      7  C   UNL     1      -0.714  10.902  18.967  0.00  0.00    +0.000 A 
ATOM      8  C   UNL     1      -0.707  10.990  20.359  0.00  0.00    +0.000 A 
ATOM      9  C   UNL     1       0.183  10.214  21.106  0.00  0.00    +0.000 A 
ATOM     10  C   UNL     1       1.090   9.377  20.460  0.00  0.00    +0.000 A 
ATOM     11  O   UNL     1       0.226  10.230  22.476  0.00  0.00    +0.000 OA
ATOM     12  C   UNL     1      -0.940  10.844  23.035  0.00  0.00    +0.000 C 
ATOM     13  C   UNL     1      -1.285  12.126  22.295  0.00  0.00    +0.000 C 
ATOM     14  O   UNL     1      -1.608  11.855  20.926  0.00  0.00    +0.000 OA
ENDBRANCH   2   5
BRANCH   3  15
ATOM     15  C   UNL     1       3.372   6.283  18.582  0.00  0.00    +0.000 C 
BRANCH  15  16
ATOM     16  C   UNL     1       2.787   4.903  18.710  0.00  0.00    +0.000 C 
ATOM     17  C   UNL     1       1.775   4.413  17.966  0.00  0.00    +0.000 C 
ATOM     18  C   UNL     1       1.381   2.996  18.337  0.00  0.00    +0.000 C 
ATOM     19  C   UNL     1       2.643   2.117  18.185  0.00  0.00    +0.000 C 
ATOM     20  C   UNL     1       3.782   2.722  19.044  0.00  0.00    +0.000 C 
ATOM     21  N   UNL     1       3.279   3.986  19.686  0.00  0.00    +0.000 N 
ATOM     22  C   UNL     1       2.191   3.595  20.647  0.00  0.00    +0.000 C 
ATOM     23  C   UNL     1       1.012   3.003  19.838  0.00  0.00    +0.000 C 
ENDBRANCH  15  16
ENDBRANCH   3  15
TORSDOF 3
ENDMDL
MODEL 3
REMARK VINA RESULT:      -7.7      1.018      1.443
REMARK  Name = 
REMARK  3 active torsions:
REMARK  status: ('A' for Active; 'I' for Inactive)
REMARK    1  A    between atoms: C_2  and  C_13
REMARK    2  A    between atoms: N_3  and  C_4
REMARK    3  A    between atoms: C_4  and  C_5
REMARK                            x       y       z     vdW  Elec       q    Type
REMARK                         _______ _______ _______ _____ _____    ______ ____
ROOT
ATOM      1  O   UNL     1       1.886   9.040  18.178  0.00  0.00    +0.000 OA
ATOM      2  C   UNL     1       1.752   8.456  19.248  0.00  0.00    +0.000 C 
ATOM      3  N   UNL     1       2.245   7.196  19.498  0.00  0.00    +0.000 N 
ATOM      4  H   UNL     1       2.171   6.759  20.402  0.00  0.00    +0.000 HD
ENDROOT
BRANCH   2   5
ATOM      5  C   UNL     1       1.048   9.137  20.369  0.00  0.00    +0.000 A 
ATOM      6  C   UNL     1       1.207   8.740  21.704  0.00  0.00    +0.000 A 
ATOM      7  C   UNL     1       0.504   9.401  22.717  0.00  0.00    +0.000 A 
ATOM      8  C   UNL     1      -0.359  10.448  22.398  0.00  0.00    +0.000 A 
ATOM      9  C   UNL     1      -0.508  10.855  21.070  0.00  0.00    +0.000 A 
ATOM     10  C   UNL     1       0.180  10.192  20.056  0.00  0.00    +0.000 A 
ATOM     11  O   UNL     1      -1.319  11.893  20.688  0.00  0.00    +0.000 OA
ATOM     12  C   UNL     1      -1.703  12.702  21.805  0.00  0.00    +0.000 C 
ATOM     13  C   UNL     1      -2.120  11.838  22.983  0.00  0.00    +0.000 C 
ATOM     14  O   UNL     1      -1.026  11.037  23.443  0.00  0.00    +0.000 OA
ENDBRANCH   2   5
BRANCH   3  15
ATOM     15  C   UNL     1       2.944   6.433  18.487  0.00  0.00    +0.000 C 
BRANCH  15  16
ATOM     16  C   UNL     1       2.572   4.984  18.637  0.00  0.00    +0.000 C 
ATOM     17  C   UNL     1       1.731   4.307  17.828  0.00  0.00    +0.000 C 
ATOM     18  C   UNL     1       1.526   2.861  18.240  0.00  0.00    +0.000 C 
ATOM     19  C   UNL     1       2.918   2.192  18.262  0.00  0.00    +0.000 C 
ATOM     20  C   UNL     1       3.852   3.007  19.191  0.00  0.00    +0.000 C 
ATOM     21  N   UNL     1       3.095   4.199  19.707  0.00  0.00    +0.000 N 
ATOM     22  C   UNL     1       1.987   3.679  20.579  0.00  0.00    +0.000 C 
ATOM     23  C   UNL     1       1.005   2.872  19.695  0.00  0.00    +0.000 C 
ENDBRANCH  15  16
ENDBRANCH   3  15
TORSDOF 3
ENDMDL
MODEL 4
REMARK VINA RESULT:      -7.7      1.011      1.764
REMARK  Name = 
REMARK  3 active torsions:
REMARK  status: ('A' for Active; 'I' for Inactive)
REMARK    1  A    between atoms: C_2  and  C_13
REMARK    2  A    between atoms: N_3  and  C_4
REMARK    3  A    between atoms: C_4  and  C_5
REMARK                            x       y       z     vdW  Elec       q    Type
REMARK                         _______ _______ _______ _____ _____    ______ ____
ROOT
ATOM      1  O   UNL     1       2.266   7.882  17.770  0.00  0.00    +0.000 OA
ATOM      2  C   UNL     1       2.035   7.979  18.970  0.00  0.00    +0.000 C 
ATOM      3  N   UNL     1       2.533   7.114  19.917  0.00  0.00    +0.000 N 
ATOM      4  H   UNL     1       2.376   7.247  20.903  0.00  0.00    +0.000 HD
ENDROOT
BRANCH   2   5
ATOM      5  C   UNL     1       1.200   9.108  19.464  0.00  0.00    +0.000 A 
ATOM      6  C   UNL     1       0.667  10.078  18.603  0.00  0.00    +0.000 A 
ATOM      7  C   UNL     1      -0.092  11.131  19.122  0.00  0.00    +0.000 A 
ATOM      8  C   UNL     1      -0.314  11.221  20.496  0.00  0.00    +0.000 A 
ATOM      9  C   UNL     1       0.203  10.247  21.355  0.00  0.00    +0.000 A 
ATOM     10  C   UNL     1       0.971   9.204  20.843  0.00  0.00    +0.000 A 
ATOM     11  O   UNL     1       0.002  10.258  22.711  0.00  0.00    +0.000 OA
ATOM     12  C   UNL     1      -1.053  11.152  23.082  0.00  0.00    +0.000 C 
ATOM     13  C   UNL     1      -0.926  12.476  22.347  0.00  0.00    +0.000 C 
ATOM     14  O   UNL     1      -1.055  12.290  20.932  0.00  0.00    +0.000 OA
ENDBRANCH   2   5
BRANCH   3  15
ATOM     15  C   UNL     1       3.356   5.979  19.559  0.00  0.00    +0.000 C 
BRANCH  15  16
ATOM     16  C   UNL     1       2.581   4.720  19.837  0.00  0.00    +0.000 C 
ATOM     17  C   UNL     1       1.340   4.668  20.360  0.00  0.00    +0.000 C 
ATOM     18  C   UNL     1       0.821   3.255  20.550  0.00  0.00    +0.000 C 
ATOM     19  C   UNL     1       0.858   2.566  19.168  0.00  0.00    +0.000 C 
ATOM     20  C   UNL     1       2.296   2.660  18.599  0.00  0.00    +0.000 C 
ATOM     21  N   UNL     1       3.145   3.438  19.567  0.00  0.00    +0.000 N 
ATOM     22  C   UNL     1       3.245   2.622  20.826  0.00  0.00    +0.000 C 
ATOM     23  C   UNL     1       1.834   2.515  21.453  0.00  0.00    +0.000 C 
ENDBRANCH  15  16
ENDBRANCH   3  15
TORSDOF 3
ENDMDL
MODEL 5
REMARK VINA RESULT:      -7.5      1.366      2.500
REMARK  Name = 
REMARK  3 active torsions:
REMARK  status: ('A' for Active; 'I' for Inactive)
REMARK    1  A    between atoms: C_2  and  C_13
REMARK    2  A    between atoms: N_3  and  C_4
REMARK    3  A    between atoms: C_4  and  C_5
REMARK                            x       y       z     vdW  Elec       q    Type
REMARK                         _______ _______ _______ _____ _____    ______ ____
ROOT
ATOM      1  O   UNL     1       2.977   7.522  17.757  0.00  0.00    +0.000 OA
ATOM      2  C   UNL     1       2.669   7.464  18.942  0.00  0.00    +0.000 C 
ATOM      3  N   UNL     1       3.200   6.554  19.827  0.00  0.00    +0.000 N 
ATOM      4  H   UNL     1       2.973   6.562  20.808  0.00  0.00    +0.000 HD
ENDROOT
BRANCH   2   5
ATOM      5  C   UNL     1       1.691   8.443  19.491  0.00  0.00    +0.000 A 
ATOM      6  C   UNL     1       1.032   9.378  18.680  0.00  0.00    +0.000 A 
ATOM      7  C   UNL     1       0.140  10.291  19.251  0.00  0.00    +0.000 A 
ATOM      8  C   UNL     1      -0.088  10.277  20.627  0.00  0.00    +0.000 A 
ATOM      9  C   UNL     1       0.555   9.336  21.435  0.00  0.00    +0.000 A 
ATOM     10  C   UNL     1       1.455   8.433  20.872  0.00  0.00    +0.000 A 
ATOM     11  O   UNL     1       0.358   9.248  22.789  0.00  0.00    +0.000 OA
ATOM     12  C   UNL     1      -0.806   9.973  23.202  0.00  0.00    +0.000 C 
ATOM     13  C   UNL     1      -0.858  11.339  22.538  0.00  0.00    +0.000 C 
ATOM     14  O   UNL     1      -0.965  11.213  21.115  0.00  0.00    +0.000 OA
ENDBRANCH   2   5
BRANCH   3  15
ATOM     15  C   UNL     1       4.157   5.552  19.412  0.00  0.00    +0.000 C 
BRANCH  15  16
ATOM     16  C   UNL     1       3.414   4.287  19.081  0.00  0.00    +0.000 C 
ATOM     17  C   UNL     1       2.886   3.984  17.877  0.00  0.00    +0.000 C 
ATOM     18  C   UNL     1       2.170   2.647  17.848  0.00  0.00    +0.000 C 
ATOM     19  C   UNL     1       3.193   1.573  18.280  0.00  0.00    +0.000 C 
ATOM     20  C   UNL     1       3.783   1.966  19.658  0.00  0.00    +0.000 C 
ATOM     21  N   UNL     1       3.193   3.286  20.073  0.00  0.00    +0.000 N 
ATOM     22  C   UNL     1       1.722   3.067  20.292  0.00  0.00    +0.000 C 
ATOM     23  C   UNL     1       1.075   2.693  18.937  0.00  0.00    +0.000 C 
ENDBRANCH  15  16
ENDBRANCH   3  15
TORSDOF 3
ENDMDL
MODEL 6
REMARK VINA RESULT:      -7.5      2.892      4.225
REMARK  Name = 
REMARK  3 active torsions:
REMARK  status: ('A' for Active; 'I' for Inactive)
REMARK    1  A    between atoms: C_2  and  C_13
REMARK    2  A    between atoms: N_3  and  C_4
REMARK    3  A    between atoms: C_4  and  C_5
REMARK                            x       y       z     vdW  Elec       q    Type
REMARK                         _______ _______ _______ _____ _____    ______ ____
ROOT
ATOM      1  O   UNL     1       2.076   6.033  17.988  0.00  0.00    +0.000 OA
ATOM      2  C   UNL     1       2.445   6.676  18.966  0.00  0.00    +0.000 C 
ATOM      3  N   UNL     1       3.454   6.273  19.810  0.00  0.00    +0.000 N 
ATOM      4  H   UNL     1       3.777   6.844  20.573  0.00  0.00    +0.000 HD
ENDROOT
BRANCH   2   5
ATOM      5  C   UNL     1       1.806   7.987  19.260  0.00  0.00    +0.000 A 
ATOM      6  C   UNL     1       1.637   8.975  18.279  0.00  0.00    +0.000 A 
ATOM      7  C   UNL     1       1.050  10.199  18.616  0.00  0.00    +0.000 A 
ATOM      8  C   UNL     1       0.640  10.441  19.926  0.00  0.00    +0.000 A 
ATOM      9  C   UNL     1       0.793   9.452  20.902  0.00  0.00    +0.000 A 
ATOM     10  C   UNL     1       1.389   8.236  20.575  0.00  0.00    +0.000 A 
ATOM     11  O   UNL     1       0.389   9.611  22.203  0.00  0.00    +0.000 OA
ATOM     12  C   UNL     1      -0.493  10.729  22.349  0.00  0.00    +0.000 C 
ATOM     13  C   UNL     1       0.031  11.936  21.589  0.00  0.00    +0.000 C 
ATOM     14  O   UNL     1       0.088  11.670  20.183  0.00  0.00    +0.000 OA
ENDBRANCH   2   5
BRANCH   3  15
ATOM     15  C   UNL     1       4.148   5.017  19.627  0.00  0.00    +0.000 C 
BRANCH  15  16
ATOM     16  C   UNL     1       5.409   5.276  18.847  0.00  0.00    +0.000 C 
ATOM     17  C   UNL     1       6.637   5.431  19.380  0.00  0.00    +0.000 C 
ATOM     18  C   UNL     1       7.715   5.706  18.349  0.00  0.00    +0.000 C 
ATOM     19  C   UNL     1       7.699   4.529  17.348  0.00  0.00    +0.000 C 
ATOM     20  C   UNL     1       6.270   4.380  16.771  0.00  0.00    +0.000 C 
ATOM     21  N   UNL     1       5.379   5.399  17.426  0.00  0.00    +0.000 N 
ATOM     22  C   UNL     1       5.865   6.755  16.997  0.00  0.00    +0.000 C 
ATOM     23  C   UNL     1       7.287   6.970  17.568  0.00  0.00    +0.000 C 
ENDBRANCH  15  16
ENDBRANCH   3  15
TORSDOF 3
ENDMDL
MODEL 7
REMARK VINA RESULT:      -7.5      0.973      1.626
REMARK  Name = 
REMARK  3 active torsions:
REMARK  status: ('A' for Active; 'I' for Inactive)
REMARK    1  A    between atoms: C_2  and  C_13
REMARK    2  A    between atoms: N_3  and  C_4
REMARK    3  A    between atoms: C_4  and  C_5
REMARK                            x       y       z     vdW  Elec       q    Type
REMARK                         _______ _______ _______ _____ _____    ______ ____
ROOT
ATOM      1  O   UNL     1       1.701   8.519  18.353  0.00  0.00    +0.000 OA
ATOM      2  C   UNL     1       1.759   8.171  19.528  0.00  0.00    +0.000 C 
ATOM      3  N   UNL     1       2.484   7.089  19.970  0.00  0.00    +0.000 N 
ATOM      4  H   UNL     1       2.562   6.856  20.947  0.00  0.00    +0.000 HD
ENDROOT
BRANCH   2   5
ATOM      5  C   UNL     1       1.042   8.967  20.561  0.00  0.00    +0.000 A 
ATOM      6  C   UNL     1       1.183   8.715  21.932  0.00  0.00    +0.000 A 
ATOM      7  C   UNL     1       0.467   9.479  22.860  0.00  0.00    +0.000 A 
ATOM      8  C   UNL     1      -0.393  10.485  22.421  0.00  0.00    +0.000 A 
ATOM      9  C   UNL     1      -0.524  10.748  21.055  0.00  0.00    +0.000 A 
ATOM     10  C   UNL     1       0.177   9.981  20.127  0.00  0.00    +0.000 A 
ATOM     11  O   UNL     1      -1.330  11.738  20.554  0.00  0.00    +0.000 OA
ATOM     12  C   UNL     1      -1.729  12.661  21.573  0.00  0.00    +0.000 C 
ATOM     13  C   UNL     1      -2.161  11.926  22.831  0.00  0.00    +0.000 C 
ATOM     14  O   UNL     1      -1.072  11.181  23.389  0.00  0.00    +0.000 OA
ENDBRANCH   2   5
BRANCH   3  15
ATOM     15  C   UNL     1       3.222   6.239  19.061  0.00  0.00    +0.000 C 
BRANCH  15  16
ATOM     16  C   UNL     1       2.880   4.805  19.363  0.00  0.00    +0.000 C 
ATOM     17  C   UNL     1       3.771   3.836  19.655  0.00  0.00    +0.000 C 
ATOM     18  C   UNL     1       3.135   2.478  19.890  0.00  0.00    +0.000 C 
ATOM     19  C   UNL     1       2.114   2.646  21.037  0.00  0.00    +0.000 C 
ATOM     20  C   UNL     1       1.121   3.774  20.666  0.00  0.00    +0.000 C 
ATOM     21  N   UNL     1       1.527   4.353  19.338  0.00  0.00    +0.000 N 
ATOM     22  C   UNL     1       1.342   3.275  18.308  0.00  0.00    +0.000 C 
ATOM     23  C   UNL     1       2.332   2.126  18.618  0.00  0.00    +0.000 C 
ENDBRANCH  15  16
ENDBRANCH   3  15
TORSDOF 3
ENDMDL
MODEL 8
REMARK VINA RESULT:      -7.5      2.870      4.033
REMARK  Name = 
REMARK  3 active torsions:
REMARK  status: ('A' for Active; 'I' for Inactive)
REMARK    1  A    between atoms: C_2  and  C_13
REMARK    2  A    between atoms: N_3  and  C_4
REMARK    3  A    between atoms: C_4  and  C_5
REMARK                            x       y       z     vdW  Elec       q    Type
REMARK                         _______ _______ _______ _____ _____    ______ ____
ROOT
ATOM      1  O   UNL     1       2.138   6.209  18.035  0.00  0.00    +0.000 OA
ATOM      2  C   UNL     1       2.463   6.584  19.157  0.00  0.00    +0.000 C 
ATOM      3  N   UNL     1       3.399   5.943  19.935  0.00  0.00    +0.000 N 
ATOM      4  H   UNL     1       3.691   6.301  20.829  0.00  0.00    +0.000 HD
ENDROOT
BRANCH   2   5
ATOM      5  C   UNL     1       1.850   7.817  19.721  0.00  0.00    +0.000 A 
ATOM      6  C   UNL     1       1.402   7.892  21.047  0.00  0.00    +0.000 A 
ATOM      7  C   UNL     1       0.813   9.069  21.519  0.00  0.00    +0.000 A 
ATOM      8  C   UNL     1       0.663  10.165  20.669  0.00  0.00    +0.000 A 
ATOM      9  C   UNL     1       1.122  10.098  19.352  0.00  0.00    +0.000 A 
ATOM     10  C   UNL     1       1.698   8.923  18.873  0.00  0.00    +0.000 A 
ATOM     11  O   UNL     1       1.032  11.144  18.470  0.00  0.00    +0.000 OA
ATOM     12  C   UNL     1       0.746  12.377  19.140  0.00  0.00    +0.000 C 
ATOM     13  C   UNL     1      -0.351  12.190  20.175  0.00  0.00    +0.000 C 
ATOM     14  O   UNL     1       0.062  11.278  21.200  0.00  0.00    +0.000 OA
ENDBRANCH   2   5
BRANCH   3  15
ATOM     15  C   UNL     1       4.062   4.735  19.495  0.00  0.00    +0.000 C 
BRANCH  15  16
ATOM     16  C   UNL     1       5.311   5.118  18.748  0.00  0.00    +0.000 C 
ATOM     17  C   UNL     1       6.510   5.368  19.311  0.00  0.00    +0.000 C 
ATOM     18  C   UNL     1       7.581   5.756  18.309  0.00  0.00    +0.000 C 
ATOM     19  C   UNL     1       7.688   4.602  17.287  0.00  0.00    +0.000 C 
ATOM     20  C   UNL     1       6.289   4.340  16.676  0.00  0.00    +0.000 C 
ATOM     21  N   UNL     1       5.300   5.266  17.329  0.00  0.00    +0.000 N 
ATOM     22  C   UNL     1       5.674   6.667  16.936  0.00  0.00    +0.000 C 
ATOM     23  C   UNL     1       7.060   6.993  17.542  0.00  0.00    +0.000 C 
ENDBRANCH  15  16
ENDBRANCH   3  15
TORSDOF 3
ENDMDL
MODEL 9
REMARK VINA RESULT:      -7.4      1.361      2.345
REMARK  Name = 
REMARK  3 active torsions:
REMARK  status: ('A' for Active; 'I' for Inactive)
REMARK    1  A    between atoms: C_2  and  C_13
REMARK    2  A    between atoms: N_3  and  C_4
REMARK    3  A    between atoms: C_4  and  C_5
REMARK                            x       y       z     vdW  Elec       q    Type
REMARK                         _______ _______ _______ _____ _____    ______ ____
ROOT
ATOM      1  O   UNL     1       2.521   8.718  17.360  0.00  0.00    +0.000 OA
ATOM      2  C   UNL     1       2.024   8.377  18.428  0.00  0.00    +0.000 C 
ATOM      3  N   UNL     1       2.327   7.198  19.070  0.00  0.00    +0.000 N 
ATOM      4  H   UNL     1       1.949   6.965  19.973  0.00  0.00    +0.000 HD
ENDROOT
BRANCH   2   5
ATOM      5  C   UNL     1       1.062   9.285  19.110  0.00  0.00    +0.000 A 
ATOM      6  C   UNL     1       0.210  10.142  18.400  0.00  0.00    +0.000 A 
ATOM      7  C   UNL     1      -0.660  10.992  19.091  0.00  0.00    +0.000 A 
ATOM      8  C   UNL     1      -0.673  10.993  20.485  0.00  0.00    +0.000 A 
ATOM      9  C   UNL     1       0.164  10.129  21.195  0.00  0.00    +0.000 A 
ATOM     10  C   UNL     1       1.041   9.290  20.511  0.00  0.00    +0.000 A 
ATOM     11  O   UNL     1       0.184  10.058  22.564  0.00  0.00    +0.000 OA
ATOM     12  C   UNL     1      -0.960  10.694  23.143  0.00  0.00    +0.000 C 
ATOM     13  C   UNL     1      -1.230  12.035  22.480  0.00  0.00    +0.000 C 
ATOM     14  O   UNL     1      -1.541  11.865  21.092  0.00  0.00    +0.000 OA
ENDBRANCH   2   5
BRANCH   3  15
ATOM     15  C   UNL     1       3.247   6.234  18.506  0.00  0.00    +0.000 C 
BRANCH  15  16
ATOM     16  C   UNL     1       2.945   4.883  19.095  0.00  0.00    +0.000 C 
ATOM     17  C   UNL     1       3.867   3.974  19.472  0.00  0.00    +0.000 C 
ATOM     18  C   UNL     1       3.265   2.689  20.010  0.00  0.00    +0.000 C 
ATOM     19  C   UNL     1       2.358   3.073  21.200  0.00  0.00    +0.000 C 
ATOM     20  C   UNL     1       1.326   4.126  20.726  0.00  0.00    +0.000 C 
ATOM     21  N   UNL     1       1.599   4.449  19.283  0.00  0.00    +0.000 N 
ATOM     22  C   UNL     1       1.324   3.203  18.488  0.00  0.00    +0.000 C 
ATOM     23  C   UNL     1       2.346   2.119  18.906  0.00  0.00    +0.000 C 
ENDBRANCH  15  16
ENDBRANCH   3  15
TORSDOF 3
ENDMDL
