MODEL 1
REMARK VINA RESULT:      -6.9      0.000      0.000
REMARK  Name = 
REMARK  5 active torsions:
REMARK  status: ('A' for Active; 'I' for Inactive)
REMARK    1  A    between atoms: C_1  and  C_2
REMARK    2  A    between atoms: N_4  and  C_5
REMARK    3  A    between atoms: C_5  and  C_6
REMARK    4  A    between atoms: C_9  and  C_10
REMARK    5  A    between atoms: C_19  and  C_20
REMARK                            x       y       z     vdW  Elec       q    Type
REMARK                         _______ _______ _______ _____ _____    ______ ____
ROOT
ATOM      1  C   UNL     1       2.035   5.687  20.069  0.00  0.00    +0.000 A 
ATOM      2  C   UNL     1       1.463   4.749  19.236  0.00  0.00    +0.000 A 
ATOM      3  C   UNL     1       2.529   4.102  18.573  0.00  0.00    +0.000 A 
ATOM      4  C   UNL     1       3.706   4.662  19.041  0.00  0.00    +0.000 A 
ATOM      5  O   UNL     1       3.396   5.653  19.938  0.00  0.00    +0.000 OA
ENDROOT
BRANCH   4   6
ATOM      6  C   UNL     1       5.073   4.366  18.635  0.00  0.00    +0.000 C 
ATOM      7  O   UNL     1       5.703   3.478  19.216  0.00  0.00    +0.000 OA
ATOM      8  N   UNL     1       5.685   5.074  17.603  0.00  0.00    +0.000 N 
ATOM      9  C   UNL     1       5.208   6.286  16.931  0.00  0.00    +0.000 C 
ATOM     10  C   UNL     1       5.277   6.098  15.411  0.00  0.00    +0.000 C 
ATOM     11  O   UNL     1       6.608   5.747  14.995  0.00  0.00    +0.000 OA
ATOM     12  C   UNL     1       7.046   4.534  15.634  0.00  0.00    +0.000 C 
ATOM     13  C   UNL     1       7.025   4.675  17.157  0.00  0.00    +0.000 C 
ENDBRANCH   4   6
BRANCH   1  14
ATOM     14  C   UNL     1       1.471   6.614  21.083  0.00  0.00    +0.000 C 
BRANCH  14  18
ATOM     15  C   UNL     1       1.826  10.232  17.880  0.00  0.00    +0.000 C 
ATOM     16  C   UNL     1       1.393   9.514  19.103  0.00  0.00    +0.000 A 
ATOM     17  N   UNL     1       1.882   8.300  19.392  0.00  0.00    +0.000 NA
ATOM     18  N   UNL     1       1.285   7.965  20.562  0.00  0.00    +0.000 N 
ATOM     19  C   UNL     1       0.424   8.935  21.027  0.00  0.00    +0.000 A 
ATOM     20  C   UNL     1      -0.362   8.827  22.279  0.00  0.00    +0.000 C 
ATOM     21  C   UNL     1       0.472   9.931  20.081  0.00  0.00    +0.000 A 
ATOM     22 BR   UNL     1      -0.493  11.536  20.052  0.00  0.00    +0.000 Br
ENDBRANCH  14  18
ENDBRANCH   1  14
TORSDOF 3
ENDMDL
MODEL 2
REMARK VINA RESULT:      -6.9      2.139      2.871
REMARK  Name = 
REMARK  5 active torsions:
REMARK  status: ('A' for Active; 'I' for Inactive)
REMARK    1  A    between atoms: C_1  and  C_2
REMARK    2  A    between atoms: N_4  and  C_5
REMARK    3  A    between atoms: C_5  and  C_6
REMARK    4  A    between atoms: C_9  and  C_10
REMARK    5  A    between atoms: C_19  and  C_20
REMARK                            x       y       z     vdW  Elec       q    Type
REMARK                         _______ _______ _______ _____ _____    ______ ____
ROOT
ATOM      1  C   UNL     1       2.190   8.446  18.511  0.00  0.00    +0.000 A 
ATOM      2  C   UNL     1       1.952   7.849  19.731  0.00  0.00    +0.000 A 
ATOM      3  C   UNL     1       2.416   6.519  19.621  0.00  0.00    +0.000 A 
ATOM      4  C   UNL     1       2.930   6.367  18.344  0.00  0.00    +0.000 A 
ATOM      5  O   UNL     1       2.763   7.543  17.658  0.00  0.00    +0.000 OA
ENDROOT
BRANCH   4   6
ATOM      6  C   UNL     1       3.488   5.169  17.730  0.00  0.00    +0.000 C 
ATOM      7  O   UNL     1       2.734   4.264  17.363  0.00  0.00    +0.000 OA
ATOM      8  N   UNL     1       4.863   5.026  17.555  0.00  0.00    +0.000 N 
ATOM      9  C   UNL     1       5.935   5.866  18.096  0.00  0.00    +0.000 C 
ATOM     10  C   UNL     1       6.907   6.252  16.976  0.00  0.00    +0.000 C 
ATOM     11  O   UNL     1       7.426   5.084  16.317  0.00  0.00    +0.000 OA
ATOM     12  C   UNL     1       6.364   4.292  15.757  0.00  0.00    +0.000 C 
ATOM     13  C   UNL     1       5.375   3.852  16.839  0.00  0.00    +0.000 C 
ENDBRANCH   4   6
BRANCH   1  14
ATOM     14  C   UNL     1       2.018   9.835  18.017  0.00  0.00    +0.000 C 
BRANCH  14  18
ATOM     15  C   UNL     1      -2.821   9.931  17.806  0.00  0.00    +0.000 C 
ATOM     16  C   UNL     1      -1.454  10.329  18.218  0.00  0.00    +0.000 A 
ATOM     17  N   UNL     1      -0.379   9.745  17.671  0.00  0.00    +0.000 NA
ATOM     18  N   UNL     1       0.676  10.355  18.266  0.00  0.00    +0.000 N 
ATOM     19  C   UNL     1       0.301  11.313  19.183  0.00  0.00    +0.000 A 
ATOM     20  C   UNL     1       1.249  12.127  19.979  0.00  0.00    +0.000 C 
ATOM     21  C   UNL     1      -1.073  11.289  19.172  0.00  0.00    +0.000 A 
ATOM     22 BR   UNL     1      -2.248  12.307  20.219  0.00  0.00    +0.000 Br
ENDBRANCH  14  18
ENDBRANCH   1  14
TORSDOF 3
ENDMDL
MODEL 3
REMARK VINA RESULT:      -6.9      2.473      3.888
REMARK  Name = 
REMARK  5 active torsions:
REMARK  status: ('A' for Active; 'I' for Inactive)
REMARK    1  A    between atoms: C_1  and  C_2
REMARK    2  A    between atoms: N_4  and  C_5
REMARK    3  A    between atoms: C_5  and  C_6
REMARK    4  A    between atoms: C_9  and  C_10
REMARK    5  A    between atoms: C_19  and  C_20
REMARK                            x       y       z     vdW  Elec       q    Type
REMARK                         _______ _______ _______ _____ _____    ______ ____
ROOT
ATOM      1  C   UNL     1       2.027   8.655  18.685  0.00  0.00    +0.000 A 
ATOM      2  C   UNL     1       1.704   8.125  19.917  0.00  0.00    +0.000 A 
ATOM      3  C   UNL     1       2.285   6.838  19.961  0.00  0.00    +0.000 A 
ATOM      4  C   UNL     1       2.949   6.645  18.761  0.00  0.00    +0.000 A 
ATOM      5  O   UNL     1       2.764   7.751  17.971  0.00  0.00    +0.000 OA
ENDROOT
BRANCH   4   6
ATOM      6  C   UNL     1       3.669   5.463  18.305  0.00  0.00    +0.000 C 
ATOM      7  O   UNL     1       4.896   5.505  18.185  0.00  0.00    +0.000 OA
ATOM      8  N   UNL     1       2.992   4.284  17.996  0.00  0.00    +0.000 N 
ATOM      9  C   UNL     1       1.546   4.079  17.868  0.00  0.00    +0.000 C 
ATOM     10  C   UNL     1       1.121   2.855  18.686  0.00  0.00    +0.000 C 
ATOM     11  O   UNL     1       1.862   1.688  18.291  0.00  0.00    +0.000 OA
ATOM     12  C   UNL     1       3.276   1.892  18.462  0.00  0.00    +0.000 C 
ATOM     13  C   UNL     1       3.763   3.088  17.641  0.00  0.00    +0.000 C 
ENDBRANCH   4   6
BRANCH   1  14
ATOM     14  C   UNL     1       1.797   9.986  18.069  0.00  0.00    +0.000 C 
BRANCH  14  18
ATOM     15  C   UNL     1      -3.034   9.898  17.714  0.00  0.00    +0.000 C 
ATOM     16  C   UNL     1      -1.695  10.358  18.153  0.00  0.00    +0.000 A 
ATOM     17  N   UNL     1      -0.584   9.798  17.656  0.00  0.00    +0.000 NA
ATOM     18  N   UNL     1       0.431  10.463  18.262  0.00  0.00    +0.000 N 
ATOM     19  C   UNL     1      -0.006  11.434  19.137  0.00  0.00    +0.000 A 
ATOM     20  C   UNL     1       0.888  12.306  19.934  0.00  0.00    +0.000 C 
ATOM     21  C   UNL     1      -1.378  11.360  19.087  0.00  0.00    +0.000 A 
ATOM     22 BR   UNL     1      -2.619  12.365  20.068  0.00  0.00    +0.000 Br
ENDBRANCH  14  18
ENDBRANCH   1  14
TORSDOF 3
ENDMDL
MODEL 4
REMARK VINA RESULT:      -6.7      2.126      2.946
REMARK  Name = 
REMARK  5 active torsions:
REMARK  status: ('A' for Active; 'I' for Inactive)
REMARK    1  A    between atoms: C_1  and  C_2
REMARK    2  A    between atoms: N_4  and  C_5
REMARK    3  A    between atoms: C_5  and  C_6
REMARK    4  A    between atoms: C_9  and  C_10
REMARK    5  A    between atoms: C_19  and  C_20
REMARK                            x       y       z     vdW  Elec       q    Type
REMARK                         _______ _______ _______ _____ _____    ______ ____
ROOT
ATOM      1  C   UNL     1       2.033   8.471  18.549  0.00  0.00    +0.000 A 
ATOM      2  C   UNL     1       1.926   7.899  19.798  0.00  0.00    +0.000 A 
ATOM      3  C   UNL     1       2.447   6.591  19.683  0.00  0.00    +0.000 A 
ATOM      4  C   UNL     1       2.861   6.427  18.371  0.00  0.00    +0.000 A 
ATOM      5  O   UNL     1       2.580   7.574  17.673  0.00  0.00    +0.000 OA
ENDROOT
BRANCH   4   6
ATOM      6  C   UNL     1       3.428   5.241  17.742  0.00  0.00    +0.000 C 
ATOM      7  O   UNL     1       2.680   4.340  17.354  0.00  0.00    +0.000 OA
ATOM      8  N   UNL     1       4.805   5.105  17.576  0.00  0.00    +0.000 N 
ATOM      9  C   UNL     1       5.870   5.938  18.140  0.00  0.00    +0.000 C 
ATOM     10  C   UNL     1       6.850   6.346  17.034  0.00  0.00    +0.000 C 
ATOM     11  O   UNL     1       7.378   5.190  16.361  0.00  0.00    +0.000 OA
ATOM     12  C   UNL     1       6.322   4.404  15.779  0.00  0.00    +0.000 C 
ATOM     13  C   UNL     1       5.326   3.944  16.846  0.00  0.00    +0.000 C 
ENDBRANCH   4   6
BRANCH   1  14
ATOM     14  C   UNL     1       1.750   9.837  18.038  0.00  0.00    +0.000 C 
BRANCH  14  18
ATOM     15  C   UNL     1       0.150  12.882  21.449  0.00  0.00    +0.000 C 
ATOM     16  C   UNL     1       0.087  11.943  20.303  0.00  0.00    +0.000 A 
ATOM     17  N   UNL     1       1.188  11.310  19.878  0.00  0.00    +0.000 NA
ATOM     18  N   UNL     1       0.760  10.542  18.846  0.00  0.00    +0.000 N 
ATOM     19  C   UNL     1      -0.590  10.672  18.599  0.00  0.00    +0.000 A 
ATOM     20  C   UNL     1      -1.318   9.953  17.527  0.00  0.00    +0.000 C 
ATOM     21  C   UNL     1      -1.029  11.590  19.523  0.00  0.00    +0.000 A 
ATOM     22 BR   UNL     1      -2.760  12.277  19.727  0.00  0.00    +0.000 Br
ENDBRANCH  14  18
ENDBRANCH   1  14
TORSDOF 3
ENDMDL
MODEL 5
REMARK VINA RESULT:      -6.7      2.576      3.877
REMARK  Name = 
REMARK  5 active torsions:
REMARK  status: ('A' for Active; 'I' for Inactive)
REMARK    1  A    between atoms: C_1  and  C_2
REMARK    2  A    between atoms: N_4  and  C_5
REMARK    3  A    between atoms: C_5  and  C_6
REMARK    4  A    between atoms: C_9  and  C_10
REMARK    5  A    between atoms: C_19  and  C_20
REMARK                            x       y       z     vdW  Elec       q    Type
REMARK                         _______ _______ _______ _____ _____    ______ ____
ROOT
ATOM      1  C   UNL     1       1.514   8.563  19.571  0.00  0.00    +0.000 A 
ATOM      2  C   UNL     1       1.864   8.869  18.274  0.00  0.00    +0.000 A 
ATOM      3  C   UNL     1       2.710   7.827  17.833  0.00  0.00    +0.000 A 
ATOM      4  C   UNL     1       2.827   6.923  18.876  0.00  0.00    +0.000 A 
ATOM      5  O   UNL     1       2.114   7.394  19.950  0.00  0.00    +0.000 OA
ENDROOT
BRANCH   4   6
ATOM      6  C   UNL     1       3.622   5.704  18.932  0.00  0.00    +0.000 C 
ATOM      7  O   UNL     1       4.789   5.754  19.328  0.00  0.00    +0.000 OA
ATOM      8  N   UNL     1       3.086   4.478  18.540  0.00  0.00    +0.000 N 
ATOM      9  C   UNL     1       1.816   4.225  17.853  0.00  0.00    +0.000 C 
ATOM     10  C   UNL     1       1.041   3.124  18.585  0.00  0.00    +0.000 C 
ATOM     11  O   UNL     1       1.831   1.929  18.702  0.00  0.00    +0.000 OA
ATOM     12  C   UNL     1       3.055   2.185  19.414  0.00  0.00    +0.000 C 
ATOM     13  C   UNL     1       3.885   3.260  18.710  0.00  0.00    +0.000 C 
ENDBRANCH   4   6
BRANCH   1  14
ATOM     14  C   UNL     1       0.590   9.201  20.543  0.00  0.00    +0.000 C 
BRANCH  14  18
ATOM     15  C   UNL     1       2.115  13.767  21.092  0.00  0.00    +0.000 C 
ATOM     16  C   UNL     1       1.282  12.644  20.598  0.00  0.00    +0.000 A 
ATOM     17  N   UNL     1       1.476  11.399  21.052  0.00  0.00    +0.000 NA
ATOM     18  N   UNL     1       0.547  10.654  20.403  0.00  0.00    +0.000 N 
ATOM     19  C   UNL     1      -0.235  11.394  19.544  0.00  0.00    +0.000 A 
ATOM     20  C   UNL     1      -1.323  10.832  18.708  0.00  0.00    +0.000 C 
ATOM     21  C   UNL     1       0.245  12.677  19.648  0.00  0.00    +0.000 A 
ATOM     22 BR   UNL     1      -0.327  14.198  18.715  0.00  0.00    +0.000 Br
ENDBRANCH  14  18
ENDBRANCH   1  14
TORSDOF 3
ENDMDL
MODEL 6
REMARK VINA RESULT:      -6.7      2.467      3.872
REMARK  Name = 
REMARK  5 active torsions:
REMARK  status: ('A' for Active; 'I' for Inactive)
REMARK    1  A    between atoms: C_1  and  C_2
REMARK    2  A    between atoms: N_4  and  C_5
REMARK    3  A    between atoms: C_5  and  C_6
REMARK    4  A    between atoms: C_9  and  C_10
REMARK    5  A    between atoms: C_19  and  C_20
REMARK                            x       y       z     vdW  Elec       q    Type
REMARK                         _______ _______ _______ _____ _____    ______ ____
ROOT
ATOM      1  C   UNL     1       1.750   8.851  18.770  0.00  0.00    +0.000 A 
ATOM      2  C   UNL     1       1.550   8.250  19.995  0.00  0.00    +0.000 A 
ATOM      3  C   UNL     1       2.257   7.028  19.959  0.00  0.00    +0.000 A 
ATOM      4  C   UNL     1       2.870   6.943  18.719  0.00  0.00    +0.000 A 
ATOM      5  O   UNL     1       2.533   8.051  17.984  0.00  0.00    +0.000 OA
ENDROOT
BRANCH   4   6
ATOM      6  C   UNL     1       3.677   5.857  18.181  0.00  0.00    +0.000 C 
ATOM      7  O   UNL     1       4.896   6.006  18.057  0.00  0.00    +0.000 OA
ATOM      8  N   UNL     1       3.094   4.650  17.799  0.00  0.00    +0.000 N 
ATOM      9  C   UNL     1       1.668   4.337  17.665  0.00  0.00    +0.000 C 
ATOM     10  C   UNL     1       1.353   3.031  18.403  0.00  0.00    +0.000 C 
ATOM     11  O   UNL     1       2.181   1.957  17.926  0.00  0.00    +0.000 OA
ATOM     12  C   UNL     1       3.576   2.263  18.101  0.00  0.00    +0.000 C 
ATOM     13  C   UNL     1       3.955   3.546  17.360  0.00  0.00    +0.000 C 
ENDBRANCH   4   6
BRANCH   1  14
ATOM     14  C   UNL     1       1.356  10.172  18.219  0.00  0.00    +0.000 C 
BRANCH  14  18
ATOM     15  C   UNL     1       0.122  13.312  21.697  0.00  0.00    +0.000 C 
ATOM     16  C   UNL     1      -0.061  12.344  20.589  0.00  0.00    +0.000 A 
ATOM     17  N   UNL     1       0.990  11.695  20.069  0.00  0.00    +0.000 NA
ATOM     18  N   UNL     1       0.456  10.902  19.107  0.00  0.00    +0.000 N 
ATOM     19  C   UNL     1      -0.912  11.031  18.998  0.00  0.00    +0.000 A 
ATOM     20  C   UNL     1      -1.749  10.287  18.027  0.00  0.00    +0.000 C 
ATOM     21  C   UNL     1      -1.252  11.975  19.938  0.00  0.00    +0.000 A 
ATOM     22 BR   UNL     1      -2.952  12.673  20.303  0.00  0.00    +0.000 Br
ENDBRANCH  14  18
ENDBRANCH   1  14
TORSDOF 3
ENDMDL
MODEL 7
REMARK VINA RESULT:      -6.6      2.536      3.874
REMARK  Name = 
REMARK  5 active torsions:
REMARK  status: ('A' for Active; 'I' for Inactive)
REMARK    1  A    between atoms: C_1  and  C_2
REMARK    2  A    between atoms: N_4  and  C_5
REMARK    3  A    between atoms: C_5  and  C_6
REMARK    4  A    between atoms: C_9  and  C_10
REMARK    5  A    between atoms: C_19  and  C_20
REMARK                            x       y       z     vdW  Elec       q    Type
REMARK                         _______ _______ _______ _____ _____    ______ ____
ROOT
ATOM      1  C   UNL     1       1.698   8.564  19.427  0.00  0.00    +0.000 A 
ATOM      2  C   UNL     1       2.040   8.857  18.124  0.00  0.00    +0.000 A 
ATOM      3  C   UNL     1       2.847   7.789  17.674  0.00  0.00    +0.000 A 
ATOM      4  C   UNL     1       2.951   6.884  18.718  0.00  0.00    +0.000 A 
ATOM      5  O   UNL     1       2.268   7.378  19.800  0.00  0.00    +0.000 OA
ENDROOT
BRANCH   4   6
ATOM      6  C   UNL     1       3.710   5.641  18.766  0.00  0.00    +0.000 C 
ATOM      7  O   UNL     1       4.896   5.663  19.106  0.00  0.00    +0.000 OA
ATOM      8  N   UNL     1       3.118   4.425  18.428  0.00  0.00    +0.000 N 
ATOM      9  C   UNL     1       1.811   4.198  17.807  0.00  0.00    +0.000 C 
ATOM     10  C   UNL     1       1.037   3.139  18.600  0.00  0.00    +0.000 C 
ATOM     11  O   UNL     1       1.794   1.921  18.709  0.00  0.00    +0.000 OA
ATOM     12  C   UNL     1       3.057   2.154  19.357  0.00  0.00    +0.000 C 
ATOM     13  C   UNL     1       3.887   3.186  18.590  0.00  0.00    +0.000 C 
ENDBRANCH   4   6
BRANCH   1  14
ATOM     14  C   UNL     1       0.808   9.232  20.410  0.00  0.00    +0.000 C 
BRANCH  14  18
ATOM     15  C   UNL     1      -2.828  11.663  18.325  0.00  0.00    +0.000 C 
ATOM     16  C   UNL     1      -1.523  11.446  18.996  0.00  0.00    +0.000 A 
ATOM     17  N   UNL     1      -1.084  10.206  19.250  0.00  0.00    +0.000 NA
ATOM     18  N   UNL     1       0.120  10.390  19.846  0.00  0.00    +0.000 N 
ATOM     19  C   UNL     1       0.460  11.718  19.981  0.00  0.00    +0.000 A 
ATOM     20  C   UNL     1       1.716  12.203  20.600  0.00  0.00    +0.000 C 
ATOM     21  C   UNL     1      -0.605  12.409  19.452  0.00  0.00    +0.000 A 
ATOM     22 BR   UNL     1      -0.836  14.265  19.355  0.00  0.00    +0.000 Br
ENDBRANCH  14  18
ENDBRANCH   1  14
TORSDOF 3
ENDMDL
MODEL 8
REMARK VINA RESULT:      -6.6      3.151      7.117
REMARK  Name = 
REMARK  5 active torsions:
REMARK  status: ('A' for Active; 'I' for Inactive)
REMARK    1  A    between atoms: C_1  and  C_2
REMARK    2  A    between atoms: N_4  and  C_5
REMARK    3  A    between atoms: C_5  and  C_6
REMARK    4  A    between atoms: C_9  and  C_10
REMARK    5  A    between atoms: C_19  and  C_20
REMARK                            x       y       z     vdW  Elec       q    Type
REMARK                         _______ _______ _______ _____ _____    ______ ____
ROOT
ATOM      1  C   UNL     1       2.986   5.187  20.127  0.00  0.00    +0.000 A 
ATOM      2  C   UNL     1       1.800   4.920  20.778  0.00  0.00    +0.000 A 
ATOM      3  C   UNL     1       1.066   6.127  20.781  0.00  0.00    +0.000 A 
ATOM      4  C   UNL     1       1.830   7.075  20.120  0.00  0.00    +0.000 A 
ATOM      5  O   UNL     1       3.018   6.501  19.746  0.00  0.00    +0.000 OA
ENDROOT
BRANCH   4   6
ATOM      6  C   UNL     1       1.531   8.483  19.897  0.00  0.00    +0.000 C 
ATOM      7  O   UNL     1       1.528   8.931  18.748  0.00  0.00    +0.000 OA
ATOM      8  N   UNL     1       1.253   9.336  20.964  0.00  0.00    +0.000 N 
ATOM      9  C   UNL     1       1.406   9.070  22.398  0.00  0.00    +0.000 C 
ATOM     10  C   UNL     1       0.122   9.459  23.137  0.00  0.00    +0.000 C 
ATOM     11  O   UNL     1      -0.224  10.831  22.884  0.00  0.00    +0.000 OA
ATOM     12  C   UNL     1      -0.410  11.066  21.476  0.00  0.00    +0.000 C 
ATOM     13  C   UNL     1       0.856  10.721  20.689  0.00  0.00    +0.000 C 
ENDBRANCH   4   6
BRANCH   1  14
ATOM     14  C   UNL     1       4.129   4.331  19.722  0.00  0.00    +0.000 C 
BRANCH  14  18
ATOM     15  C   UNL     1       7.510   6.814  17.298  0.00  0.00    +0.000 C 
ATOM     16  C   UNL     1       6.370   5.890  17.512  0.00  0.00    +0.000 A 
ATOM     17  N   UNL     1       5.831   5.742  18.730  0.00  0.00    +0.000 NA
ATOM     18  N   UNL     1       4.827   4.849  18.549  0.00  0.00    +0.000 N 
ATOM     19  C   UNL     1       4.713   4.419  17.244  0.00  0.00    +0.000 A 
ATOM     20  C   UNL     1       3.706   3.442  16.769  0.00  0.00    +0.000 C 
ATOM     21  C   UNL     1       5.719   5.072  16.571  0.00  0.00    +0.000 A 
ATOM     22 BR   UNL     1       6.178   4.918  14.761  0.00  0.00    +0.000 Br
ENDBRANCH  14  18
ENDBRANCH   1  14
TORSDOF 3
ENDMDL
MODEL 9
REMARK VINA RESULT:      -6.5      2.704      3.904
REMARK  Name = 
REMARK  5 active torsions:
REMARK  status: ('A' for Active; 'I' for Inactive)
REMARK    1  A    between atoms: C_1  and  C_2
REMARK    2  A    between atoms: N_4  and  C_5
REMARK    3  A    between atoms: C_5  and  C_6
REMARK    4  A    between atoms: C_9  and  C_10
REMARK    5  A    between atoms: C_19  and  C_20
REMARK                            x       y       z     vdW  Elec       q    Type
REMARK                         _______ _______ _______ _____ _____    ______ ____
ROOT
ATOM      1  C   UNL     1       1.326   8.960  18.981  0.00  0.00    +0.000 A 
ATOM      2  C   UNL     1       1.416   8.340  20.209  0.00  0.00    +0.000 A 
ATOM      3  C   UNL     1       2.248   7.214  20.027  0.00  0.00    +0.000 A 
ATOM      4  C   UNL     1       2.641   7.203  18.699  0.00  0.00    +0.000 A 
ATOM      5  O   UNL     1       2.050   8.260  18.055  0.00  0.00    +0.000 OA
ENDROOT
BRANCH   4   6
ATOM      6  C   UNL     1       3.468   6.223  18.007  0.00  0.00    +0.000 C 
ATOM      7  O   UNL     1       4.630   6.507  17.708  0.00  0.00    +0.000 OA
ATOM      8  N   UNL     1       2.964   4.967  17.672  0.00  0.00    +0.000 N 
ATOM      9  C   UNL     1       1.576   4.502  17.742  0.00  0.00    +0.000 C 
ATOM     10  C   UNL     1       1.516   3.155  18.470  0.00  0.00    +0.000 C 
ATOM     11  O   UNL     1       2.370   2.188  17.837  0.00  0.00    +0.000 OA
ATOM     12  C   UNL     1       3.736   2.642  17.813  0.00  0.00    +0.000 C 
ATOM     13  C   UNL     1       3.860   3.974  17.070  0.00  0.00    +0.000 C 
ENDBRANCH   4   6
BRANCH   1  14
ATOM     14  C   UNL     1       0.685  10.222  18.534  0.00  0.00    +0.000 C 
BRANCH  14  18
ATOM     15  C   UNL     1       3.540  14.132  18.369  0.00  0.00    +0.000 C 
ATOM     16  C   UNL     1       2.567  13.161  18.925  0.00  0.00    +0.000 A 
ATOM     17  N   UNL     1       2.254  12.047  18.250  0.00  0.00    +0.000 NA
ATOM     18  N   UNL     1       1.364  11.407  19.048  0.00  0.00    +0.000 N 
ATOM     19  C   UNL     1       1.099  12.088  20.217  0.00  0.00    +0.000 A 
ATOM     20  C   UNL     1       0.163  11.619  21.266  0.00  0.00    +0.000 C 
ATOM     21  C   UNL     1       1.857  13.232  20.136  0.00  0.00    +0.000 A 
ATOM     22 BR   UNL     1       1.945  14.642  21.368  0.00  0.00    +0.000 Br
ENDBRANCH  14  18
ENDBRANCH   1  14
TORSDOF 3
ENDMDL
