MODEL 1
REMARK VINA RESULT:      -6.1      0.000      0.000
REMARK  Name = 
REMARK  12 active torsions:
REMARK  status: ('A' for Active; 'I' for Inactive)
REMARK    1  A    between atoms: C_1  and  C_2
REMARK    2  A    between atoms: C_2  and  C_3
REMARK    3  A    between atoms: C_2  and  C_4
REMARK    4  A    between atoms: C_2  and  N_5
REMARK    5  A    between atoms: N_5  and  C_6
REMARK    6  A    between atoms: C_6  and  C_7
REMARK    7  A    between atoms: C_7  and  O_8
REMARK    8  A    between atoms: C_7  and  C_9
REMARK    9  A    between atoms: C_9  and  O_10
REMARK   10  A    between atoms: O_10  and  C_11
REMARK   11  A    between atoms: C_14  and  C_15
REMARK   12  A    between atoms: C_15  and  O_16
REMARK                            x       y       z     vdW  Elec       q    Type
REMARK                         _______ _______ _______ _____ _____    ______ ____
ROOT
ATOM      1  C   UNL     1       6.634   5.336  19.343  0.00  0.00    +0.000 C 
ENDROOT
BRANCH   1   2
ATOM      2  C   UNL     1       7.761   5.889  18.453  0.00  0.00    +0.000 C 
BRANCH   2   3
ATOM      3  O   UNL     1       8.441   6.954  19.134  0.00  0.00    +0.000 OA
ATOM      4  H   UNL     1       8.089   7.784  18.758  0.00  0.00    +0.000 HD
ENDBRANCH   2   3
BRANCH   2   5
ATOM      5  C   UNL     1       7.179   6.409  17.121  0.00  0.00    +0.000 C 
BRANCH   5   6
ATOM      6  N   UNL     1       7.553   5.548  15.993  0.00  0.00    +0.000 NA
ATOM      7  H   UNL     1       8.181   6.079  15.384  0.00  0.00    +0.000 HD
BRANCH   6   9
ATOM      8  C   UNL     1       5.914   3.663  15.787  0.00  0.00    +0.000 C 
ATOM      9  C   UNL     1       6.424   4.999  15.218  0.00  0.00    +0.000 C 
ATOM     10  C   UNL     1       6.804   4.826  13.737  0.00  0.00    +0.000 C 
ATOM     11  C   UNL     1       5.279   6.027  15.304  0.00  0.00    +0.000 C 
ENDBRANCH   6   9
ENDBRANCH   5   6
ENDBRANCH   2   5
ENDBRANCH   1   2
BRANCH   1  12
ATOM     12  O   UNL     1       5.374   5.760  18.799  0.00  0.00    +0.000 OA
BRANCH  12  13
ATOM     13  C   UNL     1       4.358   4.845  18.837  0.00  0.00    +0.000 A 
ATOM     14  C   UNL     1       3.129   5.299  18.362  0.00  0.00    +0.000 A 
ATOM     15  C   UNL     1       2.013   4.457  18.352  0.00  0.00    +0.000 A 
ATOM     16  C   UNL     1       2.118   3.133  18.800  0.00  0.00    +0.000 A 
ATOM     17  C   UNL     1       3.362   2.679  19.259  0.00  0.00    +0.000 A 
ATOM     18  C   UNL     1       4.477   3.525  19.270  0.00  0.00    +0.000 A 
BRANCH  16  19
ATOM     19  C   UNL     1       0.897   2.250  18.855  0.00  0.00    +0.000 C 
BRANCH  19  20
ATOM     20  O   UNL     1      -0.116   2.800  19.687  0.00  0.00    +0.000 OA
ATOM     21  H   UNL     1       0.334   3.188  20.457  0.00  0.00    +0.000 HD
ENDBRANCH  19  20
ENDBRANCH  16  19
ENDBRANCH  12  13
ENDBRANCH   1  12
TORSDOF 9
ENDMDL
MODEL 2
REMARK VINA RESULT:      -6.1      2.771      5.518
REMARK  Name = 
REMARK  12 active torsions:
REMARK  status: ('A' for Active; 'I' for Inactive)
REMARK    1  A    between atoms: C_1  and  C_2
REMARK    2  A    between atoms: C_2  and  C_3
REMARK    3  A    between atoms: C_2  and  C_4
REMARK    4  A    between atoms: C_2  and  N_5
REMARK    5  A    between atoms: N_5  and  C_6
REMARK    6  A    between atoms: C_6  and  C_7
REMARK    7  A    between atoms: C_7  and  O_8
REMARK    8  A    between atoms: C_7  and  C_9
REMARK    9  A    between atoms: C_9  and  O_10
REMARK   10  A    between atoms: O_10  and  C_11
REMARK   11  A    between atoms: C_14  and  C_15
REMARK   12  A    between atoms: C_15  and  O_16
REMARK                            x       y       z     vdW  Elec       q    Type
REMARK                         _______ _______ _______ _____ _____    ______ ____
ROOT
ATOM      1  C   UNL     1       6.591   5.990  16.791  0.00  0.00    +0.000 C 
ENDROOT
BRANCH   1   2
ATOM      2  C   UNL     1       7.057   5.388  18.129  0.00  0.00    +0.000 C 
BRANCH   2   3
ATOM      3  O   UNL     1       7.902   4.254  17.884  0.00  0.00    +0.000 OA
ATOM      4  H   UNL     1       7.382   3.469  18.141  0.00  0.00    +0.000 HD
ENDBRANCH   2   3
BRANCH   2   5
ATOM      5  C   UNL     1       5.837   4.957  18.971  0.00  0.00    +0.000 C 
BRANCH   5   6
ATOM      6  N   UNL     1       5.402   3.595  18.637  0.00  0.00    +0.000 NA
ATOM      7  H   UNL     1       5.830   3.338  17.744  0.00  0.00    +0.000 HD
BRANCH   6   9
ATOM      8  C   UNL     1       3.281   3.537  19.970  0.00  0.00    +0.000 C 
ATOM      9  C   UNL     1       3.941   3.396  18.587  0.00  0.00    +0.000 C 
ATOM     10  C   UNL     1       3.592   2.026  17.978  0.00  0.00    +0.000 C 
ATOM     11  C   UNL     1       3.369   4.491  17.667  0.00  0.00    +0.000 C 
ENDBRANCH   6   9
ENDBRANCH   5   6
ENDBRANCH   2   5
ENDBRANCH   1   2
BRANCH   1  12
ATOM     12  O   UNL     1       7.551   5.649  15.779  0.00  0.00    +0.000 OA
BRANCH  12  13
ATOM     13  C   UNL     1       7.072   4.967  14.694  0.00  0.00    +0.000 A 
ATOM     14  C   UNL     1       5.862   4.304  14.892  0.00  0.00    +0.000 A 
ATOM     15  C   UNL     1       5.273   3.571  13.857  0.00  0.00    +0.000 A 
ATOM     16  C   UNL     1       5.880   3.510  12.595  0.00  0.00    +0.000 A 
ATOM     17  C   UNL     1       7.088   4.194  12.400  0.00  0.00    +0.000 A 
ATOM     18  C   UNL     1       7.676   4.925  13.437  0.00  0.00    +0.000 A 
BRANCH  16  19
ATOM     19  C   UNL     1       5.279   2.661  11.504  0.00  0.00    +0.000 C 
BRANCH  19  20
ATOM     20  O   UNL     1       3.980   3.109  11.141  0.00  0.00    +0.000 OA
ATOM     21  H   UNL     1       3.609   2.439  10.542  0.00  0.00    +0.000 HD
ENDBRANCH  19  20
ENDBRANCH  16  19
ENDBRANCH  12  13
ENDBRANCH   1  12
TORSDOF 9
ENDMDL
MODEL 3
REMARK VINA RESULT:      -6.0      2.800      5.541
REMARK  Name = 
REMARK  12 active torsions:
REMARK  status: ('A' for Active; 'I' for Inactive)
REMARK    1  A    between atoms: C_1  and  C_2
REMARK    2  A    between atoms: C_2  and  C_3
REMARK    3  A    between atoms: C_2  and  C_4
REMARK    4  A    between atoms: C_2  and  N_5
REMARK    5  A    between atoms: N_5  and  C_6
REMARK    6  A    between atoms: C_6  and  C_7
REMARK    7  A    between atoms: C_7  and  O_8
REMARK    8  A    between atoms: C_7  and  C_9
REMARK    9  A    between atoms: C_9  and  O_10
REMARK   10  A    between atoms: O_10  and  C_11
REMARK   11  A    between atoms: C_14  and  C_15
REMARK   12  A    between atoms: C_15  and  O_16
REMARK                            x       y       z     vdW  Elec       q    Type
REMARK                         _______ _______ _______ _____ _____    ______ ____
ROOT
ATOM      1  C   UNL     1       6.881   6.015  16.664  0.00  0.00    +0.000 C 
ENDROOT
BRANCH   1   2
ATOM      2  C   UNL     1       7.517   5.358  17.902  0.00  0.00    +0.000 C 
BRANCH   2   3
ATOM      3  O   UNL     1       8.130   4.114  17.532  0.00  0.00    +0.000 OA
ATOM      4  H   UNL     1       9.090   4.286  17.495  0.00  0.00    +0.000 HD
ENDBRANCH   2   3
BRANCH   2   5
ATOM      5  C   UNL     1       6.442   5.108  18.982  0.00  0.00    +0.000 C 
BRANCH   5   6
ATOM      6  N   UNL     1       5.766   3.820  18.786  0.00  0.00    +0.000 NA
ATOM      7  H   UNL     1       6.017   3.470  17.857  0.00  0.00    +0.000 HD
BRANCH   6   9
ATOM      8  C   UNL     1       3.799   2.772  19.931  0.00  0.00    +0.000 C 
ATOM      9  C   UNL     1       4.300   3.846  18.950  0.00  0.00    +0.000 C 
ATOM     10  C   UNL     1       3.590   3.689  17.594  0.00  0.00    +0.000 C 
ATOM     11  C   UNL     1       3.937   5.229  19.526  0.00  0.00    +0.000 C 
ENDBRANCH   6   9
ENDBRANCH   5   6
ENDBRANCH   2   5
ENDBRANCH   1   2
BRANCH   1  12
ATOM     12  O   UNL     1       7.645   5.640  15.507  0.00  0.00    +0.000 OA
BRANCH  12  13
ATOM     13  C   UNL     1       6.982   4.925  14.548  0.00  0.00    +0.000 A 
ATOM     14  C   UNL     1       7.628   4.838  13.316  0.00  0.00    +0.000 A 
ATOM     15  C   UNL     1       7.049   4.135  12.255  0.00  0.00    +0.000 A 
ATOM     16  C   UNL     1       5.817   3.487  12.421  0.00  0.00    +0.000 A 
ATOM     17  C   UNL     1       5.182   3.565  13.668  0.00  0.00    +0.000 A 
ATOM     18  C   UNL     1       5.764   4.271  14.727  0.00  0.00    +0.000 A 
BRANCH  16  19
ATOM     19  C   UNL     1       5.162   2.791  11.255  0.00  0.00    +0.000 C 
BRANCH  19  20
ATOM     20  O   UNL     1       3.752   2.969  11.257  0.00  0.00    +0.000 OA
ATOM     21  H   UNL     1       3.545   3.578  10.528  0.00  0.00    +0.000 HD
ENDBRANCH  19  20
ENDBRANCH  16  19
ENDBRANCH  12  13
ENDBRANCH   1  12
TORSDOF 9
ENDMDL
MODEL 4
REMARK VINA RESULT:      -6.0      0.607      1.231
REMARK  Name = 
REMARK  12 active torsions:
REMARK  status: ('A' for Active; 'I' for Inactive)
REMARK    1  A    between atoms: C_1  and  C_2
REMARK    2  A    between atoms: C_2  and  C_3
REMARK    3  A    between atoms: C_2  and  C_4
REMARK    4  A    between atoms: C_2  and  N_5
REMARK    5  A    between atoms: N_5  and  C_6
REMARK    6  A    between atoms: C_6  and  C_7
REMARK    7  A    between atoms: C_7  and  O_8
REMARK    8  A    between atoms: C_7  and  C_9
REMARK    9  A    between atoms: C_9  and  O_10
REMARK   10  A    between atoms: O_10  and  C_11
REMARK   11  A    between atoms: C_14  and  C_15
REMARK   12  A    between atoms: C_15  and  O_16
REMARK                            x       y       z     vdW  Elec       q    Type
REMARK                         _______ _______ _______ _____ _____    ______ ____
ROOT
ATOM      1  C   UNL     1       6.493   5.432  19.451  0.00  0.00    +0.000 C 
ENDROOT
BRANCH   1   2
ATOM      2  C   UNL     1       7.644   5.652  18.452  0.00  0.00    +0.000 C 
BRANCH   2   3
ATOM      3  O   UNL     1       7.509   6.938  17.830  0.00  0.00    +0.000 OA
ATOM      4  H   UNL     1       8.006   7.564  18.392  0.00  0.00    +0.000 HD
ENDBRANCH   2   3
BRANCH   2   5
ATOM      5  C   UNL     1       7.629   4.547  17.374  0.00  0.00    +0.000 C 
BRANCH   5   6
ATOM      6  N   UNL     1       7.534   5.111  16.022  0.00  0.00    +0.000 NA
ATOM      7  H   UNL     1       7.680   6.121  16.090  0.00  0.00    +0.000 HD
BRANCH   6   9
ATOM      8  C   UNL     1       5.309   6.014  15.304  0.00  0.00    +0.000 C 
ATOM      9  C   UNL     1       6.278   4.818  15.305  0.00  0.00    +0.000 C 
ATOM     10  C   UNL     1       5.581   3.580  15.896  0.00  0.00    +0.000 C 
ATOM     11  C   UNL     1       6.657   4.505  13.844  0.00  0.00    +0.000 C 
ENDBRANCH   6   9
ENDBRANCH   5   6
ENDBRANCH   2   5
ENDBRANCH   1   2
BRANCH   1  12
ATOM     12  O   UNL     1       5.268   5.861  18.836  0.00  0.00    +0.000 OA
BRANCH  12  13
ATOM     13  C   UNL     1       4.241   4.957  18.832  0.00  0.00    +0.000 A 
ATOM     14  C   UNL     1       3.085   5.371  18.175  0.00  0.00    +0.000 A 
ATOM     15  C   UNL     1       1.965   4.536  18.106  0.00  0.00    +0.000 A 
ATOM     16  C   UNL     1       1.997   3.256  18.679  0.00  0.00    +0.000 A 
ATOM     17  C   UNL     1       3.171   2.842  19.323  0.00  0.00    +0.000 A 
ATOM     18  C   UNL     1       4.288   3.681  19.392  0.00  0.00    +0.000 A 
BRANCH  16  19
ATOM     19  C   UNL     1       0.766   2.387  18.665  0.00  0.00    +0.000 C 
BRANCH  19  20
ATOM     20  O   UNL     1      -0.089   2.663  19.767  0.00  0.00    +0.000 OA
ATOM     21  H   UNL     1      -0.360   1.805  20.134  0.00  0.00    +0.000 HD
ENDBRANCH  19  20
ENDBRANCH  16  19
ENDBRANCH  12  13
ENDBRANCH   1  12
TORSDOF 9
ENDMDL
MODEL 5
REMARK VINA RESULT:      -6.0      0.512      1.131
REMARK  Name = 
REMARK  12 active torsions:
REMARK  status: ('A' for Active; 'I' for Inactive)
REMARK    1  A    between atoms: C_1  and  C_2
REMARK    2  A    between atoms: C_2  and  C_3
REMARK    3  A    between atoms: C_2  and  C_4
REMARK    4  A    between atoms: C_2  and  N_5
REMARK    5  A    between atoms: N_5  and  C_6
REMARK    6  A    between atoms: C_6  and  C_7
REMARK    7  A    between atoms: C_7  and  O_8
REMARK    8  A    between atoms: C_7  and  C_9
REMARK    9  A    between atoms: C_9  and  O_10
REMARK   10  A    between atoms: O_10  and  C_11
REMARK   11  A    between atoms: C_14  and  C_15
REMARK   12  A    between atoms: C_15  and  O_16
REMARK                            x       y       z     vdW  Elec       q    Type
REMARK                         _______ _______ _______ _____ _____    ______ ____
ROOT
ATOM      1  C   UNL     1       6.522   5.363  19.497  0.00  0.00    +0.000 C 
ENDROOT
BRANCH   1   2
ATOM      2  C   UNL     1       7.779   5.500  18.619  0.00  0.00    +0.000 C 
BRANCH   2   3
ATOM      3  O   UNL     1       7.989   6.880  18.283  0.00  0.00    +0.000 OA
ATOM      4  H   UNL     1       7.106   7.249  18.090  0.00  0.00    +0.000 HD
ENDBRANCH   2   3
BRANCH   2   5
ATOM      5  C   UNL     1       7.618   4.668  17.328  0.00  0.00    +0.000 C 
BRANCH   5   6
ATOM      6  N   UNL     1       7.399   5.524  16.155  0.00  0.00    +0.000 NA
ATOM      7  H   UNL     1       7.167   6.463  16.489  0.00  0.00    +0.000 HD
BRANCH   6   9
ATOM      8  C   UNL     1       6.941   4.819  13.795  0.00  0.00    +0.000 C 
ATOM      9  C   UNL     1       6.375   5.044  15.208  0.00  0.00    +0.000 C 
ATOM     10  C   UNL     1       5.183   6.015  15.146  0.00  0.00    +0.000 C 
ATOM     11  C   UNL     1       5.867   3.691  15.743  0.00  0.00    +0.000 C 
ENDBRANCH   6   9
ENDBRANCH   5   6
ENDBRANCH   2   5
ENDBRANCH   1   2
BRANCH   1  12
ATOM     12  O   UNL     1       5.374   5.709  18.706  0.00  0.00    +0.000 OA
BRANCH  12  13
ATOM     13  C   UNL     1       4.329   4.826  18.734  0.00  0.00    +0.000 A 
ATOM     14  C   UNL     1       3.134   5.299  18.196  0.00  0.00    +0.000 A 
ATOM     15  C   UNL     1       1.993   4.491  18.170  0.00  0.00    +0.000 A 
ATOM     16  C   UNL     1       2.041   3.180  18.667  0.00  0.00    +0.000 A 
ATOM     17  C   UNL     1       3.251   2.707  19.190  0.00  0.00    +0.000 A 
ATOM     18  C   UNL     1       4.390   3.519  19.216  0.00  0.00    +0.000 A 
BRANCH  16  19
ATOM     19  C   UNL     1       0.792   2.337  18.702  0.00  0.00    +0.000 C 
BRANCH  19  20
ATOM     20  O   UNL     1      -0.111   2.771  19.712  0.00  0.00    +0.000 OA
ATOM     21  H   UNL     1       0.073   3.713  19.866  0.00  0.00    +0.000 HD
ENDBRANCH  19  20
ENDBRANCH  16  19
ENDBRANCH  12  13
ENDBRANCH   1  12
TORSDOF 9
ENDMDL
MODEL 6
REMARK VINA RESULT:      -6.0      2.273      2.901
REMARK  Name = 
REMARK  12 active torsions:
REMARK  status: ('A' for Active; 'I' for Inactive)
REMARK    1  A    between atoms: C_1  and  C_2
REMARK    2  A    between atoms: C_2  and  C_3
REMARK    3  A    between atoms: C_2  and  C_4
REMARK    4  A    between atoms: C_2  and  N_5
REMARK    5  A    between atoms: N_5  and  C_6
REMARK    6  A    between atoms: C_6  and  C_7
REMARK    7  A    between atoms: C_7  and  O_8
REMARK    8  A    between atoms: C_7  and  C_9
REMARK    9  A    between atoms: C_9  and  O_10
REMARK   10  A    between atoms: O_10  and  C_11
REMARK   11  A    between atoms: C_14  and  C_15
REMARK   12  A    between atoms: C_15  and  O_16
REMARK                            x       y       z     vdW  Elec       q    Type
REMARK                         _______ _______ _______ _____ _____    ______ ____
ROOT
ATOM      1  C   UNL     1       6.108   4.276  16.953  0.00  0.00    +0.000 C 
ENDROOT
BRANCH   1   2
ATOM      2  C   UNL     1       6.925   4.612  15.692  0.00  0.00    +0.000 C 
BRANCH   2   3
ATOM      3  O   UNL     1       7.454   5.943  15.795  0.00  0.00    +0.000 OA
ATOM      4  H   UNL     1       7.951   5.972  16.635  0.00  0.00    +0.000 HD
ENDBRANCH   2   3
BRANCH   2   5
ATOM      5  C   UNL     1       6.033   4.502  14.437  0.00  0.00    +0.000 C 
BRANCH   5   6
ATOM      6  N   UNL     1       6.236   3.227  13.738  0.00  0.00    +0.000 NA
ATOM      7  H   UNL     1       7.113   2.820  14.072  0.00  0.00    +0.000 HD
BRANCH   6   9
ATOM      8  C   UNL     1       6.669   1.991  11.601  0.00  0.00    +0.000 C 
ATOM      9  C   UNL     1       6.233   3.309  12.264  0.00  0.00    +0.000 C 
ATOM     10  C   UNL     1       7.126   4.463  11.775  0.00  0.00    +0.000 C 
ATOM     11  C   UNL     1       4.783   3.607  11.834  0.00  0.00    +0.000 C 
ENDBRANCH   6   9
ENDBRANCH   5   6
ENDBRANCH   2   5
ENDBRANCH   1   2
BRANCH   1  12
ATOM     12  O   UNL     1       4.769   3.945  16.553  0.00  0.00    +0.000 OA
BRANCH  12  13
ATOM     13  C   UNL     1       3.876   3.707  17.562  0.00  0.00    +0.000 A 
ATOM     14  C   UNL     1       4.047   4.485  18.705  0.00  0.00    +0.000 A 
ATOM     15  C   UNL     1       3.197   4.333  19.805  0.00  0.00    +0.000 A 
ATOM     16  C   UNL     1       2.144   3.407  19.767  0.00  0.00    +0.000 A 
ATOM     17  C   UNL     1       1.970   2.641  18.606  0.00  0.00    +0.000 A 
ATOM     18  C   UNL     1       2.823   2.795  17.508  0.00  0.00    +0.000 A 
BRANCH  16  19
ATOM     19  C   UNL     1       1.275   3.195  20.980  0.00  0.00    +0.000 C 
BRANCH  19  20
ATOM     20  O   UNL     1       1.969   2.509  22.013  0.00  0.00    +0.000 OA
ATOM     21  H   UNL     1       1.515   2.722  22.846  0.00  0.00    +0.000 HD
ENDBRANCH  19  20
ENDBRANCH  16  19
ENDBRANCH  12  13
ENDBRANCH   1  12
TORSDOF 9
ENDMDL
MODEL 7
REMARK VINA RESULT:      -6.0      0.629      1.591
REMARK  Name = 
REMARK  12 active torsions:
REMARK  status: ('A' for Active; 'I' for Inactive)
REMARK    1  A    between atoms: C_1  and  C_2
REMARK    2  A    between atoms: C_2  and  C_3
REMARK    3  A    between atoms: C_2  and  C_4
REMARK    4  A    between atoms: C_2  and  N_5
REMARK    5  A    between atoms: N_5  and  C_6
REMARK    6  A    between atoms: C_6  and  C_7
REMARK    7  A    between atoms: C_7  and  O_8
REMARK    8  A    between atoms: C_7  and  C_9
REMARK    9  A    between atoms: C_9  and  O_10
REMARK   10  A    between atoms: O_10  and  C_11
REMARK   11  A    between atoms: C_14  and  C_15
REMARK   12  A    between atoms: C_15  and  O_16
REMARK                            x       y       z     vdW  Elec       q    Type
REMARK                         _______ _______ _______ _____ _____    ______ ____
ROOT
ATOM      1  C   UNL     1       6.430   5.415  19.269  0.00  0.00    +0.000 C 
ENDROOT
BRANCH   1   2
ATOM      2  C   UNL     1       7.676   5.804  18.453  0.00  0.00    +0.000 C 
BRANCH   2   3
ATOM      3  O   UNL     1       8.344   6.908  19.081  0.00  0.00    +0.000 OA
ATOM      4  H   UNL     1       8.818   7.379  18.369  0.00  0.00    +0.000 HD
ENDBRANCH   2   3
BRANCH   2   5
ATOM      5  C   UNL     1       7.269   6.191  17.015  0.00  0.00    +0.000 C 
BRANCH   5   6
ATOM      6  N   UNL     1       7.412   5.062  16.088  0.00  0.00    +0.000 NA
ATOM      7  H   UNL     1       8.223   5.244  15.492  0.00  0.00    +0.000 HD
BRANCH   6   9
ATOM      8  C   UNL     1       6.587   4.338  13.835  0.00  0.00    +0.000 C 
ATOM      9  C   UNL     1       6.222   4.767  15.267  0.00  0.00    +0.000 C 
ATOM     10  C   UNL     1       5.267   5.973  15.225  0.00  0.00    +0.000 C 
ATOM     11  C   UNL     1       5.487   3.595  15.946  0.00  0.00    +0.000 C 
ENDBRANCH   6   9
ENDBRANCH   5   6
ENDBRANCH   2   5
ENDBRANCH   1   2
BRANCH   1  12
ATOM     12  O   UNL     1       5.267   5.923  18.596  0.00  0.00    +0.000 OA
BRANCH  12  13
ATOM     13  C   UNL     1       4.115   5.201  18.745  0.00  0.00    +0.000 A 
ATOM     14  C   UNL     1       4.188   4.142  19.648  0.00  0.00    +0.000 A 
ATOM     15  C   UNL     1       3.076   3.328  19.885  0.00  0.00    +0.000 A 
ATOM     16  C   UNL     1       1.860   3.580  19.234  0.00  0.00    +0.000 A 
ATOM     17  C   UNL     1       1.791   4.659  18.341  0.00  0.00    +0.000 A 
ATOM     18  C   UNL     1       2.906   5.469  18.104  0.00  0.00    +0.000 A 
BRANCH  16  19
ATOM     19  C   UNL     1       0.684   2.659  19.438  0.00  0.00    +0.000 C 
BRANCH  19  20
ATOM     20  O   UNL     1       0.399   1.900  18.270  0.00  0.00    +0.000 OA
ATOM     21  H   UNL     1       1.220   1.441  18.026  0.00  0.00    +0.000 HD
ENDBRANCH  19  20
ENDBRANCH  16  19
ENDBRANCH  12  13
ENDBRANCH   1  12
TORSDOF 9
ENDMDL
MODEL 8
REMARK VINA RESULT:      -5.9      1.912      3.260
REMARK  Name = 
REMARK  12 active torsions:
REMARK  status: ('A' for Active; 'I' for Inactive)
REMARK    1  A    between atoms: C_1  and  C_2
REMARK    2  A    between atoms: C_2  and  C_3
REMARK    3  A    between atoms: C_2  and  C_4
REMARK    4  A    between atoms: C_2  and  N_5
REMARK    5  A    between atoms: N_5  and  C_6
REMARK    6  A    between atoms: C_6  and  C_7
REMARK    7  A    between atoms: C_7  and  O_8
REMARK    8  A    between atoms: C_7  and  C_9
REMARK    9  A    between atoms: C_9  and  O_10
REMARK   10  A    between atoms: O_10  and  C_11
REMARK   11  A    between atoms: C_14  and  C_15
REMARK   12  A    between atoms: C_15  and  O_16
REMARK                            x       y       z     vdW  Elec       q    Type
REMARK                         _______ _______ _______ _____ _____    ______ ____
ROOT
ATOM      1  C   UNL     1       4.811   4.162  15.220  0.00  0.00    +0.000 C 
ENDROOT
BRANCH   1   2
ATOM      2  C   UNL     1       6.167   4.566  14.615  0.00  0.00    +0.000 C 
BRANCH   2   3
ATOM      3  O   UNL     1       6.613   3.553  13.701  0.00  0.00    +0.000 OA
ATOM      4  H   UNL     1       7.217   2.977  14.209  0.00  0.00    +0.000 HD
ENDBRANCH   2   3
BRANCH   2   5
ATOM      5  C   UNL     1       7.213   4.754  15.735  0.00  0.00    +0.000 C 
BRANCH   5   6
ATOM      6  N   UNL     1       7.482   6.173  15.994  0.00  0.00    +0.000 NA
ATOM      7  H   UNL     1       8.484   6.334  15.864  0.00  0.00    +0.000 HD
BRANCH   6   9
ATOM      8  C   UNL     1       7.291   5.640  18.435  0.00  0.00    +0.000 C 
ATOM      9  C   UNL     1       7.046   6.666  17.314  0.00  0.00    +0.000 C 
ATOM     10  C   UNL     1       5.561   7.071  17.290  0.00  0.00    +0.000 C 
ATOM     11  C   UNL     1       7.882   7.923  17.623  0.00  0.00    +0.000 C 
ENDBRANCH   6   9
ENDBRANCH   5   6
ENDBRANCH   2   5
ENDBRANCH   1   2
BRANCH   1  12
ATOM     12  O   UNL     1       5.033   3.670  16.551  0.00  0.00    +0.000 OA
BRANCH  12  13
ATOM     13  C   UNL     1       3.940   3.622  17.372  0.00  0.00    +0.000 A 
ATOM     14  C   UNL     1       3.710   2.394  17.987  0.00  0.00    +0.000 A 
ATOM     15  C   UNL     1       2.621   2.220  18.848  0.00  0.00    +0.000 A 
ATOM     16  C   UNL     1       1.755   3.288  19.122  0.00  0.00    +0.000 A 
ATOM     17  C   UNL     1       2.004   4.525  18.512  0.00  0.00    +0.000 A 
ATOM     18  C   UNL     1       3.093   4.695  17.650  0.00  0.00    +0.000 A 
BRANCH  16  19
ATOM     19  C   UNL     1       0.543   3.077  19.993  0.00  0.00    +0.000 C 
BRANCH  19  20
ATOM     20  O   UNL     1       0.901   2.803  21.341  0.00  0.00    +0.000 OA
ATOM     21  H   UNL     1       0.106   2.955  21.879  0.00  0.00    +0.000 HD
ENDBRANCH  19  20
ENDBRANCH  16  19
ENDBRANCH  12  13
ENDBRANCH   1  12
TORSDOF 9
ENDMDL
MODEL 9
REMARK VINA RESULT:      -5.8      1.992      3.281
REMARK  Name = 
REMARK  12 active torsions:
REMARK  status: ('A' for Active; 'I' for Inactive)
REMARK    1  A    between atoms: C_1  and  C_2
REMARK    2  A    between atoms: C_2  and  C_3
REMARK    3  A    between atoms: C_2  and  C_4
REMARK    4  A    between atoms: C_2  and  N_5
REMARK    5  A    between atoms: N_5  and  C_6
REMARK    6  A    between atoms: C_6  and  C_7
REMARK    7  A    between atoms: C_7  and  O_8
REMARK    8  A    between atoms: C_7  and  C_9
REMARK    9  A    between atoms: C_9  and  O_10
REMARK   10  A    between atoms: O_10  and  C_11
REMARK   11  A    between atoms: C_14  and  C_15
REMARK   12  A    between atoms: C_15  and  O_16
REMARK                            x       y       z     vdW  Elec       q    Type
REMARK                         _______ _______ _______ _____ _____    ______ ____
ROOT
ATOM      1  C   UNL     1       4.862   3.715  15.914  0.00  0.00    +0.000 C 
ENDROOT
BRANCH   1   2
ATOM      2  C   UNL     1       6.013   4.416  15.170  0.00  0.00    +0.000 C 
BRANCH   2   3
ATOM      3  O   UNL     1       6.499   3.569  14.118  0.00  0.00    +0.000 OA
ATOM      4  H   UNL     1       7.468   3.527  14.230  0.00  0.00    +0.000 HD
ENDBRANCH   2   3
BRANCH   2   5
ATOM      5  C   UNL     1       7.160   4.741  16.150  0.00  0.00    +0.000 C 
BRANCH   5   6
ATOM      6  N   UNL     1       7.448   6.180  16.191  0.00  0.00    +0.000 NA
ATOM      7  H   UNL     1       8.428   6.313  15.927  0.00  0.00    +0.000 HD
BRANCH   6   9
ATOM      8  C   UNL     1       8.012   8.109  17.687  0.00  0.00    +0.000 C 
ATOM      9  C   UNL     1       7.164   6.842  17.478  0.00  0.00    +0.000 C 
ATOM     10  C   UNL     1       7.371   5.873  18.655  0.00  0.00    +0.000 C 
ATOM     11  C   UNL     1       5.680   7.257  17.452  0.00  0.00    +0.000 C 
ENDBRANCH   6   9
ENDBRANCH   5   6
ENDBRANCH   2   5
ENDBRANCH   1   2
BRANCH   1  12
ATOM     12  O   UNL     1       4.164   4.694  16.699  0.00  0.00    +0.000 OA
BRANCH  12  13
ATOM     13  C   UNL     1       3.382   4.215  17.714  0.00  0.00    +0.000 A 
ATOM     14  C   UNL     1       3.853   4.470  19.000  0.00  0.00    +0.000 A 
ATOM     15  C   UNL     1       3.143   4.027  20.121  0.00  0.00    +0.000 A 
ATOM     16  C   UNL     1       1.932   3.338  19.967  0.00  0.00    +0.000 A 
ATOM     17  C   UNL     1       1.457   3.101  18.670  0.00  0.00    +0.000 A 
ATOM     18  C   UNL     1       2.171   3.543  17.551  0.00  0.00    +0.000 A 
BRANCH  16  19
ATOM     19  C   UNL     1       1.206   2.800  21.174  0.00  0.00    +0.000 C 
BRANCH  19  20
ATOM     20  O   UNL     1       1.960   2.978  22.366  0.00  0.00    +0.000 OA
ATOM     21  H   UNL     1       1.588   2.369  23.027  0.00  0.00    +0.000 HD
ENDBRANCH  19  20
ENDBRANCH  16  19
ENDBRANCH  12  13
ENDBRANCH   1  12
TORSDOF 9
ENDMDL
