MODEL 1
REMARK VINA RESULT:      -7.6      0.000      0.000
REMARK  Name = 
REMARK  2 active torsions:
REMARK  status: ('A' for Active; 'I' for Inactive)
REMARK    1  A    between atoms: C_4  and  C_5
REMARK    2  A    between atoms: C_8  and  C_9
REMARK                            x       y       z     vdW  Elec       q    Type
REMARK                         _______ _______ _______ _____ _____    ______ ____
ROOT
ATOM      1  C   UNL     1       3.678   6.330  17.724  0.00  0.00    +0.000 A 
ATOM      2  C   UNL     1       3.242   5.832  18.969  0.00  0.00    +0.000 A 
ATOM      3  C   UNL     1       2.462   6.615  19.818  0.00  0.00    +0.000 A 
ATOM      4  C   UNL     1       2.074   7.913  19.437  0.00  0.00    +0.000 A 
ATOM      5  C   UNL     1       2.491   8.408  18.196  0.00  0.00    +0.000 A 
ATOM      6  C   UNL     1       3.292   7.634  17.357  0.00  0.00    +0.000 A 
ENDROOT
BRANCH   4   7
ATOM      7  C   UNL     1       1.245   8.759  20.323  0.00  0.00    +0.000 A 
ATOM      8  C   UNL     1       0.543   9.911  19.957  0.00  0.00    +0.000 A 
ATOM      9  N   UNL     1      -0.088  10.319  21.059  0.00  0.00    +0.000 N 
ATOM     10  C   UNL     1       0.207   9.488  22.024  0.00  0.00    +0.000 A 
ATOM     11  N   UNL     1       1.027   8.492  21.642  0.00  0.00    +0.000 NA
ATOM     12  C   UNL     1      -0.449   9.778  23.310  0.00  0.00    +0.000 C 
ATOM     13  C   UNL     1      -1.219  11.087  22.960  0.00  0.00    +0.000 C 
ATOM     14  C   UNL     1      -1.010  11.354  21.444  0.00  0.00    +0.000 C 
ENDBRANCH   4   7
BRANCH   1  18
ATOM     15  C   UNL     1       6.119   3.937  15.099  0.00  0.00    +0.000 A 
ATOM     16  C   UNL     1       6.055   5.319  14.926  0.00  0.00    +0.000 A 
ATOM     17  C   UNL     1       5.244   6.097  15.757  0.00  0.00    +0.000 A 
ATOM     18  C   UNL     1       4.512   5.500  16.803  0.00  0.00    +0.000 A 
ATOM     19  C   UNL     1       4.593   4.101  16.967  0.00  0.00    +0.000 A 
ATOM     20  C   UNL     1       5.383   3.327  16.114  0.00  0.00    +0.000 A 
ENDBRANCH   1  18
TORSDOF 2
ENDMDL
MODEL 2
REMARK VINA RESULT:      -7.6      2.147      8.329
REMARK  Name = 
REMARK  2 active torsions:
REMARK  status: ('A' for Active; 'I' for Inactive)
REMARK    1  A    between atoms: C_4  and  C_5
REMARK    2  A    between atoms: C_8  and  C_9
REMARK                            x       y       z     vdW  Elec       q    Type
REMARK                         _______ _______ _______ _____ _____    ______ ____
ROOT
ATOM      1  C   UNL     1       0.852   9.203  20.216  0.00  0.00    +0.000 A 
ATOM      2  C   UNL     1       1.171   9.501  18.875  0.00  0.00    +0.000 A 
ATOM      3  C   UNL     1       1.995   8.657  18.133  0.00  0.00    +0.000 A 
ATOM      4  C   UNL     1       2.506   7.476  18.702  0.00  0.00    +0.000 A 
ATOM      5  C   UNL     1       2.180   7.166  20.028  0.00  0.00    +0.000 A 
ATOM      6  C   UNL     1       1.376   8.023  20.778  0.00  0.00    +0.000 A 
ENDROOT
BRANCH   4   7
ATOM      7  C   UNL     1       3.380   6.566  17.931  0.00  0.00    +0.000 A 
ATOM      8  C   UNL     1       3.392   5.169  17.992  0.00  0.00    +0.000 A 
ATOM      9  N   UNL     1       4.305   4.772  17.105  0.00  0.00    +0.000 N 
ATOM     10  C   UNL     1       4.817   5.838  16.548  0.00  0.00    +0.000 A 
ATOM     11  N   UNL     1       4.290   6.988  17.006  0.00  0.00    +0.000 NA
ATOM     12  C   UNL     1       5.821   5.568  15.506  0.00  0.00    +0.000 C 
ATOM     13  C   UNL     1       5.897   4.013  15.566  0.00  0.00    +0.000 C 
ATOM     14  C   UNL     1       4.820   3.537  16.580  0.00  0.00    +0.000 C 
ENDBRANCH   4   7
BRANCH   1  18
ATOM     15  C   UNL     1      -1.664  11.814  22.547  0.00  0.00    +0.000 A 
ATOM     16  C   UNL     1      -1.065  10.703  23.143  0.00  0.00    +0.000 A 
ATOM     17  C   UNL     1      -0.271   9.838  22.386  0.00  0.00    +0.000 A 
ATOM     18  C   UNL     1      -0.033  10.098  21.021  0.00  0.00    +0.000 A 
ATOM     19  C   UNL     1      -0.641  11.228  20.436  0.00  0.00    +0.000 A 
ATOM     20  C   UNL     1      -1.457  12.072  21.193  0.00  0.00    +0.000 A 
ENDBRANCH   1  18
TORSDOF 2
ENDMDL
MODEL 3
REMARK VINA RESULT:      -7.6      2.135      8.272
REMARK  Name = 
REMARK  2 active torsions:
REMARK  status: ('A' for Active; 'I' for Inactive)
REMARK    1  A    between atoms: C_4  and  C_5
REMARK    2  A    between atoms: C_8  and  C_9
REMARK                            x       y       z     vdW  Elec       q    Type
REMARK                         _______ _______ _______ _____ _____    ______ ____
ROOT
ATOM      1  C   UNL     1       0.859   9.193  20.203  0.00  0.00    +0.000 A 
ATOM      2  C   UNL     1       1.198   9.526  18.876  0.00  0.00    +0.000 A 
ATOM      3  C   UNL     1       2.028   8.699  18.122  0.00  0.00    +0.000 A 
ATOM      4  C   UNL     1       2.526   7.500  18.664  0.00  0.00    +0.000 A 
ATOM      5  C   UNL     1       2.181   7.155  19.976  0.00  0.00    +0.000 A 
ATOM      6  C   UNL     1       1.370   7.995  20.740  0.00  0.00    +0.000 A 
ENDROOT
BRANCH   4   7
ATOM      7  C   UNL     1       3.405   6.608  17.879  0.00  0.00    +0.000 A 
ATOM      8  C   UNL     1       4.479   6.995  17.070  0.00  0.00    +0.000 A 
ATOM      9  N   UNL     1       5.001   5.865  16.592  0.00  0.00    +0.000 N 
ATOM     10  C   UNL     1       4.303   4.866  17.064  0.00  0.00    +0.000 A 
ATOM     11  N   UNL     1       3.298   5.248  17.873  0.00  0.00    +0.000 NA
ATOM     12  C   UNL     1       4.781   3.533  16.659  0.00  0.00    +0.000 C 
ATOM     13  C   UNL     1       5.962   3.918  15.718  0.00  0.00    +0.000 C 
ATOM     14  C   UNL     1       6.113   5.463  15.773  0.00  0.00    +0.000 C 
ENDBRANCH   4   7
BRANCH   1  18
ATOM     15  C   UNL     1      -1.675  11.751  22.573  0.00  0.00    +0.000 A 
ATOM     16  C   UNL     1      -1.061  10.642  23.155  0.00  0.00    +0.000 A 
ATOM     17  C   UNL     1      -0.260   9.794  22.385  0.00  0.00    +0.000 A 
ATOM     18  C   UNL     1      -0.032  10.070  21.022  0.00  0.00    +0.000 A 
ATOM     19  C   UNL     1      -0.655  11.199  20.451  0.00  0.00    +0.000 A 
ATOM     20  C   UNL     1      -1.478  12.025  21.220  0.00  0.00    +0.000 A 
ENDBRANCH   1  18
TORSDOF 2
ENDMDL
MODEL 4
REMARK VINA RESULT:      -7.5      2.142      8.211
REMARK  Name = 
REMARK  2 active torsions:
REMARK  status: ('A' for Active; 'I' for Inactive)
REMARK    1  A    between atoms: C_4  and  C_5
REMARK    2  A    between atoms: C_8  and  C_9
REMARK                            x       y       z     vdW  Elec       q    Type
REMARK                         _______ _______ _______ _____ _____    ______ ____
ROOT
ATOM      1  C   UNL     1       0.895   9.192  20.188  0.00  0.00    +0.000 A 
ATOM      2  C   UNL     1       1.212   9.517  18.854  0.00  0.00    +0.000 A 
ATOM      3  C   UNL     1       2.029   8.685  18.091  0.00  0.00    +0.000 A 
ATOM      4  C   UNL     1       2.535   7.489  18.631  0.00  0.00    +0.000 A 
ATOM      5  C   UNL     1       2.211   7.152  19.951  0.00  0.00    +0.000 A 
ATOM      6  C   UNL     1       1.414   7.997  20.723  0.00  0.00    +0.000 A 
ENDROOT
BRANCH   4   7
ATOM      7  C   UNL     1       3.401   6.592  17.838  0.00  0.00    +0.000 A 
ATOM      8  C   UNL     1       4.423   6.976  16.963  0.00  0.00    +0.000 A 
ATOM      9  N   UNL     1       4.954   5.844  16.502  0.00  0.00    +0.000 N 
ATOM     10  C   UNL     1       4.308   4.845  17.044  0.00  0.00    +0.000 A 
ATOM     11  N   UNL     1       3.333   5.231  17.887  0.00  0.00    +0.000 NA
ATOM     12  C   UNL     1       4.804   3.511  16.665  0.00  0.00    +0.000 C 
ATOM     13  C   UNL     1       5.928   3.891  15.654  0.00  0.00    +0.000 C 
ATOM     14  C   UNL     1       6.036   5.441  15.645  0.00  0.00    +0.000 C 
ENDBRANCH   4   7
BRANCH   1  18
ATOM     15  C   UNL     1      -1.671  11.706  22.571  0.00  0.00    +0.000 A 
ATOM     16  C   UNL     1      -1.482  11.983  21.217  0.00  0.00    +0.000 A 
ATOM     17  C   UNL     1      -0.630  11.188  20.446  0.00  0.00    +0.000 A 
ATOM     18  C   UNL     1       0.018  10.074  21.016  0.00  0.00    +0.000 A 
ATOM     19  C   UNL     1      -0.188   9.804  22.386  0.00  0.00    +0.000 A 
ATOM     20  C   UNL     1      -1.019  10.622  23.156  0.00  0.00    +0.000 A 
ENDBRANCH   1  18
TORSDOF 2
ENDMDL
MODEL 5
REMARK VINA RESULT:      -7.5      0.889      1.034
REMARK  Name = 
REMARK  2 active torsions:
REMARK  status: ('A' for Active; 'I' for Inactive)
REMARK    1  A    between atoms: C_4  and  C_5
REMARK    2  A    between atoms: C_8  and  C_9
REMARK                            x       y       z     vdW  Elec       q    Type
REMARK                         _______ _______ _______ _____ _____    ______ ____
ROOT
ATOM      1  C   UNL     1       3.123   6.904  18.142  0.00  0.00    +0.000 A 
ATOM      2  C   UNL     1       2.685   6.551  19.435  0.00  0.00    +0.000 A 
ATOM      3  C   UNL     1       1.873   7.409  20.173  0.00  0.00    +0.000 A 
ATOM      4  C   UNL     1       1.455   8.639  19.633  0.00  0.00    +0.000 A 
ATOM      5  C   UNL     1       1.874   8.990  18.344  0.00  0.00    +0.000 A 
ATOM      6  C   UNL     1       2.707   8.142  17.614  0.00  0.00    +0.000 A 
ENDROOT
BRANCH   4   7
ATOM      7  C   UNL     1       0.592   9.563  20.399  0.00  0.00    +0.000 A 
ATOM      8  C   UNL     1      -0.102  10.668  19.896  0.00  0.00    +0.000 A 
ATOM      9  N   UNL     1      -0.772  11.179  20.929  0.00  0.00    +0.000 N 
ATOM     10  C   UNL     1      -0.508  10.452  21.982  0.00  0.00    +0.000 A 
ATOM     11  N   UNL     1       0.329   9.428  21.731  0.00  0.00    +0.000 NA
ATOM     12  C   UNL     1      -1.210  10.864  23.209  0.00  0.00    +0.000 C 
ATOM     13  C   UNL     1      -1.972  12.125  22.702  0.00  0.00    +0.000 C 
ATOM     14  C   UNL     1      -1.711  12.240  21.175  0.00  0.00    +0.000 C 
ENDBRANCH   4   7
BRANCH   1  18
ATOM     15  C   UNL     1       5.658   4.270  15.859  0.00  0.00    +0.000 A 
ATOM     16  C   UNL     1       5.729   5.650  15.666  0.00  0.00    +0.000 A 
ATOM     17  C   UNL     1       4.891   6.507  16.383  0.00  0.00    +0.000 A 
ATOM     18  C   UNL     1       3.991   5.992  17.339  0.00  0.00    +0.000 A 
ATOM     19  C   UNL     1       3.936   4.594  17.525  0.00  0.00    +0.000 A 
ATOM     20  C   UNL     1       4.757   3.743  16.783  0.00  0.00    +0.000 A 
ENDBRANCH   1  18
TORSDOF 2
ENDMDL
MODEL 6
REMARK VINA RESULT:      -7.5      0.646      1.257
REMARK  Name = 
REMARK  2 active torsions:
REMARK  status: ('A' for Active; 'I' for Inactive)
REMARK    1  A    between atoms: C_4  and  C_5
REMARK    2  A    between atoms: C_8  and  C_9
REMARK                            x       y       z     vdW  Elec       q    Type
REMARK                         _______ _______ _______ _____ _____    ______ ____
ROOT
ATOM      1  C   UNL     1       3.329   6.721  17.939  0.00  0.00    +0.000 A 
ATOM      2  C   UNL     1       2.925   7.983  17.459  0.00  0.00    +0.000 A 
ATOM      3  C   UNL     1       2.119   8.817  18.231  0.00  0.00    +0.000 A 
ATOM      4  C   UNL     1       1.711   8.424  19.519  0.00  0.00    +0.000 A 
ATOM      5  C   UNL     1       2.122   7.179  20.009  0.00  0.00    +0.000 A 
ATOM      6  C   UNL     1       2.908   6.333  19.226  0.00  0.00    +0.000 A 
ENDROOT
BRANCH   4   7
ATOM      7  C   UNL     1       0.858   9.295  20.355  0.00  0.00    +0.000 A 
ATOM      8  C   UNL     1       0.197  10.458  19.946  0.00  0.00    +0.000 A 
ATOM      9  N   UNL     1      -0.477  10.890  21.012  0.00  0.00    +0.000 N 
ATOM     10  C   UNL     1      -0.246  10.063  21.997  0.00  0.00    +0.000 A 
ATOM     11  N   UNL     1       0.570   9.046  21.665  0.00  0.00    +0.000 NA
ATOM     12  C   UNL     1      -0.957  10.379  23.247  0.00  0.00    +0.000 C 
ATOM     13  C   UNL     1      -1.682  11.699  22.848  0.00  0.00    +0.000 C 
ATOM     14  C   UNL     1      -1.395  11.946  21.341  0.00  0.00    +0.000 C 
ENDBRANCH   4   7
BRANCH   1  18
ATOM     15  C   UNL     1       5.862   4.119  15.618  0.00  0.00    +0.000 A 
ATOM     16  C   UNL     1       5.882   5.496  15.395  0.00  0.00    +0.000 A 
ATOM     17  C   UNL     1       5.044   6.341  16.126  0.00  0.00    +0.000 A 
ATOM     18  C   UNL     1       4.196   5.819  17.123  0.00  0.00    +0.000 A 
ATOM     19  C   UNL     1       4.191   4.425  17.339  0.00  0.00    +0.000 A 
ATOM     20  C   UNL     1       5.011   3.583  16.584  0.00  0.00    +0.000 A 
ENDBRANCH   1  18
TORSDOF 2
ENDMDL
MODEL 7
REMARK VINA RESULT:      -7.5      2.110      8.283
REMARK  Name = 
REMARK  2 active torsions:
REMARK  status: ('A' for Active; 'I' for Inactive)
REMARK    1  A    between atoms: C_4  and  C_5
REMARK    2  A    between atoms: C_8  and  C_9
REMARK                            x       y       z     vdW  Elec       q    Type
REMARK                         _______ _______ _______ _____ _____    ______ ____
ROOT
ATOM      1  C   UNL     1       0.711   9.423  20.199  0.00  0.00    +0.000 A 
ATOM      2  C   UNL     1       1.005   9.653  18.839  0.00  0.00    +0.000 A 
ATOM      3  C   UNL     1       1.832   8.785  18.130  0.00  0.00    +0.000 A 
ATOM      4  C   UNL     1       2.373   7.646  18.752  0.00  0.00    +0.000 A 
ATOM      5  C   UNL     1       2.074   7.402  20.098  0.00  0.00    +0.000 A 
ATOM      6  C   UNL     1       1.266   8.284  20.815  0.00  0.00    +0.000 A 
ENDROOT
BRANCH   4   7
ATOM      7  C   UNL     1       3.251   6.711  18.016  0.00  0.00    +0.000 A 
ATOM      8  C   UNL     1       3.195   5.314  18.046  0.00  0.00    +0.000 A 
ATOM      9  N   UNL     1       4.143   4.892  17.209  0.00  0.00    +0.000 N 
ATOM     10  C   UNL     1       4.737   5.944  16.710  0.00  0.00    +0.000 A 
ATOM     11  N   UNL     1       4.236   7.108  17.160  0.00  0.00    +0.000 NA
ATOM     12  C   UNL     1       5.792   5.647  15.726  0.00  0.00    +0.000 C 
ATOM     13  C   UNL     1       5.792   4.089  15.755  0.00  0.00    +0.000 C 
ATOM     14  C   UNL     1       4.633   3.644  16.688  0.00  0.00    +0.000 C 
ENDBRANCH   4   7
BRANCH   1  18
ATOM     15  C   UNL     1      -1.885  12.050  22.420  0.00  0.00    +0.000 A 
ATOM     16  C   UNL     1      -1.717  12.230  21.047  0.00  0.00    +0.000 A 
ATOM     17  C   UNL     1      -0.855  11.399  20.327  0.00  0.00    +0.000 A 
ATOM     18  C   UNL     1      -0.176  10.344  20.970  0.00  0.00    +0.000 A 
ATOM     19  C   UNL     1      -0.362  10.172  22.358  0.00  0.00    +0.000 A 
ATOM     20  C   UNL     1      -1.203  11.026  23.076  0.00  0.00    +0.000 A 
ENDBRANCH   1  18
TORSDOF 2
ENDMDL
MODEL 8
REMARK VINA RESULT:      -7.5      2.107      8.215
REMARK  Name = 
REMARK  2 active torsions:
REMARK  status: ('A' for Active; 'I' for Inactive)
REMARK    1  A    between atoms: C_4  and  C_5
REMARK    2  A    between atoms: C_8  and  C_9
REMARK                            x       y       z     vdW  Elec       q    Type
REMARK                         _______ _______ _______ _____ _____    ______ ____
ROOT
ATOM      1  C   UNL     1       0.707   9.375  20.254  0.00  0.00    +0.000 A 
ATOM      2  C   UNL     1       1.236   8.223  20.871  0.00  0.00    +0.000 A 
ATOM      3  C   UNL     1       2.057   7.347  20.163  0.00  0.00    +0.000 A 
ATOM      4  C   UNL     1       2.394   7.608  18.823  0.00  0.00    +0.000 A 
ATOM      5  C   UNL     1       1.885   8.759  18.209  0.00  0.00    +0.000 A 
ATOM      6  C   UNL     1       1.043   9.623  18.909  0.00  0.00    +0.000 A 
ENDROOT
BRANCH   4   7
ATOM      7  C   UNL     1       3.266   6.693  18.056  0.00  0.00    +0.000 A 
ATOM      8  C   UNL     1       3.264   5.295  18.113  0.00  0.00    +0.000 A 
ATOM      9  N   UNL     1       4.181   4.893  17.233  0.00  0.00    +0.000 N 
ATOM     10  C   UNL     1       4.707   5.956  16.683  0.00  0.00    +0.000 A 
ATOM     11  N   UNL     1       4.187   7.109  17.141  0.00  0.00    +0.000 NA
ATOM     12  C   UNL     1       5.717   5.679  15.649  0.00  0.00    +0.000 C 
ATOM     13  C   UNL     1       5.778   4.123  15.705  0.00  0.00    +0.000 C 
ATOM     14  C   UNL     1       4.688   3.654  16.708  0.00  0.00    +0.000 C 
ENDBRANCH   4   7
BRANCH   1  18
ATOM     15  C   UNL     1      -1.865  12.082  22.406  0.00  0.00    +0.000 A 
ATOM     16  C   UNL     1      -1.654  12.257  21.038  0.00  0.00    +0.000 A 
ATOM     17  C   UNL     1      -0.800  11.399  20.341  0.00  0.00    +0.000 A 
ATOM     18  C   UNL     1      -0.172  10.324  21.001  0.00  0.00    +0.000 A 
ATOM     19  C   UNL     1      -0.401  10.158  22.383  0.00  0.00    +0.000 A 
ATOM     20  C   UNL     1      -1.233  11.038  23.079  0.00  0.00    +0.000 A 
ENDBRANCH   1  18
TORSDOF 2
ENDMDL
MODEL 9
REMARK VINA RESULT:      -7.5      2.212      8.194
REMARK  Name = 
REMARK  2 active torsions:
REMARK  status: ('A' for Active; 'I' for Inactive)
REMARK    1  A    between atoms: C_4  and  C_5
REMARK    2  A    between atoms: C_8  and  C_9
REMARK                            x       y       z     vdW  Elec       q    Type
REMARK                         _______ _______ _______ _____ _____    ______ ____
ROOT
ATOM      1  C   UNL     1       1.071   8.830  20.243  0.00  0.00    +0.000 A 
ATOM      2  C   UNL     1       1.550   7.585  20.700  0.00  0.00    +0.000 A 
ATOM      3  C   UNL     1       2.350   6.785  19.886  0.00  0.00    +0.000 A 
ATOM      4  C   UNL     1       2.717   7.216  18.599  0.00  0.00    +0.000 A 
ATOM      5  C   UNL     1       2.258   8.459  18.144  0.00  0.00    +0.000 A 
ATOM      6  C   UNL     1       1.436   9.248  18.948  0.00  0.00    +0.000 A 
ENDROOT
BRANCH   4   7
ATOM      7  C   UNL     1       3.567   6.384  17.722  0.00  0.00    +0.000 A 
ATOM      8  C   UNL     1       4.545   6.838  16.831  0.00  0.00    +0.000 A 
ATOM      9  N   UNL     1       5.079   5.745  16.285  0.00  0.00    +0.000 N 
ATOM     10  C   UNL     1       4.474   4.704  16.794  0.00  0.00    +0.000 A 
ATOM     11  N   UNL     1       3.527   5.021  17.696  0.00  0.00    +0.000 NA
ATOM     12  C   UNL     1       4.981   3.405  16.321  0.00  0.00    +0.000 C 
ATOM     13  C   UNL     1       6.055   3.865  15.290  0.00  0.00    +0.000 C 
ATOM     14  C   UNL     1       6.133   5.414  15.365  0.00  0.00    +0.000 C 
ENDBRANCH   4   7
BRANCH   1  18
ATOM     15  C   UNL     1      -1.362  11.361  22.742  0.00  0.00    +0.000 A 
ATOM     16  C   UNL     1      -0.847  10.167  23.247  0.00  0.00    +0.000 A 
ATOM     17  C   UNL     1      -0.081   9.329  22.433  0.00  0.00    +0.000 A 
ATOM     18  C   UNL     1       0.214   9.698  21.105  0.00  0.00    +0.000 A 
ATOM     19  C   UNL     1      -0.310  10.911  20.612  0.00  0.00    +0.000 A 
ATOM     20  C   UNL     1      -1.100  11.729  21.423  0.00  0.00    +0.000 A 
ENDBRANCH   1  18
TORSDOF 2
ENDMDL
