MODEL 1
REMARK VINA RESULT:      -7.1      0.000      0.000
REMARK  Name = 
REMARK  6 active torsions:
REMARK  status: ('A' for Active; 'I' for Inactive)
REMARK    1  A    between atoms: C_1  and  C_2
REMARK    2  A    between atoms: C_2  and  C_3
REMARK    3  A    between atoms: C_2  and  C_4
REMARK    4  A    between atoms: N_11  and  C_12
REMARK    5  A    between atoms: N_11  and  C_13
REMARK    6  A    between atoms: C_13  and  C_14
REMARK                            x       y       z     vdW  Elec       q    Type
REMARK                         _______ _______ _______ _____ _____    ______ ____
ROOT
ATOM      1  C   UNL     1       0.525  10.583  21.234  0.00  0.00    +0.000 A 
ATOM      2  N   UNL     1       0.844   9.967  22.349  0.00  0.00    +0.000 NA
ATOM      3  N   UNL     1       1.366   8.712  22.101  0.00  0.00    +0.000 NA
ATOM      4  C   UNL     1       1.473   8.472  20.818  0.00  0.00    +0.000 A 
ATOM      5  N   UNL     1       1.991   7.283  20.371  0.00  0.00    +0.000 N 
ATOM      6  C   UNL     1       2.504   6.996  19.133  0.00  0.00    +0.000 C 
ATOM      7  O   UNL     1       2.526   7.796  18.185  0.00  0.00    +0.000 OA
ATOM      8  N   UNL     1       3.043   5.717  19.005  0.00  0.00    +0.000 N 
ATOM      9  C   UNL     1       3.012   4.710  20.066  0.00  0.00    +0.000 C 
ATOM     10  S   UNL     1       0.830   9.664  19.807  0.00  0.00    +0.000 S 
ATOM     11  H   UNL     1       2.118   6.675  21.146  0.00  0.00    +0.000 HD
ENDROOT
BRANCH   1  13
ATOM     12  C   UNL     1      -0.885  12.135  19.868  0.00  0.00    +0.000 C 
ATOM     13  C   UNL     1      -0.055  11.967  21.140  0.00  0.00    +0.000 C 
ATOM     14  C   UNL     1      -0.913  12.285  22.367  0.00  0.00    +0.000 C 
ENDBRANCH   1  13
BRANCH   8  15
ATOM     15  C   UNL     1       3.527   5.292  17.661  0.00  0.00    +0.000 C 
BRANCH  15  16
ATOM     16  C   UNL     1       5.016   5.006  17.416  0.00  0.00    +0.000 A 
ATOM     17  C   UNL     1       5.402   4.593  16.126  0.00  0.00    +0.000 A 
ATOM     18  C   UNL     1       6.750   4.358  15.833  0.00  0.00    +0.000 A 
ATOM     19  N   UNL     1       7.753   4.519  16.722  0.00  0.00    +0.000 NA
ATOM     20  C   UNL     1       7.390   4.940  17.942  0.00  0.00    +0.000 A 
ATOM     21  C   UNL     1       6.069   5.176  18.332  0.00  0.00    +0.000 A 
ENDBRANCH  15  16
ENDBRANCH   8  15
TORSDOF 3
ENDMDL
MODEL 2
REMARK VINA RESULT:      -6.9      2.616      8.294
REMARK  Name = 
REMARK  6 active torsions:
REMARK  status: ('A' for Active; 'I' for Inactive)
REMARK    1  A    between atoms: C_1  and  C_2
REMARK    2  A    between atoms: C_2  and  C_3
REMARK    3  A    between atoms: C_2  and  C_4
REMARK    4  A    between atoms: N_11  and  C_12
REMARK    5  A    between atoms: N_11  and  C_13
REMARK    6  A    between atoms: C_13  and  C_14
REMARK                            x       y       z     vdW  Elec       q    Type
REMARK                         _______ _______ _______ _____ _____    ______ ____
ROOT
ATOM      1  C   UNL     1       4.842   4.922  17.468  0.00  0.00    +0.000 A 
ATOM      2  N   UNL     1       4.323   4.330  18.519  0.00  0.00    +0.000 NA
ATOM      3  N   UNL     1       3.487   5.183  19.216  0.00  0.00    +0.000 NA
ATOM      4  C   UNL     1       3.370   6.344  18.624  0.00  0.00    +0.000 A 
ATOM      5  N   UNL     1       2.564   7.321  19.154  0.00  0.00    +0.000 N 
ATOM      6  C   UNL     1       2.042   8.420  18.525  0.00  0.00    +0.000 C 
ATOM      7  O   UNL     1       2.278   8.727  17.345  0.00  0.00    +0.000 OA
ATOM      8  N   UNL     1       1.179   9.186  19.306  0.00  0.00    +0.000 N 
ATOM      9  C   UNL     1       0.890   8.908  20.714  0.00  0.00    +0.000 C 
ATOM     10  S   UNL     1       4.354   6.564  17.267  0.00  0.00    +0.000 S 
ATOM     11  H   UNL     1       2.244   7.025  20.046  0.00  0.00    +0.000 HD
ENDROOT
BRANCH   1  13
ATOM     12  C   UNL     1       5.505   4.756  15.060  0.00  0.00    +0.000 C 
ATOM     13  C   UNL     1       5.783   4.281  16.486  0.00  0.00    +0.000 C 
ATOM     14  C   UNL     1       7.240   4.568  16.855  0.00  0.00    +0.000 C 
ENDBRANCH   1  13
BRANCH   8  15
ATOM     15  C   UNL     1       0.651  10.455  18.729  0.00  0.00    +0.000 C 
BRANCH  15  16
ATOM     16  C   UNL     1      -0.833  10.591  18.355  0.00  0.00    +0.000 A 
ATOM     17  C   UNL     1      -1.596  11.557  19.039  0.00  0.00    +0.000 A 
ATOM     18  C   UNL     1      -2.943  11.754  18.712  0.00  0.00    +0.000 A 
ATOM     19  N   UNL     1      -3.590  11.073  17.743  0.00  0.00    +0.000 NA
ATOM     20  C   UNL     1      -2.856  10.173  17.072  0.00  0.00    +0.000 A 
ATOM     21  C   UNL     1      -1.515   9.892  17.343  0.00  0.00    +0.000 A 
ENDBRANCH  15  16
ENDBRANCH   8  15
TORSDOF 3
ENDMDL
MODEL 3
REMARK VINA RESULT:      -6.9      4.572      9.046
REMARK  Name = 
REMARK  6 active torsions:
REMARK  status: ('A' for Active; 'I' for Inactive)
REMARK    1  A    between atoms: C_1  and  C_2
REMARK    2  A    between atoms: C_2  and  C_3
REMARK    3  A    between atoms: C_2  and  C_4
REMARK    4  A    between atoms: N_11  and  C_12
REMARK    5  A    between atoms: N_11  and  C_13
REMARK    6  A    between atoms: C_13  and  C_14
REMARK                            x       y       z     vdW  Elec       q    Type
REMARK                         _______ _______ _______ _____ _____    ______ ____
ROOT
ATOM      1  C   UNL     1       6.757   3.947  12.408  0.00  0.00    +0.000 A 
ATOM      2  N   UNL     1       7.772   4.780  12.353  0.00  0.00    +0.000 NA
ATOM      3  N   UNL     1       7.942   5.446  13.553  0.00  0.00    +0.000 NA
ATOM      4  C   UNL     1       7.094   5.038  14.463  0.00  0.00    +0.000 A 
ATOM      5  N   UNL     1       7.120   5.567  15.729  0.00  0.00    +0.000 N 
ATOM      6  C   UNL     1       6.587   5.041  16.876  0.00  0.00    +0.000 C 
ATOM      7  O   UNL     1       5.932   3.988  16.922  0.00  0.00    +0.000 OA
ATOM      8  N   UNL     1       6.855   5.770  18.033  0.00  0.00    +0.000 N 
ATOM      9  C   UNL     1       7.582   7.040  18.046  0.00  0.00    +0.000 C 
ATOM     10  S   UNL     1       5.936   3.931  13.923  0.00  0.00    +0.000 S 
ATOM     11  H   UNL     1       7.757   6.329  15.746  0.00  0.00    +0.000 HD
ENDROOT
BRANCH   1  13
ATOM     12  C   UNL     1       7.145   1.784  11.211  0.00  0.00    +0.000 C 
ATOM     13  C   UNL     1       6.303   3.058  11.284  0.00  0.00    +0.000 C 
ATOM     14  C   UNL     1       4.824   2.695  11.436  0.00  0.00    +0.000 C 
ENDBRANCH   1  13
BRANCH   8  15
ATOM     15  C   UNL     1       6.223   5.321  19.307  0.00  0.00    +0.000 C 
BRANCH  15  16
ATOM     16  C   UNL     1       4.707   5.086  19.391  0.00  0.00    +0.000 A 
ATOM     17  C   UNL     1       4.262   3.796  19.739  0.00  0.00    +0.000 A 
ATOM     18  C   UNL     1       2.894   3.532  19.872  0.00  0.00    +0.000 A 
ATOM     19  N   UNL     1       1.929   4.460  19.701  0.00  0.00    +0.000 NA
ATOM     20  C   UNL     1       2.353   5.695  19.398  0.00  0.00    +0.000 A 
ATOM     21  C   UNL     1       3.694   6.046  19.222  0.00  0.00    +0.000 A 
ENDBRANCH  15  16
ENDBRANCH   8  15
TORSDOF 3
ENDMDL
MODEL 4
REMARK VINA RESULT:      -6.9      4.542      9.042
REMARK  Name = 
REMARK  6 active torsions:
REMARK  status: ('A' for Active; 'I' for Inactive)
REMARK    1  A    between atoms: C_1  and  C_2
REMARK    2  A    between atoms: C_2  and  C_3
REMARK    3  A    between atoms: C_2  and  C_4
REMARK    4  A    between atoms: N_11  and  C_12
REMARK    5  A    between atoms: N_11  and  C_13
REMARK    6  A    between atoms: C_13  and  C_14
REMARK                            x       y       z     vdW  Elec       q    Type
REMARK                         _______ _______ _______ _____ _____    ______ ____
ROOT
ATOM      1  C   UNL     1       6.738   3.936  12.376  0.00  0.00    +0.000 A 
ATOM      2  N   UNL     1       7.739   4.783  12.307  0.00  0.00    +0.000 NA
ATOM      3  N   UNL     1       7.914   5.456  13.502  0.00  0.00    +0.000 NA
ATOM      4  C   UNL     1       7.083   5.039  14.424  0.00  0.00    +0.000 A 
ATOM      5  N   UNL     1       7.116   5.573  15.687  0.00  0.00    +0.000 N 
ATOM      6  C   UNL     1       6.604   5.044  16.842  0.00  0.00    +0.000 C 
ATOM      7  O   UNL     1       5.966   3.981  16.901  0.00  0.00    +0.000 OA
ATOM      8  N   UNL     1       6.876   5.781  17.994  0.00  0.00    +0.000 N 
ATOM      9  C   UNL     1       7.584   7.062  17.994  0.00  0.00    +0.000 C 
ATOM     10  S   UNL     1       5.935   3.914  13.902  0.00  0.00    +0.000 S 
ATOM     11  H   UNL     1       7.742   6.344  15.695  0.00  0.00    +0.000 HD
ENDROOT
BRANCH   1  13
ATOM     12  C   UNL     1       7.107   1.749  11.217  0.00  0.00    +0.000 C 
ATOM     13  C   UNL     1       6.283   3.036  11.262  0.00  0.00    +0.000 C 
ATOM     14  C   UNL     1       4.797   2.698  11.402  0.00  0.00    +0.000 C 
ENDBRANCH   1  13
BRANCH   8  15
ATOM     15  C   UNL     1       6.266   5.328  19.277  0.00  0.00    +0.000 C 
BRANCH  15  16
ATOM     16  C   UNL     1       4.757   5.057  19.376  0.00  0.00    +0.000 A 
ATOM     17  C   UNL     1       3.878   6.103  19.033  0.00  0.00    +0.000 A 
ATOM     18  C   UNL     1       2.494   5.902  19.065  0.00  0.00    +0.000 A 
ATOM     19  N   UNL     1       1.910   4.731  19.398  0.00  0.00    +0.000 NA
ATOM     20  C   UNL     1       2.746   3.727  19.697  0.00  0.00    +0.000 A 
ATOM     21  C   UNL     1       4.139   3.840  19.715  0.00  0.00    +0.000 A 
ENDBRANCH  15  16
ENDBRANCH   8  15
TORSDOF 3
ENDMDL
MODEL 5
REMARK VINA RESULT:      -6.9      0.770      1.079
REMARK  Name = 
REMARK  6 active torsions:
REMARK  status: ('A' for Active; 'I' for Inactive)
REMARK    1  A    between atoms: C_1  and  C_2
REMARK    2  A    between atoms: C_2  and  C_3
REMARK    3  A    between atoms: C_2  and  C_4
REMARK    4  A    between atoms: N_11  and  C_12
REMARK    5  A    between atoms: N_11  and  C_13
REMARK    6  A    between atoms: C_13  and  C_14
REMARK                            x       y       z     vdW  Elec       q    Type
REMARK                         _______ _______ _______ _____ _____    ______ ____
ROOT
ATOM      1  C   UNL     1       0.483  10.721  21.053  0.00  0.00    +0.000 A 
ATOM      2  N   UNL     1       0.855  10.175  22.188  0.00  0.00    +0.000 NA
ATOM      3  N   UNL     1       1.385   8.913  21.991  0.00  0.00    +0.000 NA
ATOM      4  C   UNL     1       1.446   8.601  20.721  0.00  0.00    +0.000 A 
ATOM      5  N   UNL     1       1.963   7.395  20.322  0.00  0.00    +0.000 N 
ATOM      6  C   UNL     1       2.431   7.044  19.084  0.00  0.00    +0.000 C 
ATOM      7  O   UNL     1       2.405   7.788  18.090  0.00  0.00    +0.000 OA
ATOM      8  N   UNL     1       2.984   5.767  19.008  0.00  0.00    +0.000 N 
ATOM      9  C   UNL     1       3.009   4.822  20.124  0.00  0.00    +0.000 C 
ATOM     10  S   UNL     1       0.746   9.725  19.670  0.00  0.00    +0.000 S 
ATOM     11  H   UNL     1       2.130   6.835  21.125  0.00  0.00    +0.000 HD
ENDROOT
BRANCH   1  13
ATOM     12  C   UNL     1      -0.476  12.690  22.264  0.00  0.00    +0.000 C 
ATOM     13  C   UNL     1      -0.120  12.089  20.904  0.00  0.00    +0.000 C 
ATOM     14  C   UNL     1       0.827  13.028  20.154  0.00  0.00    +0.000 C 
ENDBRANCH   1  13
BRANCH   8  15
ATOM     15  C   UNL     1       3.421   5.270  17.671  0.00  0.00    +0.000 C 
BRANCH  15  16
ATOM     16  C   UNL     1       4.860   5.494  17.182  0.00  0.00    +0.000 A 
ATOM     17  C   UNL     1       5.252   4.863  15.986  0.00  0.00    +0.000 A 
ATOM     18  C   UNL     1       6.537   5.063  15.470  0.00  0.00    +0.000 A 
ATOM     19  N   UNL     1       7.464   5.860  16.044  0.00  0.00    +0.000 NA
ATOM     20  C   UNL     1       7.081   6.484  17.167  0.00  0.00    +0.000 A 
ATOM     21  C   UNL     1       5.830   6.326  17.769  0.00  0.00    +0.000 A 
ENDBRANCH  15  16
ENDBRANCH   8  15
TORSDOF 3
ENDMDL
MODEL 6
REMARK VINA RESULT:      -6.9      0.589      1.410
REMARK  Name = 
REMARK  6 active torsions:
REMARK  status: ('A' for Active; 'I' for Inactive)
REMARK    1  A    between atoms: C_1  and  C_2
REMARK    2  A    between atoms: C_2  and  C_3
REMARK    3  A    between atoms: C_2  and  C_4
REMARK    4  A    between atoms: N_11  and  C_12
REMARK    5  A    between atoms: N_11  and  C_13
REMARK    6  A    between atoms: C_13  and  C_14
REMARK                            x       y       z     vdW  Elec       q    Type
REMARK                         _______ _______ _______ _____ _____    ______ ____
ROOT
ATOM      1  C   UNL     1       0.779  10.621  20.950  0.00  0.00    +0.000 A 
ATOM      2  N   UNL     1       1.050  10.086  22.119  0.00  0.00    +0.000 NA
ATOM      3  N   UNL     1       1.463   8.773  21.988  0.00  0.00    +0.000 NA
ATOM      4  C   UNL     1       1.544   8.409  20.733  0.00  0.00    +0.000 A 
ATOM      5  N   UNL     1       1.958   7.144  20.398  0.00  0.00    +0.000 N 
ATOM      6  C   UNL     1       2.440   6.704  19.194  0.00  0.00    +0.000 C 
ATOM      7  O   UNL     1       2.526   7.409  18.176  0.00  0.00    +0.000 OA
ATOM      8  N   UNL     1       2.869   5.378  19.185  0.00  0.00    +0.000 N 
ATOM      9  C   UNL     1       2.758   4.478  20.334  0.00  0.00    +0.000 C 
ATOM     10  S   UNL     1       1.000   9.554  19.615  0.00  0.00    +0.000 S 
ATOM     11  H   UNL     1       2.037   6.601  21.226  0.00  0.00    +0.000 HD
ENDROOT
BRANCH   1  13
ATOM     12  C   UNL     1       1.497  13.005  20.694  0.00  0.00    +0.000 C 
ATOM     13  C   UNL     1       0.317  12.035  20.729  0.00  0.00    +0.000 C 
ATOM     14  C   UNL     1      -0.490  12.151  19.434  0.00  0.00    +0.000 C 
ENDBRANCH   1  13
BRANCH   8  15
ATOM     15  C   UNL     1       3.310   4.792  17.887  0.00  0.00    +0.000 C 
BRANCH  15  16
ATOM     16  C   UNL     1       4.796   4.772  17.498  0.00  0.00    +0.000 A 
ATOM     17  C   UNL     1       5.739   5.098  18.493  0.00  0.00    +0.000 A 
ATOM     18  C   UNL     1       7.108   5.057  18.209  0.00  0.00    +0.000 A 
ATOM     19  N   UNL     1       7.619   4.700  17.011  0.00  0.00    +0.000 NA
ATOM     20  C   UNL     1       6.723   4.362  16.072  0.00  0.00    +0.000 A 
ATOM     21  C   UNL     1       5.339   4.396  16.257  0.00  0.00    +0.000 A 
ENDBRANCH  15  16
ENDBRANCH   8  15
TORSDOF 3
ENDMDL
MODEL 7
REMARK VINA RESULT:      -6.7      2.690      8.215
REMARK  Name = 
REMARK  6 active torsions:
REMARK  status: ('A' for Active; 'I' for Inactive)
REMARK    1  A    between atoms: C_1  and  C_2
REMARK    2  A    between atoms: C_2  and  C_3
REMARK    3  A    between atoms: C_2  and  C_4
REMARK    4  A    between atoms: N_11  and  C_12
REMARK    5  A    between atoms: N_11  and  C_13
REMARK    6  A    between atoms: C_13  and  C_14
REMARK                            x       y       z     vdW  Elec       q    Type
REMARK                         _______ _______ _______ _____ _____    ______ ____
ROOT
ATOM      1  C   UNL     1       4.810   5.213  17.738  0.00  0.00    +0.000 A 
ATOM      2  N   UNL     1       4.242   4.628  18.768  0.00  0.00    +0.000 NA
ATOM      3  N   UNL     1       3.342   5.470  19.393  0.00  0.00    +0.000 NA
ATOM      4  C   UNL     1       3.230   6.616  18.770  0.00  0.00    +0.000 A 
ATOM      5  N   UNL     1       2.367   7.579  19.228  0.00  0.00    +0.000 N 
ATOM      6  C   UNL     1       1.856   8.651  18.545  0.00  0.00    +0.000 C 
ATOM      7  O   UNL     1       2.156   8.940  17.376  0.00  0.00    +0.000 OA
ATOM      8  N   UNL     1       0.926   9.407  19.255  0.00  0.00    +0.000 N 
ATOM      9  C   UNL     1       0.558   9.150  20.647  0.00  0.00    +0.000 C 
ATOM     10  S   UNL     1       4.291   6.836  17.472  0.00  0.00    +0.000 S 
ATOM     11  H   UNL     1       2.001   7.292  20.105  0.00  0.00    +0.000 HD
ENDROOT
BRANCH   1  13
ATOM     12  C   UNL     1       5.206   4.192  15.487  0.00  0.00    +0.000 C 
ATOM     13  C   UNL     1       5.826   4.579  16.830  0.00  0.00    +0.000 C 
ATOM     14  C   UNL     1       7.017   5.513  16.603  0.00  0.00    +0.000 C 
ENDBRANCH   1  13
BRANCH   8  15
ATOM     15  C   UNL     1       0.401  10.650  18.619  0.00  0.00    +0.000 C 
BRANCH  15  16
ATOM     16  C   UNL     1      -1.087  10.780  18.259  0.00  0.00    +0.000 A 
ATOM     17  C   UNL     1      -1.614   9.878  17.315  0.00  0.00    +0.000 A 
ATOM     18  C   UNL     1      -2.972   9.921  16.978  0.00  0.00    +0.000 A 
ATOM     19  N   UNL     1      -3.855  10.785  17.521  0.00  0.00    +0.000 NA
ATOM     20  C   UNL     1      -3.360  11.625  18.442  0.00  0.00    +0.000 A 
ATOM     21  C   UNL     1      -2.017  11.671  18.823  0.00  0.00    +0.000 A 
ENDBRANCH  15  16
ENDBRANCH   8  15
TORSDOF 3
ENDMDL
MODEL 8
REMARK VINA RESULT:      -6.7      2.455      8.100
REMARK  Name = 
REMARK  6 active torsions:
REMARK  status: ('A' for Active; 'I' for Inactive)
REMARK    1  A    between atoms: C_1  and  C_2
REMARK    2  A    between atoms: C_2  and  C_3
REMARK    3  A    between atoms: C_2  and  C_4
REMARK    4  A    between atoms: N_11  and  C_12
REMARK    5  A    between atoms: N_11  and  C_13
REMARK    6  A    between atoms: C_13  and  C_14
REMARK                            x       y       z     vdW  Elec       q    Type
REMARK                         _______ _______ _______ _____ _____    ______ ____
ROOT
ATOM      1  C   UNL     1       3.305   4.080  19.165  0.00  0.00    +0.000 A 
ATOM      2  N   UNL     1       2.662   3.700  20.246  0.00  0.00    +0.000 NA
ATOM      3  N   UNL     1       2.105   4.778  20.906  0.00  0.00    +0.000 NA
ATOM      4  C   UNL     1       2.298   5.900  20.260  0.00  0.00    +0.000 A 
ATOM      5  N   UNL     1       1.799   7.082  20.747  0.00  0.00    +0.000 N 
ATOM      6  C   UNL     1       1.586   8.253  20.070  0.00  0.00    +0.000 C 
ATOM      7  O   UNL     1       1.874   8.431  18.875  0.00  0.00    +0.000 OA
ATOM      8  N   UNL     1       0.979   9.260  20.818  0.00  0.00    +0.000 N 
ATOM      9  C   UNL     1       0.650   9.134  22.239  0.00  0.00    +0.000 C 
ATOM     10  S   UNL     1       3.280   5.781  18.890  0.00  0.00    +0.000 S 
ATOM     11  H   UNL     1       1.427   6.925  21.654  0.00  0.00    +0.000 HD
ENDROOT
BRANCH   1  13
ATOM     12  C   UNL     1       3.207   1.891  17.955  0.00  0.00    +0.000 C 
ATOM     13  C   UNL     1       4.016   3.162  18.210  0.00  0.00    +0.000 C 
ATOM     14  C   UNL     1       4.305   3.869  16.884  0.00  0.00    +0.000 C 
ENDBRANCH   1  13
BRANCH   8  15
ATOM     15  C   UNL     1       0.807  10.598  20.184  0.00  0.00    +0.000 C 
BRANCH  15  16
ATOM     16  C   UNL     1      -0.552  11.027  19.609  0.00  0.00    +0.000 A 
ATOM     17  C   UNL     1      -1.011  10.370  18.451  0.00  0.00    +0.000 A 
ATOM     18  C   UNL     1      -2.259  10.689  17.906  0.00  0.00    +0.000 A 
ATOM     19  N   UNL     1      -3.100  11.604  18.434  0.00  0.00    +0.000 NA
ATOM     20  C   UNL     1      -2.676  12.209  19.552  0.00  0.00    +0.000 A 
ATOM     21  C   UNL     1      -1.438  11.973  20.154  0.00  0.00    +0.000 A 
ENDBRANCH  15  16
ENDBRANCH   8  15
TORSDOF 3
ENDMDL
MODEL 9
REMARK VINA RESULT:      -6.7      2.439      8.141
REMARK  Name = 
REMARK  6 active torsions:
REMARK  status: ('A' for Active; 'I' for Inactive)
REMARK    1  A    between atoms: C_1  and  C_2
REMARK    2  A    between atoms: C_2  and  C_3
REMARK    3  A    between atoms: C_2  and  C_4
REMARK    4  A    between atoms: N_11  and  C_12
REMARK    5  A    between atoms: N_11  and  C_13
REMARK    6  A    between atoms: C_13  and  C_14
REMARK                            x       y       z     vdW  Elec       q    Type
REMARK                         _______ _______ _______ _____ _____    ______ ____
ROOT
ATOM      1  C   UNL     1       3.326   4.040  19.257  0.00  0.00    +0.000 A 
ATOM      2  N   UNL     1       2.758   3.697  20.391  0.00  0.00    +0.000 NA
ATOM      3  N   UNL     1       2.222   4.794  21.039  0.00  0.00    +0.000 NA
ATOM      4  C   UNL     1       2.355   5.890  20.336  0.00  0.00    +0.000 A 
ATOM      5  N   UNL     1       1.866   7.084  20.804  0.00  0.00    +0.000 N 
ATOM      6  C   UNL     1       1.591   8.222  20.093  0.00  0.00    +0.000 C 
ATOM      7  O   UNL     1       1.802   8.353  18.877  0.00  0.00    +0.000 OA
ATOM      8  N   UNL     1       1.013   9.250  20.835  0.00  0.00    +0.000 N 
ATOM      9  C   UNL     1       0.775   9.180  22.278  0.00  0.00    +0.000 C 
ATOM     10  S   UNL     1       3.253   5.728  18.913  0.00  0.00    +0.000 S 
ATOM     11  H   UNL     1       1.554   6.960  21.738  0.00  0.00    +0.000 HD
ENDROOT
BRANCH   1  13
ATOM     12  C   UNL     1       3.061   1.946  17.914  0.00  0.00    +0.000 C 
ATOM     13  C   UNL     1       3.993   3.094  18.299  0.00  0.00    +0.000 C 
ATOM     14  C   UNL     1       4.460   3.828  17.041  0.00  0.00    +0.000 C 
ENDBRANCH   1  13
BRANCH   8  15
ATOM     15  C   UNL     1       0.779  10.558  20.158  0.00  0.00    +0.000 C 
BRANCH  15  16
ATOM     16  C   UNL     1      -0.578  10.874  19.509  0.00  0.00    +0.000 A 
ATOM     17  C   UNL     1      -1.381  11.858  20.117  0.00  0.00    +0.000 A 
ATOM     18  C   UNL     1      -2.608  12.218  19.548  0.00  0.00    +0.000 A 
ATOM     19  N   UNL     1      -3.095  11.685  18.407  0.00  0.00    +0.000 NA
ATOM     20  C   UNL     1      -2.316  10.770  17.813  0.00  0.00    +0.000 A 
ATOM     21  C   UNL     1      -1.090  10.330  18.318  0.00  0.00    +0.000 A 
ENDBRANCH  15  16
ENDBRANCH   8  15
TORSDOF 3
ENDMDL
