MODEL 1
REMARK VINA RESULT:      -5.1      0.000      0.000
REMARK  Name = 
REMARK  2 active torsions:
REMARK  status: ('A' for Active; 'I' for Inactive)
REMARK    1  A    between atoms: C_2  and  O_3
REMARK    2  A    between atoms: C_2  and  C_4
REMARK                            x       y       z     vdW  Elec       q    Type
REMARK                         _______ _______ _______ _____ _____    ______ ____
ROOT
ATOM      1  C   UNL     1       6.283   3.702  12.594  0.00  0.00    +0.000 A 
ATOM      2  C   UNL     1       7.267   4.479  11.977  0.00  0.00    +0.000 A 
ATOM      3  C   UNL     1       7.999   5.338  12.772  0.00  0.00    +0.000 A 
ATOM      4  N   UNL     1       7.814   5.466  14.101  0.00  0.00    +0.000 NA
ATOM      5  C   UNL     1       6.839   4.716  14.657  0.00  0.00    +0.000 A 
ATOM      6 CL   UNL     1       6.636   4.948  16.343  0.00  0.00    +0.000 Cl
ATOM      7  C   UNL     1       6.048   3.828  13.961  0.00  0.00    +0.000 A 
ENDROOT
BRANCH   1   9
ATOM      8  O   UNL     1       4.320   3.085  11.419  0.00  0.00    +0.000 OA
ATOM      9  C   UNL     1       5.424   2.774  11.823  0.00  0.00    +0.000 C 
BRANCH   9  10
ATOM     10  O   UNL     1       5.968   1.554  11.638  0.00  0.00    +0.000 OA
ATOM     11  H   UNL     1       5.364   0.798  11.741  0.00  0.00    +0.000 HD
ENDBRANCH   9  10
ENDBRANCH   1   9
TORSDOF 2
ENDMDL
MODEL 2
REMARK VINA RESULT:      -5.1      4.131      4.897
REMARK  Name = 
REMARK  2 active torsions:
REMARK  status: ('A' for Active; 'I' for Inactive)
REMARK    1  A    between atoms: C_2  and  O_3
REMARK    2  A    between atoms: C_2  and  C_4
REMARK                            x       y       z     vdW  Elec       q    Type
REMARK                         _______ _______ _______ _____ _____    ______ ____
ROOT
ATOM      1  C   UNL     1       5.658   4.464  17.373  0.00  0.00    +0.000 A 
ATOM      2  C   UNL     1       5.982   4.055  16.077  0.00  0.00    +0.000 A 
ATOM      3  C   UNL     1       6.868   4.834  15.360  0.00  0.00    +0.000 A 
ATOM      4  N   UNL     1       7.430   5.960  15.842  0.00  0.00    +0.000 NA
ATOM      5  C   UNL     1       7.075   6.336  17.089  0.00  0.00    +0.000 A 
ATOM      6 CL   UNL     1       7.802   7.791  17.629  0.00  0.00    +0.000 Cl
ATOM      7  C   UNL     1       6.202   5.637  17.893  0.00  0.00    +0.000 A 
ENDROOT
BRANCH   1   9
ATOM      8  O   UNL     1       3.503   3.678  17.967  0.00  0.00    +0.000 OA
ATOM      9  C   UNL     1       4.694   3.713  18.210  0.00  0.00    +0.000 C 
BRANCH   9  10
ATOM     10  O   UNL     1       5.256   3.101  19.272  0.00  0.00    +0.000 OA
ATOM     11  H   UNL     1       6.174   2.801  19.154  0.00  0.00    +0.000 HD
ENDBRANCH   9  10
ENDBRANCH   1   9
TORSDOF 2
ENDMDL
MODEL 3
REMARK VINA RESULT:      -5.1      5.328      6.430
REMARK  Name = 
REMARK  2 active torsions:
REMARK  status: ('A' for Active; 'I' for Inactive)
REMARK    1  A    between atoms: C_2  and  O_3
REMARK    2  A    between atoms: C_2  and  C_4
REMARK                            x       y       z     vdW  Elec       q    Type
REMARK                         _______ _______ _______ _____ _____    ______ ____
ROOT
ATOM      1  C   UNL     1       6.749   5.161  18.360  0.00  0.00    +0.000 A 
ATOM      2  C   UNL     1       5.546   4.707  18.906  0.00  0.00    +0.000 A 
ATOM      3  C   UNL     1       4.685   4.015  18.077  0.00  0.00    +0.000 A 
ATOM      4  N   UNL     1       4.944   3.758  16.779  0.00  0.00    +0.000 NA
ATOM      5  C   UNL     1       6.106   4.233  16.282  0.00  0.00    +0.000 A 
ATOM      6 CL   UNL     1       6.359   3.899  14.621  0.00  0.00    +0.000 Cl
ATOM      7  C   UNL     1       7.037   4.935  17.016  0.00  0.00    +0.000 A 
ENDROOT
BRANCH   1   9
ATOM      8  O   UNL     1       8.271   6.938  18.734  0.00  0.00    +0.000 OA
ATOM      9  C   UNL     1       7.723   5.939  19.159  0.00  0.00    +0.000 C 
BRANCH   9  10
ATOM     10  O   UNL     1       7.962   5.422  20.382  0.00  0.00    +0.000 OA
ATOM     11  H   UNL     1       8.875   5.128  20.549  0.00  0.00    +0.000 HD
ENDBRANCH   9  10
ENDBRANCH   1   9
TORSDOF 2
ENDMDL
MODEL 4
REMARK VINA RESULT:      -5.0      3.413      4.339
REMARK  Name = 
REMARK  2 active torsions:
REMARK  status: ('A' for Active; 'I' for Inactive)
REMARK    1  A    between atoms: C_2  and  O_3
REMARK    2  A    between atoms: C_2  and  C_4
REMARK                            x       y       z     vdW  Elec       q    Type
REMARK                         _______ _______ _______ _____ _____    ______ ____
ROOT
ATOM      1  C   UNL     1       6.454   4.510  16.112  0.00  0.00    +0.000 A 
ATOM      2  C   UNL     1       5.253   3.935  16.534  0.00  0.00    +0.000 A 
ATOM      3  C   UNL     1       4.968   3.960  17.884  0.00  0.00    +0.000 A 
ATOM      4  N   UNL     1       5.784   4.505  18.809  0.00  0.00    +0.000 NA
ATOM      5  C   UNL     1       6.945   5.030  18.366  0.00  0.00    +0.000 A 
ATOM      6 CL   UNL     1       7.948   5.679  19.595  0.00  0.00    +0.000 Cl
ATOM      7  C   UNL     1       7.332   5.060  17.043  0.00  0.00    +0.000 A 
ENDROOT
BRANCH   1   9
ATOM      8  O   UNL     1       7.595   5.355  14.215  0.00  0.00    +0.000 OA
ATOM      9  C   UNL     1       6.864   4.506  14.688  0.00  0.00    +0.000 C 
BRANCH   9  10
ATOM     10  O   UNL     1       6.331   3.497  13.970  0.00  0.00    +0.000 OA
ATOM     11  H   UNL     1       6.164   3.686  13.030  0.00  0.00    +0.000 HD
ENDBRANCH   9  10
ENDBRANCH   1   9
TORSDOF 2
ENDMDL
MODEL 5
REMARK VINA RESULT:      -5.0      4.499      5.269
REMARK  Name = 
REMARK  2 active torsions:
REMARK  status: ('A' for Active; 'I' for Inactive)
REMARK    1  A    between atoms: C_2  and  O_3
REMARK    2  A    between atoms: C_2  and  C_4
REMARK                            x       y       z     vdW  Elec       q    Type
REMARK                         _______ _______ _______ _____ _____    ______ ____
ROOT
ATOM      1  C   UNL     1       5.753   5.077  16.804  0.00  0.00    +0.000 A 
ATOM      2  C   UNL     1       5.258   6.322  17.199  0.00  0.00    +0.000 A 
ATOM      3  C   UNL     1       3.954   6.382  17.649  0.00  0.00    +0.000 A 
ATOM      4  N   UNL     1       3.141   5.310  17.724  0.00  0.00    +0.000 NA
ATOM      5  C   UNL     1       3.647   4.129  17.313  0.00  0.00    +0.000 A 
ATOM      6 CL   UNL     1       2.552   2.813  17.407  0.00  0.00    +0.000 Cl
ATOM      7  C   UNL     1       4.931   3.952  16.846  0.00  0.00    +0.000 A 
ENDROOT
BRANCH   1   9
ATOM      8  O   UNL     1       7.491   5.406  15.228  0.00  0.00    +0.000 OA
ATOM      9  C   UNL     1       7.128   4.914  16.279  0.00  0.00    +0.000 C 
BRANCH   9  10
ATOM     10  O   UNL     1       7.923   4.151  17.057  0.00  0.00    +0.000 OA
ATOM     11  H   UNL     1       7.642   3.227  17.176  0.00  0.00    +0.000 HD
ENDBRANCH   9  10
ENDBRANCH   1   9
TORSDOF 2
ENDMDL
MODEL 6
REMARK VINA RESULT:      -5.0      3.506      4.331
REMARK  Name = 
REMARK  2 active torsions:
REMARK  status: ('A' for Active; 'I' for Inactive)
REMARK    1  A    between atoms: C_2  and  O_3
REMARK    2  A    between atoms: C_2  and  C_4
REMARK                            x       y       z     vdW  Elec       q    Type
REMARK                         _______ _______ _______ _____ _____    ______ ____
ROOT
ATOM      1  C   UNL     1       6.499   4.421  16.147  0.00  0.00    +0.000 A 
ATOM      2  C   UNL     1       7.378   4.795  17.167  0.00  0.00    +0.000 A 
ATOM      3  C   UNL     1       6.921   4.721  18.468  0.00  0.00    +0.000 A 
ATOM      4  N   UNL     1       5.681   4.311  18.801  0.00  0.00    +0.000 NA
ATOM      5  C   UNL     1       4.853   3.980  17.788  0.00  0.00    +0.000 A 
ATOM      6 CL   UNL     1       3.284   3.496  18.278  0.00  0.00    +0.000 Cl
ATOM      7  C   UNL     1       5.202   4.016  16.455  0.00  0.00    +0.000 A 
ENDROOT
BRANCH   1   9
ATOM      8  O   UNL     1       7.598   5.375  14.277  0.00  0.00    +0.000 OA
ATOM      9  C   UNL     1       6.884   4.495  14.719  0.00  0.00    +0.000 C 
BRANCH   9  10
ATOM     10  O   UNL     1       6.351   3.516  13.960  0.00  0.00    +0.000 OA
ATOM     11  H   UNL     1       6.788   2.649  14.015  0.00  0.00    +0.000 HD
ENDBRANCH   9  10
ENDBRANCH   1   9
TORSDOF 2
ENDMDL
MODEL 7
REMARK VINA RESULT:      -4.9      3.424      4.337
REMARK  Name = 
REMARK  2 active torsions:
REMARK  status: ('A' for Active; 'I' for Inactive)
REMARK    1  A    between atoms: C_2  and  O_3
REMARK    2  A    between atoms: C_2  and  C_4
REMARK                            x       y       z     vdW  Elec       q    Type
REMARK                         _______ _______ _______ _____ _____    ______ ____
ROOT
ATOM      1  C   UNL     1       6.328   4.488  16.082  0.00  0.00    +0.000 A 
ATOM      2  C   UNL     1       5.153   3.898  16.555  0.00  0.00    +0.000 A 
ATOM      3  C   UNL     1       4.926   3.920  17.916  0.00  0.00    +0.000 A 
ATOM      4  N   UNL     1       5.773   4.477  18.805  0.00  0.00    +0.000 NA
ATOM      5  C   UNL     1       6.908   5.017  18.313  0.00  0.00    +0.000 A 
ATOM      6 CL   UNL     1       7.954   5.680  19.497  0.00  0.00    +0.000 Cl
ATOM      7  C   UNL     1       7.237   5.050  16.975  0.00  0.00    +0.000 A 
ENDROOT
BRANCH   1   9
ATOM      8  O   UNL     1       6.160   3.730  13.843  0.00  0.00    +0.000 OA
ATOM      9  C   UNL     1       6.677   4.487  14.642  0.00  0.00    +0.000 C 
BRANCH   9  10
ATOM     10  O   UNL     1       7.632   5.380  14.312  0.00  0.00    +0.000 OA
ATOM     11  H   UNL     1       8.545   5.043  14.305  0.00  0.00    +0.000 HD
ENDBRANCH   9  10
ENDBRANCH   1   9
TORSDOF 2
ENDMDL
MODEL 8
REMARK VINA RESULT:      -4.9      4.016      4.907
REMARK  Name = 
REMARK  2 active torsions:
REMARK  status: ('A' for Active; 'I' for Inactive)
REMARK    1  A    between atoms: C_2  and  O_3
REMARK    2  A    between atoms: C_2  and  C_4
REMARK                            x       y       z     vdW  Elec       q    Type
REMARK                         _______ _______ _______ _____ _____    ______ ____
ROOT
ATOM      1  C   UNL     1       6.677   4.769  16.920  0.00  0.00    +0.000 A 
ATOM      2  C   UNL     1       7.548   5.507  17.725  0.00  0.00    +0.000 A 
ATOM      3  C   UNL     1       7.228   5.644  19.061  0.00  0.00    +0.000 A 
ATOM      4  N   UNL     1       6.126   5.107  19.623  0.00  0.00    +0.000 NA
ATOM      5  C   UNL     1       5.297   4.421  18.809  0.00  0.00    +0.000 A 
ATOM      6 CL   UNL     1       3.902   3.791  19.580  0.00  0.00    +0.000 Cl
ATOM      7  C   UNL     1       5.516   4.222  17.464  0.00  0.00    +0.000 A 
ENDROOT
BRANCH   1   9
ATOM      8  O   UNL     1       7.593   5.364  14.817  0.00  0.00    +0.000 OA
ATOM      9  C   UNL     1       6.917   4.591  15.470  0.00  0.00    +0.000 C 
BRANCH   9  10
ATOM     10  O   UNL     1       6.297   3.516  14.942  0.00  0.00    +0.000 OA
ATOM     11  H   UNL     1       5.504   3.207  15.414  0.00  0.00    +0.000 HD
ENDBRANCH   9  10
ENDBRANCH   1   9
TORSDOF 2
ENDMDL
MODEL 9
REMARK VINA RESULT:      -4.9      3.687      4.421
REMARK  Name = 
REMARK  2 active torsions:
REMARK  status: ('A' for Active; 'I' for Inactive)
REMARK    1  A    between atoms: C_2  and  O_3
REMARK    2  A    between atoms: C_2  and  C_4
REMARK                            x       y       z     vdW  Elec       q    Type
REMARK                         _______ _______ _______ _____ _____    ______ ____
ROOT
ATOM      1  C   UNL     1       5.602   5.021  15.817  0.00  0.00    +0.000 A 
ATOM      2  C   UNL     1       5.410   6.343  16.225  0.00  0.00    +0.000 A 
ATOM      3  C   UNL     1       4.405   6.595  17.138  0.00  0.00    +0.000 A 
ATOM      4  N   UNL     1       3.605   5.639  17.650  0.00  0.00    +0.000 NA
ATOM      5  C   UNL     1       3.806   4.377  17.215  0.00  0.00    +0.000 A 
ATOM      6 CL   UNL     1       2.737   3.215  17.882  0.00  0.00    +0.000 Cl
ATOM      7  C   UNL     1       4.777   4.011  16.308  0.00  0.00    +0.000 A 
ENDROOT
BRANCH   1   9
ATOM      8  O   UNL     1       7.613   5.341  14.606  0.00  0.00    +0.000 OA
ATOM      9  C   UNL     1       6.633   4.653  14.820  0.00  0.00    +0.000 C 
BRANCH   9  10
ATOM     10  O   UNL     1       6.369   3.508  14.160  0.00  0.00    +0.000 OA
ATOM     11  H   UNL     1       6.697   3.458  13.245  0.00  0.00    +0.000 HD
ENDBRANCH   9  10
ENDBRANCH   1   9
TORSDOF 2
ENDMDL
