MODEL 1
REMARK VINA RESULT:      -9.0      0.000      0.000
REMARK  Name = 
REMARK  4 active torsions:
REMARK  status: ('A' for Active; 'I' for Inactive)
REMARK    1  A    between atoms: C_1  and  C_2
REMARK    2  A    between atoms: N_10  and  C_11
REMARK    3  A    between atoms: N_13  and  S_14
REMARK    4  A    between atoms: S_14  and  C_17
REMARK                            x       y       z     vdW  Elec       q    Type
REMARK                         _______ _______ _______ _____ _____    ______ ____
ROOT
ATOM      1  C   UNL     1       3.010   5.763  19.087  0.00  0.00    +0.000 C 
ATOM      2  C   UNL     1       2.823   4.988  20.409  0.00  0.00    +0.000 C 
ATOM      3  N   UNL     1       2.631   3.737  19.555  0.00  0.00    +0.000 NA
ATOM      4  C   UNL     1       2.031   4.699  18.538  0.00  0.00    +0.000 C 
ENDROOT
BRANCH   1  14
ATOM      5  C   UNL     1       3.816   7.471  16.820  0.00  0.00    +0.000 C 
ATOM      6  C   UNL     1       2.930   7.912  17.936  0.00  0.00    +0.000 A 
ATOM      7  N   UNL     1       2.317   9.071  17.999  0.00  0.00    +0.000 NA
ATOM      8  C   UNL     1       1.567   9.033  19.141  0.00  0.00    +0.000 A 
ATOM      9  C   UNL     1       0.681  10.005  19.629  0.00  0.00    +0.000 A 
ATOM     10  C   UNL     1      -0.007   9.755  20.816  0.00  0.00    +0.000 A 
ATOM     11  C   UNL     1       0.202   8.571  21.520  0.00  0.00    +0.000 A 
ATOM     12  C   UNL     1       1.097   7.594  21.060  0.00  0.00    +0.000 A 
ATOM     13  C   UNL     1       1.752   7.839  19.844  0.00  0.00    +0.000 A 
ATOM     14  N   UNL     1       2.606   7.126  19.030  0.00  0.00    +0.000 N 
ENDBRANCH   1  14
BRANCH   3  15
ATOM     15  S   UNL     1       3.972   2.780  19.022  0.00  0.00    +0.000 S 
ATOM     16  O   UNL     1       4.795   2.504  20.183  0.00  0.00    +0.000 OA
ATOM     17  O   UNL     1       3.475   1.694  18.206  0.00  0.00    +0.000 OA
BRANCH  15  18
ATOM     18  C   UNL     1       4.860   3.876  17.965  0.00  0.00    +0.000 A 
ATOM     19  C   UNL     1       5.972   4.566  18.488  0.00  0.00    +0.000 A 
ATOM     20  C   UNL     1       6.878   5.181  17.624  0.00  0.00    +0.000 A 
ATOM     21  C   UNL     1       6.650   5.044  16.271  0.00  0.00    +0.000 A 
ATOM     22  C   UNL     1       5.535   4.405  15.773  0.00  0.00    +0.000 A 
ATOM     23  C   UNL     1       4.600   3.826  16.593  0.00  0.00    +0.000 A 
ATOM     24  O   UNL     1       5.548   4.328  14.414  0.00  0.00    +0.000 OA
ATOM     25  C   UNL     1       6.918   4.702  14.170  0.00  0.00    +0.000 C 
ATOM     26  O   UNL     1       7.502   5.421  15.277  0.00  0.00    +0.000 OA
ENDBRANCH  15  18
ENDBRANCH   3  15
TORSDOF 3
ENDMDL
MODEL 2
REMARK VINA RESULT:      -8.0      3.106      7.102
REMARK  Name = 
REMARK  4 active torsions:
REMARK  status: ('A' for Active; 'I' for Inactive)
REMARK    1  A    between atoms: C_1  and  C_2
REMARK    2  A    between atoms: N_10  and  C_11
REMARK    3  A    between atoms: N_13  and  S_14
REMARK    4  A    between atoms: S_14  and  C_17
REMARK                            x       y       z     vdW  Elec       q    Type
REMARK                         _______ _______ _______ _____ _____    ______ ____
ROOT
ATOM      1  C   UNL     1       4.596   4.763  16.603  0.00  0.00    +0.000 C 
ATOM      2  C   UNL     1       4.479   3.361  17.241  0.00  0.00    +0.000 C 
ATOM      3  N   UNL     1       3.939   4.061  18.485  0.00  0.00    +0.000 NA
ATOM      4  C   UNL     1       4.851   5.205  18.062  0.00  0.00    +0.000 C 
ENDROOT
BRANCH   1  14
ATOM      5  C   UNL     1       6.979   6.342  17.332  0.00  0.00    +0.000 C 
ATOM      6  C   UNL     1       6.774   5.686  16.008  0.00  0.00    +0.000 A 
ATOM      7  N   UNL     1       7.664   5.637  15.045  0.00  0.00    +0.000 NA
ATOM      8  C   UNL     1       7.095   4.892  14.050  0.00  0.00    +0.000 A 
ATOM      9  C   UNL     1       7.663   4.497  12.829  0.00  0.00    +0.000 A 
ATOM     10  C   UNL     1       6.908   3.713  11.958  0.00  0.00    +0.000 A 
ATOM     11  C   UNL     1       5.603   3.349  12.281  0.00  0.00    +0.000 A 
ATOM     12  C   UNL     1       5.009   3.749  13.488  0.00  0.00    +0.000 A 
ATOM     13  C   UNL     1       5.791   4.503  14.374  0.00  0.00    +0.000 A 
ATOM     14  N   UNL     1       5.626   4.998  15.650  0.00  0.00    +0.000 N 
ENDBRANCH   1  14
BRANCH   3  15
ATOM     15  S   UNL     1       2.258   4.435  18.665  0.00  0.00    +0.000 S 
ATOM     16  O   UNL     1       1.631   4.247  17.371  0.00  0.00    +0.000 OA
ATOM     17  O   UNL     1       1.748   3.742  19.828  0.00  0.00    +0.000 OA
BRANCH  15  18
ATOM     18  C   UNL     1       2.260   6.159  19.029  0.00  0.00    +0.000 A 
ATOM     19  C   UNL     1       2.247   7.076  17.960  0.00  0.00    +0.000 A 
ATOM     20  C   UNL     1       1.930   8.414  18.194  0.00  0.00    +0.000 A 
ATOM     21  C   UNL     1       1.602   8.766  19.486  0.00  0.00    +0.000 A 
ATOM     22  C   UNL     1       1.662   7.869  20.532  0.00  0.00    +0.000 A 
ATOM     23  C   UNL     1       2.011   6.556  20.346  0.00  0.00    +0.000 A 
ATOM     24  O   UNL     1       1.231   8.412  21.703  0.00  0.00    +0.000 OA
ATOM     25  C   UNL     1       0.619   9.614  21.195  0.00  0.00    +0.000 C 
ATOM     26  O   UNL     1       1.104   9.970  19.883  0.00  0.00    +0.000 OA
ENDBRANCH  15  18
ENDBRANCH   3  15
TORSDOF 3
ENDMDL
MODEL 3
REMARK VINA RESULT:      -7.9      4.804      8.133
REMARK  Name = 
REMARK  4 active torsions:
REMARK  status: ('A' for Active; 'I' for Inactive)
REMARK    1  A    between atoms: C_1  and  C_2
REMARK    2  A    between atoms: N_10  and  C_11
REMARK    3  A    between atoms: N_13  and  S_14
REMARK    4  A    between atoms: S_14  and  C_17
REMARK                            x       y       z     vdW  Elec       q    Type
REMARK                         _______ _______ _______ _____ _____    ______ ____
ROOT
ATOM      1  C   UNL     1       2.552   7.546  18.616  0.00  0.00    +0.000 C 
ATOM      2  C   UNL     1       2.976   8.790  17.806  0.00  0.00    +0.000 C 
ATOM      3  N   UNL     1       1.506   9.201  17.823  0.00  0.00    +0.000 NA
ATOM      4  C   UNL     1       1.235   7.703  17.822  0.00  0.00    +0.000 C 
ENDROOT
BRANCH   1  14
ATOM      5  C   UNL     1       2.148   5.281  20.464  0.00  0.00    +0.000 C 
ATOM      6  C   UNL     1       3.052   5.252  19.278  0.00  0.00    +0.000 A 
ATOM      7  N   UNL     1       3.697   4.193  18.847  0.00  0.00    +0.000 NA
ATOM      8  C   UNL     1       4.346   4.589  17.712  0.00  0.00    +0.000 A 
ATOM      9  C   UNL     1       5.124   3.812  16.840  0.00  0.00    +0.000 A 
ATOM     10  C   UNL     1       5.685   4.416  15.717  0.00  0.00    +0.000 A 
ATOM     11  C   UNL     1       5.499   5.775  15.475  0.00  0.00    +0.000 A 
ATOM     12  C   UNL     1       4.740   6.575  16.342  0.00  0.00    +0.000 A 
ATOM     13  C   UNL     1       4.147   5.948  17.447  0.00  0.00    +0.000 A 
ATOM     14  N   UNL     1       3.286   6.338  18.450  0.00  0.00    +0.000 N 
ENDBRANCH   1  14
BRANCH   3  15
ATOM     15  S   UNL     1       0.827  10.113  19.130  0.00  0.00    +0.000 S 
ATOM     16  O   UNL     1       0.829   9.257  20.300  0.00  0.00    +0.000 OA
ATOM     17  O   UNL     1       1.466  11.410  19.175  0.00  0.00    +0.000 OA
BRANCH  15  18
ATOM     18  C   UNL     1      -0.844  10.359  18.630  0.00  0.00    +0.000 A 
ATOM     19  C   UNL     1      -1.601  11.360  19.271  0.00  0.00    +0.000 A 
ATOM     20  C   UNL     1      -2.797  11.798  18.703  0.00  0.00    +0.000 A 
ATOM     21  C   UNL     1      -3.163  11.241  17.496  0.00  0.00    +0.000 A 
ATOM     22  C   UNL     1      -2.438  10.230  16.902  0.00  0.00    +0.000 A 
ATOM     23  C   UNL     1      -1.280   9.744  17.453  0.00  0.00    +0.000 A 
ATOM     24  O   UNL     1      -2.941   9.879  15.687  0.00  0.00    +0.000 OA
ATOM     25  C   UNL     1      -3.844  10.982  15.478  0.00  0.00    +0.000 C 
ATOM     26  O   UNL     1      -4.194  11.652  16.708  0.00  0.00    +0.000 OA
ENDBRANCH  15  18
ENDBRANCH   3  15
TORSDOF 3
ENDMDL
MODEL 4
REMARK VINA RESULT:      -7.8      1.029      1.703
REMARK  Name = 
REMARK  4 active torsions:
REMARK  status: ('A' for Active; 'I' for Inactive)
REMARK    1  A    between atoms: C_1  and  C_2
REMARK    2  A    between atoms: N_10  and  C_11
REMARK    3  A    between atoms: N_13  and  S_14
REMARK    4  A    between atoms: S_14  and  C_17
REMARK                            x       y       z     vdW  Elec       q    Type
REMARK                         _______ _______ _______ _____ _____    ______ ____
ROOT
ATOM      1  C   UNL     1       2.538   5.899  19.286  0.00  0.00    +0.000 C 
ATOM      2  C   UNL     1       1.523   4.943  19.949  0.00  0.00    +0.000 C 
ATOM      3  N   UNL     1       1.980   3.890  18.943  0.00  0.00    +0.000 NA
ATOM      4  C   UNL     1       2.205   5.079  18.018  0.00  0.00    +0.000 C 
ENDROOT
BRANCH   1  14
ATOM      5  C   UNL     1       3.507   7.595  17.074  0.00  0.00    +0.000 C 
ATOM      6  C   UNL     1       2.653   8.079  18.197  0.00  0.00    +0.000 A 
ATOM      7  N   UNL     1       2.141   9.284  18.290  0.00  0.00    +0.000 NA
ATOM      8  C   UNL     1       1.381   9.279  19.425  0.00  0.00    +0.000 A 
ATOM      9  C   UNL     1       0.577  10.309  19.937  0.00  0.00    +0.000 A 
ATOM     10  C   UNL     1      -0.140  10.085  21.111  0.00  0.00    +0.000 A 
ATOM     11  C   UNL     1      -0.039   8.868  21.782  0.00  0.00    +0.000 A 
ATOM     12  C   UNL     1       0.772   7.831  21.299  0.00  0.00    +0.000 A 
ATOM     13  C   UNL     1       1.456   8.053  20.095  0.00  0.00    +0.000 A 
ATOM     14  N   UNL     1       2.253   7.293  19.265  0.00  0.00    +0.000 N 
ENDBRANCH   1  14
BRANCH   3  15
ATOM     15  S   UNL     1       3.348   2.871  19.244  0.00  0.00    +0.000 S 
ATOM     16  O   UNL     1       3.692   3.013  20.645  0.00  0.00    +0.000 OA
ATOM     17  O   UNL     1       3.085   1.562  18.689  0.00  0.00    +0.000 OA
BRANCH  15  18
ATOM     18  C   UNL     1       4.627   3.611  18.285  0.00  0.00    +0.000 A 
ATOM     19  C   UNL     1       4.496   3.627  16.882  0.00  0.00    +0.000 A 
ATOM     20  C   UNL     1       5.306   4.466  16.117  0.00  0.00    +0.000 A 
ATOM     21  C   UNL     1       6.186   5.282  16.796  0.00  0.00    +0.000 A 
ATOM     22  C   UNL     1       6.336   5.224  18.165  0.00  0.00    +0.000 A 
ATOM     23  C   UNL     1       5.588   4.381  18.946  0.00  0.00    +0.000 A 
ATOM     24  O   UNL     1       7.206   6.163  18.629  0.00  0.00    +0.000 OA
ATOM     25  C   UNL     1       7.320   6.982  17.449  0.00  0.00    +0.000 C 
ATOM     26  O   UNL     1       6.931   6.281  16.248  0.00  0.00    +0.000 OA
ENDBRANCH  15  18
ENDBRANCH   3  15
TORSDOF 3
ENDMDL
MODEL 5
REMARK VINA RESULT:      -7.8      5.175      8.599
REMARK  Name = 
REMARK  4 active torsions:
REMARK  status: ('A' for Active; 'I' for Inactive)
REMARK    1  A    between atoms: C_1  and  C_2
REMARK    2  A    between atoms: N_10  and  C_11
REMARK    3  A    between atoms: N_13  and  S_14
REMARK    4  A    between atoms: S_14  and  C_17
REMARK                            x       y       z     vdW  Elec       q    Type
REMARK                         _______ _______ _______ _____ _____    ______ ____
ROOT
ATOM      1  C   UNL     1       2.347   7.745  18.691  0.00  0.00    +0.000 C 
ATOM      2  C   UNL     1       2.789   8.980  17.877  0.00  0.00    +0.000 C 
ATOM      3  N   UNL     1       1.315   9.374  17.828  0.00  0.00    +0.000 NA
ATOM      4  C   UNL     1       1.062   7.872  17.842  0.00  0.00    +0.000 C 
ENDROOT
BRANCH   1  14
ATOM      5  C   UNL     1       1.913   5.516  20.575  0.00  0.00    +0.000 C 
ATOM      6  C   UNL     1       2.855   5.473  19.419  0.00  0.00    +0.000 A 
ATOM      7  N   UNL     1       3.526   4.413  19.033  0.00  0.00    +0.000 NA
ATOM      8  C   UNL     1       4.206   4.793  17.910  0.00  0.00    +0.000 A 
ATOM      9  C   UNL     1       5.021   4.007  17.081  0.00  0.00    +0.000 A 
ATOM     10  C   UNL     1       5.610   4.593  15.962  0.00  0.00    +0.000 A 
ATOM     11  C   UNL     1       5.415   5.944  15.685  0.00  0.00    +0.000 A 
ATOM     12  C   UNL     1       4.618   6.753  16.509  0.00  0.00    +0.000 A 
ATOM     13  C   UNL     1       3.998   6.143  17.609  0.00  0.00    +0.000 A 
ATOM     14  N   UNL     1       3.101   6.543  18.575  0.00  0.00    +0.000 N 
ENDBRANCH   1  14
BRANCH   3  15
ATOM     15  S   UNL     1       0.573  10.298  19.090  0.00  0.00    +0.000 S 
ATOM     16  O   UNL     1       0.341   9.400  20.205  0.00  0.00    +0.000 OA
ATOM     17  O   UNL     1       1.329  11.516  19.282  0.00  0.00    +0.000 OA
BRANCH  15  18
ATOM     18  C   UNL     1      -0.989  10.742  18.407  0.00  0.00    +0.000 A 
ATOM     19  C   UNL     1      -1.501   9.979  17.339  0.00  0.00    +0.000 A 
ATOM     20  C   UNL     1      -2.846  10.090  16.986  0.00  0.00    +0.000 A 
ATOM     21  C   UNL     1      -3.628  10.934  17.746  0.00  0.00    +0.000 A 
ATOM     22  C   UNL     1      -3.106  11.708  18.759  0.00  0.00    +0.000 A 
ATOM     23  C   UNL     1      -1.780  11.658  19.106  0.00  0.00    +0.000 A 
ATOM     24  O   UNL     1      -4.067  12.412  19.419  0.00  0.00    +0.000 OA
ATOM     25  C   UNL     1      -5.238  11.747  18.907  0.00  0.00    +0.000 C 
ATOM     26  O   UNL     1      -4.983  11.048  17.671  0.00  0.00    +0.000 OA
ENDBRANCH  15  18
ENDBRANCH   3  15
TORSDOF 3
ENDMDL
MODEL 6
REMARK VINA RESULT:      -7.8      2.842      4.808
REMARK  Name = 
REMARK  4 active torsions:
REMARK  status: ('A' for Active; 'I' for Inactive)
REMARK    1  A    between atoms: C_1  and  C_2
REMARK    2  A    between atoms: N_10  and  C_11
REMARK    3  A    between atoms: N_13  and  S_14
REMARK    4  A    between atoms: S_14  and  C_17
REMARK                            x       y       z     vdW  Elec       q    Type
REMARK                         _______ _______ _______ _____ _____    ______ ____
ROOT
ATOM      1  C   UNL     1       4.413   5.342  17.960  0.00  0.00    +0.000 C 
ATOM      2  C   UNL     1       5.715   4.513  17.946  0.00  0.00    +0.000 C 
ATOM      3  N   UNL     1       5.591   4.493  16.425  0.00  0.00    +0.000 NA
ATOM      4  C   UNL     1       4.092   4.520  16.690  0.00  0.00    +0.000 C 
ENDROOT
BRANCH   1  14
ATOM      5  C   UNL     1       2.523   7.508  18.626  0.00  0.00    +0.000 C 
ATOM      6  C   UNL     1       2.602   6.205  19.347  0.00  0.00    +0.000 A 
ATOM      7  N   UNL     1       1.779   5.816  20.292  0.00  0.00    +0.000 NA
ATOM      8  C   UNL     1       2.167   4.548  20.625  0.00  0.00    +0.000 A 
ATOM      9  C   UNL     1       1.570   3.670  21.542  0.00  0.00    +0.000 A 
ATOM     10  C   UNL     1       2.120   2.402  21.717  0.00  0.00    +0.000 A 
ATOM     11  C   UNL     1       3.260   2.020  21.012  0.00  0.00    +0.000 A 
ATOM     12  C   UNL     1       3.883   2.887  20.103  0.00  0.00    +0.000 A 
ATOM     13  C   UNL     1       3.298   4.146  19.906  0.00  0.00    +0.000 A 
ATOM     14  N   UNL     1       3.533   5.217  19.070  0.00  0.00    +0.000 N 
ENDBRANCH   1  14
BRANCH   3  15
ATOM     15  S   UNL     1       6.229   5.766  15.440  0.00  0.00    +0.000 S 
ATOM     16  O   UNL     1       5.197   6.776  15.317  0.00  0.00    +0.000 OA
ATOM     17  O   UNL     1       7.542   6.123  15.931  0.00  0.00    +0.000 OA
BRANCH  15  18
ATOM     18  C   UNL     1       6.439   4.999  13.868  0.00  0.00    +0.000 A 
ATOM     19  C   UNL     1       7.663   5.168  13.191  0.00  0.00    +0.000 A 
ATOM     20  C   UNL     1       7.987   4.335  12.119  0.00  0.00    +0.000 A 
ATOM     21  C   UNL     1       7.084   3.344  11.798  0.00  0.00    +0.000 A 
ATOM     22  C   UNL     1       5.870   3.217  12.438  0.00  0.00    +0.000 A 
ATOM     23  C   UNL     1       5.499   4.044  13.467  0.00  0.00    +0.000 A 
ATOM     24  O   UNL     1       5.170   2.132  12.008  0.00  0.00    +0.000 OA
ATOM     25  C   UNL     1       6.212   1.453  11.280  0.00  0.00    +0.000 C 
ATOM     26  O   UNL     1       7.292   2.335  10.907  0.00  0.00    +0.000 OA
ENDBRANCH  15  18
ENDBRANCH   3  15
TORSDOF 3
ENDMDL
MODEL 7
REMARK VINA RESULT:      -7.8      6.116      9.871
REMARK  Name = 
REMARK  4 active torsions:
REMARK  status: ('A' for Active; 'I' for Inactive)
REMARK    1  A    between atoms: C_1  and  C_2
REMARK    2  A    between atoms: N_10  and  C_11
REMARK    3  A    between atoms: N_13  and  S_14
REMARK    4  A    between atoms: S_14  and  C_17
REMARK                            x       y       z     vdW  Elec       q    Type
REMARK                         _______ _______ _______ _____ _____    ______ ____
ROOT
ATOM      1  C   UNL     1       1.012   9.112  20.330  0.00  0.00    +0.000 C 
ATOM      2  C   UNL     1      -0.112   9.948  19.682  0.00  0.00    +0.000 C 
ATOM      3  N   UNL     1      -0.791   9.948  21.049  0.00  0.00    +0.000 NA
ATOM      4  C   UNL     1      -0.142   8.579  21.210  0.00  0.00    +0.000 C 
ENDROOT
BRANCH   1  14
ATOM      5  C   UNL     1       2.218   9.942  17.769  0.00  0.00    +0.000 C 
ATOM      6  C   UNL     1       2.339   8.576  18.355  0.00  0.00    +0.000 A 
ATOM      7  N   UNL     1       3.077   7.608  17.865  0.00  0.00    +0.000 NA
ATOM      8  C   UNL     1       2.951   6.565  18.739  0.00  0.00    +0.000 A 
ATOM      9  C   UNL     1       3.590   5.317  18.699  0.00  0.00    +0.000 A 
ATOM     10  C   UNL     1       3.333   4.394  19.712  0.00  0.00    +0.000 A 
ATOM     11  C   UNL     1       2.435   4.696  20.734  0.00  0.00    +0.000 A 
ATOM     12  C   UNL     1       1.771   5.931  20.784  0.00  0.00    +0.000 A 
ATOM     13  C   UNL     1       2.069   6.866  19.782  0.00  0.00    +0.000 A 
ATOM     14  N   UNL     1       1.719   8.174  19.527  0.00  0.00    +0.000 N 
ENDBRANCH   1  14
BRANCH   3  15
ATOM     15  S   UNL     1      -0.416  11.132  22.255  0.00  0.00    +0.000 S 
ATOM     16  O   UNL     1      -0.232  10.428  23.509  0.00  0.00    +0.000 OA
ATOM     17  O   UNL     1       0.623  12.001  21.749  0.00  0.00    +0.000 OA
BRANCH  15  18
ATOM     18  C   UNL     1      -1.897  12.080  22.368  0.00  0.00    +0.000 A 
ATOM     19  C   UNL     1      -2.449  12.614  21.187  0.00  0.00    +0.000 A 
ATOM     20  C   UNL     1      -3.761  13.088  21.185  0.00  0.00    +0.000 A 
ATOM     21  C   UNL     1      -4.476  12.969  22.358  0.00  0.00    +0.000 A 
ATOM     22  C   UNL     1      -3.910  12.486  23.519  0.00  0.00    +0.000 A 
ATOM     23  C   UNL     1      -2.610  12.052  23.570  0.00  0.00    +0.000 A 
ATOM     24  O   UNL     1      -4.813  12.392  24.533  0.00  0.00    +0.000 OA
ATOM     25  C   UNL     1      -6.030  12.569  23.783  0.00  0.00    +0.000 C 
ATOM     26  O   UNL     1      -5.807  13.212  22.510  0.00  0.00    +0.000 OA
ENDBRANCH  15  18
ENDBRANCH   3  15
TORSDOF 3
ENDMDL
MODEL 8
REMARK VINA RESULT:      -7.7      9.346     11.423
REMARK  Name = 
REMARK  4 active torsions:
REMARK  status: ('A' for Active; 'I' for Inactive)
REMARK    1  A    between atoms: C_1  and  C_2
REMARK    2  A    between atoms: N_10  and  C_11
REMARK    3  A    between atoms: N_13  and  S_14
REMARK    4  A    between atoms: S_14  and  C_17
REMARK                            x       y       z     vdW  Elec       q    Type
REMARK                         _______ _______ _______ _____ _____    ______ ____
ROOT
ATOM      1  C   UNL     1       8.263  13.429  21.475  0.00  0.00    +0.000 C 
ATOM      2  C   UNL     1       8.264  12.085  22.234  0.00  0.00    +0.000 C 
ATOM      3  N   UNL     1       8.517  12.894  23.503  0.00  0.00    +0.000 NA
ATOM      4  C   UNL     1       9.265  13.843  22.577  0.00  0.00    +0.000 C 
ENDROOT
BRANCH   1  14
ATOM      5  C   UNL     1       7.004  15.230  19.506  0.00  0.00    +0.000 C 
ATOM      6  C   UNL     1       8.168  14.344  19.216  0.00  0.00    +0.000 A 
ATOM      7  N   UNL     1       8.841  14.329  18.089  0.00  0.00    +0.000 NA
ATOM      8  C   UNL     1       9.853  13.430  18.273  0.00  0.00    +0.000 A 
ATOM      9  C   UNL     1      10.888  13.094  17.387  0.00  0.00    +0.000 A 
ATOM     10  C   UNL     1      11.840  12.157  17.785  0.00  0.00    +0.000 A 
ATOM     11  C   UNL     1      11.751  11.542  19.032  0.00  0.00    +0.000 A 
ATOM     12  C   UNL     1      10.715  11.849  19.927  0.00  0.00    +0.000 A 
ATOM     13  C   UNL     1       9.787  12.823  19.532  0.00  0.00    +0.000 A 
ATOM     14  N   UNL     1       8.715  13.455  20.126  0.00  0.00    +0.000 N 
ENDBRANCH   1  14
BRANCH   3  15
ATOM     15  S   UNL     1       7.219  13.572  24.427  0.00  0.00    +0.000 S 
ATOM     16  O   UNL     1       7.777  14.635  25.241  0.00  0.00    +0.000 OA
ATOM     17  O   UNL     1       6.107  13.841  23.542  0.00  0.00    +0.000 OA
BRANCH  15  18
ATOM     18  C   UNL     1       6.745  12.253  25.493  0.00  0.00    +0.000 A 
ATOM     19  C   UNL     1       7.230  12.245  26.816  0.00  0.00    +0.000 A 
ATOM     20  C   UNL     1       6.638  11.417  27.770  0.00  0.00    +0.000 A 
ATOM     21  C   UNL     1       5.559  10.661  27.364  0.00  0.00    +0.000 A 
ATOM     22  C   UNL     1       5.122  10.644  26.057  0.00  0.00    +0.000 A 
ATOM     23  C   UNL     1       5.706  11.412  25.083  0.00  0.00    +0.000 A 
ATOM     24  O   UNL     1       4.004   9.884  25.896  0.00  0.00    +0.000 OA
ATOM     25  C   UNL     1       3.640   9.704  27.279  0.00  0.00    +0.000 C 
ATOM     26  O   UNL     1       4.748   9.928  28.176  0.00  0.00    +0.000 OA
ENDBRANCH  15  18
ENDBRANCH   3  15
TORSDOF 3
ENDMDL
MODEL 9
REMARK VINA RESULT:      -7.6      1.654      2.323
REMARK  Name = 
REMARK  4 active torsions:
REMARK  status: ('A' for Active; 'I' for Inactive)
REMARK    1  A    between atoms: C_1  and  C_2
REMARK    2  A    between atoms: N_10  and  C_11
REMARK    3  A    between atoms: N_13  and  S_14
REMARK    4  A    between atoms: S_14  and  C_17
REMARK                            x       y       z     vdW  Elec       q    Type
REMARK                         _______ _______ _______ _____ _____    ______ ____
ROOT
ATOM      1  C   UNL     1       1.879   6.662  19.666  0.00  0.00    +0.000 C 
ATOM      2  C   UNL     1       3.040   6.053  20.483  0.00  0.00    +0.000 C 
ATOM      3  N   UNL     1       2.255   4.744  20.470  0.00  0.00    +0.000 NA
ATOM      4  C   UNL     1       1.028   5.647  20.463  0.00  0.00    +0.000 C 
ENDROOT
BRANCH   1  14
ATOM      5  C   UNL     1       2.371   8.565  17.466  0.00  0.00    +0.000 C 
ATOM      6  C   UNL     1       1.753   8.928  18.773  0.00  0.00    +0.000 A 
ATOM      7  N   UNL     1       1.256  10.106  19.070  0.00  0.00    +0.000 NA
ATOM      8  C   UNL     1       0.737   9.984  20.329  0.00  0.00    +0.000 A 
ATOM      9  C   UNL     1       0.040  10.945  21.077  0.00  0.00    +0.000 A 
ATOM     10  C   UNL     1      -0.426  10.603  22.345  0.00  0.00    +0.000 A 
ATOM     11  C   UNL     1      -0.182   9.338  22.874  0.00  0.00    +0.000 A 
ATOM     12  C   UNL     1       0.529   8.368  22.150  0.00  0.00    +0.000 A 
ATOM     13  C   UNL     1       0.957   8.709  20.860  0.00  0.00    +0.000 A 
ATOM     14  N   UNL     1       1.581   8.045  19.826  0.00  0.00    +0.000 N 
ENDBRANCH   1  14
BRANCH   3  15
ATOM     15  S   UNL     1       2.392   3.610  19.168  0.00  0.00    +0.000 S 
ATOM     16  O   UNL     1       2.575   2.298  19.756  0.00  0.00    +0.000 OA
ATOM     17  O   UNL     1       1.315   3.844  18.231  0.00  0.00    +0.000 OA
BRANCH  15  18
ATOM     18  C   UNL     1       3.897   4.075  18.379  0.00  0.00    +0.000 A 
ATOM     19  C   UNL     1       3.835   4.667  17.101  0.00  0.00    +0.000 A 
ATOM     20  C   UNL     1       4.949   5.330  16.587  0.00  0.00    +0.000 A 
ATOM     21  C   UNL     1       6.065   5.405  17.394  0.00  0.00    +0.000 A 
ATOM     22  C   UNL     1       6.128   4.784  18.623  0.00  0.00    +0.000 A 
ATOM     23  C   UNL     1       5.068   4.086  19.142  0.00  0.00    +0.000 A 
ATOM     24  O   UNL     1       7.294   5.046  19.274  0.00  0.00    +0.000 OA
ATOM     25  C   UNL     1       7.783   6.127  18.457  0.00  0.00    +0.000 C 
ATOM     26  O   UNL     1       7.180   6.147  17.146  0.00  0.00    +0.000 OA
ENDBRANCH  15  18
ENDBRANCH   3  15
TORSDOF 3
ENDMDL
