MODEL 1
REMARK VINA RESULT:      -8.5      0.000      0.000
REMARK  Name = 
REMARK  9 active torsions:
REMARK  status: ('A' for Active; 'I' for Inactive)
REMARK    1  A    between atoms: C_8  and  C_9
REMARK    2  A    between atoms: C_9  and  O_11
REMARK    3  A    between atoms: C_15  and  C_16
REMARK    4  A    between atoms: C_18  and  O_19
REMARK    5  A    between atoms: O_19  and  C_20
REMARK    6  A    between atoms: C_20  and  C_22
REMARK    7  A    between atoms: C_23  and  C_24
REMARK    8  A    between atoms: C_23  and  C_25
REMARK    9  A    between atoms: C_25  and  C_26
REMARK                            x       y       z     vdW  Elec       q    Type
REMARK                         _______ _______ _______ _____ _____    ______ ____
ROOT
ATOM      1  C   UNL     1       2.785   8.723  17.636  0.00  0.00    +0.000 C 
ATOM      2  C   UNL     1       2.587   7.758  18.544  0.00  0.00    +0.000 C 
ATOM      3  C   UNL     1       1.744   8.137  19.706  0.00  0.00    +0.000 C 
ATOM      4  O   UNL     1       1.012   9.108  19.777  0.00  0.00    +0.000 OA
ATOM      5  O   UNL     1       1.787   7.139  20.604  0.00  0.00    +0.000 OA
ATOM      6  C   UNL     1       2.397   5.979  20.038  0.00  0.00    +0.000 C 
ATOM      7  C   UNL     1       1.310   4.954  20.116  0.00  0.00    +0.000 C 
ATOM      8  C   UNL     1       1.337   3.706  20.625  0.00  0.00    +0.000 C 
ATOM      9  C   UNL     1       0.263   2.756  20.095  0.00  0.00    +0.000 C 
ATOM     10  C   UNL     1       0.549   2.213  18.663  0.00  0.00    +0.000 C 
ATOM     11  C   UNL     1       1.445   3.099  17.812  0.00  0.00    +0.000 C 
ATOM     12  C   UNL     1       2.802   3.093  17.823  0.00  0.00    +0.000 C 
ATOM     13  C   UNL     1       3.605   1.997  18.474  0.00  0.00    +0.000 C 
ATOM     14  C   UNL     1       3.610   4.207  17.151  0.00  0.00    +0.000 C 
ATOM     15  C   UNL     1       4.006   5.474  18.020  0.00  0.00    +0.000 C 
ATOM     16  C   UNL     1       2.744   6.262  18.549  0.00  0.00    +0.000 C 
ENDROOT
BRANCH   8  17
ATOM     17  C   UNL     1       2.437   3.218  21.455  0.00  0.00    +0.000 C 
ATOM     18  O   UNL     1       2.341   2.371  22.324  0.00  0.00    +0.000 OA
BRANCH  17  19
ATOM     19  O   UNL     1       3.613   3.802  21.154  0.00  0.00    +0.000 OA
ATOM     20  H   UNL     1       4.088   3.378  20.410  0.00  0.00    +0.000 HD
ENDBRANCH  17  19
ENDBRANCH   8  17
BRANCH  15  21
ATOM     21  O   UNL     1       4.851   5.087  19.138  0.00  0.00    +0.000 OA
BRANCH  21  22
ATOM     22  C   UNL     1       6.204   5.096  19.014  0.00  0.00    +0.000 C 
ATOM     23  O   UNL     1       7.000   5.339  19.904  0.00  0.00    +0.000 OA
BRANCH  22  24
ATOM     24  C   UNL     1       6.540   4.770  17.596  0.00  0.00    +0.000 C 
ATOM     25  C   UNL     1       7.010   5.598  16.637  0.00  0.00    +0.000 C 
ATOM     26  C   UNL     1       7.329   7.051  16.840  0.00  0.00    +0.000 C 
BRANCH  25  27
ATOM     27  C   UNL     1       7.339   5.054  15.254  0.00  0.00    +0.000 C 
ATOM     28  C   UNL     1       6.171   4.410  14.521  0.00  0.00    +0.000 C 
ENDBRANCH  25  27
ENDBRANCH  22  24
ENDBRANCH  21  22
ENDBRANCH  15  21
TORSDOF 6
ENDMDL
MODEL 2
REMARK VINA RESULT:      -8.4      2.546      4.386
REMARK  Name = 
REMARK  9 active torsions:
REMARK  status: ('A' for Active; 'I' for Inactive)
REMARK    1  A    between atoms: C_8  and  C_9
REMARK    2  A    between atoms: C_9  and  O_11
REMARK    3  A    between atoms: C_15  and  C_16
REMARK    4  A    between atoms: C_18  and  O_19
REMARK    5  A    between atoms: O_19  and  C_20
REMARK    6  A    between atoms: C_20  and  C_22
REMARK    7  A    between atoms: C_23  and  C_24
REMARK    8  A    between atoms: C_23  and  C_25
REMARK    9  A    between atoms: C_25  and  C_26
REMARK                            x       y       z     vdW  Elec       q    Type
REMARK                         _______ _______ _______ _____ _____    ______ ____
ROOT
ATOM      1  C   UNL     1       7.816   7.725  17.993  0.00  0.00    +0.000 C 
ATOM      2  C   UNL     1       7.179   6.561  18.180  0.00  0.00    +0.000 C 
ATOM      3  C   UNL     1       7.911   5.555  18.988  0.00  0.00    +0.000 C 
ATOM      4  O   UNL     1       8.871   5.768  19.706  0.00  0.00    +0.000 OA
ATOM      5  O   UNL     1       7.234   4.395  18.935  0.00  0.00    +0.000 OA
ATOM      6  C   UNL     1       5.945   4.592  18.353  0.00  0.00    +0.000 C 
ATOM      7  C   UNL     1       5.014   4.182  19.452  0.00  0.00    +0.000 C 
ATOM      8  C   UNL     1       3.981   3.317  19.427  0.00  0.00    +0.000 C 
ATOM      9  C   UNL     1       2.936   3.509  20.526  0.00  0.00    +0.000 C 
ATOM     10  C   UNL     1       1.976   4.712  20.283  0.00  0.00    +0.000 C 
ATOM     11  C   UNL     1       2.542   5.811  19.399  0.00  0.00    +0.000 C 
ATOM     12  C   UNL     1       2.514   5.827  18.042  0.00  0.00    +0.000 C 
ATOM     13  C   UNL     1       1.652   4.888  17.237  0.00  0.00    +0.000 C 
ATOM     14  C   UNL     1       3.353   6.823  17.237  0.00  0.00    +0.000 C 
ATOM     15  C   UNL     1       4.816   6.391  16.803  0.00  0.00    +0.000 C 
ATOM     16  C   UNL     1       5.753   6.103  18.041  0.00  0.00    +0.000 C 
ENDROOT
BRANCH   8  17
ATOM     17  C   UNL     1       3.748   2.400  18.313  0.00  0.00    +0.000 C 
ATOM     18  O   UNL     1       2.896   1.532  18.282  0.00  0.00    +0.000 OA
BRANCH  17  19
ATOM     19  O   UNL     1       4.584   2.617  17.278  0.00  0.00    +0.000 OA
ATOM     20  H   UNL     1       4.184   2.447  16.401  0.00  0.00    +0.000 HD
ENDBRANCH  17  19
ENDBRANCH   8  17
BRANCH  15  21
ATOM     21  O   UNL     1       4.772   5.226  15.935  0.00  0.00    +0.000 OA
BRANCH  21  22
ATOM     22  C   UNL     1       5.749   5.018  15.013  0.00  0.00    +0.000 C 
ATOM     23  O   UNL     1       6.864   5.511  15.032  0.00  0.00    +0.000 OA
BRANCH  22  24
ATOM     24  C   UNL     1       5.211   4.094  13.971  0.00  0.00    +0.000 C 
ATOM     25  C   UNL     1       5.761   3.764  12.782  0.00  0.00    +0.000 C 
ATOM     26  C   UNL     1       7.089   4.260  12.285  0.00  0.00    +0.000 C 
BRANCH  25  27
ATOM     27  C   UNL     1       5.071   2.755  11.877  0.00  0.00    +0.000 C 
ATOM     28  C   UNL     1       3.907   3.308  11.066  0.00  0.00    +0.000 C 
ENDBRANCH  25  27
ENDBRANCH  22  24
ENDBRANCH  21  22
ENDBRANCH  15  21
TORSDOF 6
ENDMDL
MODEL 3
REMARK VINA RESULT:      -8.4      1.128      1.877
REMARK  Name = 
REMARK  9 active torsions:
REMARK  status: ('A' for Active; 'I' for Inactive)
REMARK    1  A    between atoms: C_8  and  C_9
REMARK    2  A    between atoms: C_9  and  O_11
REMARK    3  A    between atoms: C_15  and  C_16
REMARK    4  A    between atoms: C_18  and  O_19
REMARK    5  A    between atoms: O_19  and  C_20
REMARK    6  A    between atoms: C_20  and  C_22
REMARK    7  A    between atoms: C_23  and  C_24
REMARK    8  A    between atoms: C_23  and  C_25
REMARK    9  A    between atoms: C_25  and  C_26
REMARK                            x       y       z     vdW  Elec       q    Type
REMARK                         _______ _______ _______ _____ _____    ______ ____
ROOT
ATOM      1  C   UNL     1       2.416   8.829  17.704  0.00  0.00    +0.000 C 
ATOM      2  C   UNL     1       2.399   7.806  18.569  0.00  0.00    +0.000 C 
ATOM      3  C   UNL     1       1.753   8.085  19.877  0.00  0.00    +0.000 C 
ATOM      4  O   UNL     1       1.019   9.023  20.131  0.00  0.00    +0.000 OA
ATOM      5  O   UNL     1       1.972   7.037  20.689  0.00  0.00    +0.000 OA
ATOM      6  C   UNL     1       2.508   5.936  19.955  0.00  0.00    +0.000 C 
ATOM      7  C   UNL     1       1.475   4.869  20.147  0.00  0.00    +0.000 C 
ATOM      8  C   UNL     1       1.619   3.595  20.562  0.00  0.00    +0.000 C 
ATOM      9  C   UNL     1       0.496   2.641  20.158  0.00  0.00    +0.000 C 
ATOM     10  C   UNL     1       0.550   2.194  18.666  0.00  0.00    +0.000 C 
ATOM     11  C   UNL     1       1.267   3.160  17.738  0.00  0.00    +0.000 C 
ATOM     12  C   UNL     1       2.607   3.203  17.523  0.00  0.00    +0.000 C 
ATOM     13  C   UNL     1       3.535   2.099  17.959  0.00  0.00    +0.000 C 
ATOM     14  C   UNL     1       3.262   4.383  16.799  0.00  0.00    +0.000 C 
ATOM     15  C   UNL     1       3.767   5.609  17.670  0.00  0.00    +0.000 C 
ATOM     16  C   UNL     1       2.592   6.319  18.451  0.00  0.00    +0.000 C 
ENDROOT
BRANCH   8  17
ATOM     17  C   UNL     1       2.854   3.098  21.165  0.00  0.00    +0.000 C 
ATOM     18  O   UNL     1       3.970   3.236  20.700  0.00  0.00    +0.000 OA
BRANCH  17  19
ATOM     19  O   UNL     1       2.640   2.459  22.332  0.00  0.00    +0.000 OA
ATOM     20  H   UNL     1       3.170   1.643  22.441  0.00  0.00    +0.000 HD
ENDBRANCH  17  19
ENDBRANCH   8  17
BRANCH  15  21
ATOM     21  O   UNL     1       4.796   5.187  18.605  0.00  0.00    +0.000 OA
BRANCH  21  22
ATOM     22  C   UNL     1       6.089   5.073  18.199  0.00  0.00    +0.000 C 
ATOM     23  O   UNL     1       6.768   4.063  18.260  0.00  0.00    +0.000 OA
BRANCH  22  24
ATOM     24  C   UNL     1       6.529   6.402  17.680  0.00  0.00    +0.000 C 
ATOM     25  C   UNL     1       7.540   7.179  18.125  0.00  0.00    +0.000 C 
ATOM     26  C   UNL     1       8.469   6.817  19.248  0.00  0.00    +0.000 C 
BRANCH  25  27
ATOM     27  C   UNL     1       7.862   8.489  17.421  0.00  0.00    +0.000 C 
ATOM     28  C   UNL     1       8.566   9.527  18.283  0.00  0.00    +0.000 C 
ENDBRANCH  25  27
ENDBRANCH  22  24
ENDBRANCH  21  22
ENDBRANCH  15  21
TORSDOF 6
ENDMDL
MODEL 4
REMARK VINA RESULT:      -7.6      1.377      2.050
REMARK  Name = 
REMARK  9 active torsions:
REMARK  status: ('A' for Active; 'I' for Inactive)
REMARK    1  A    between atoms: C_8  and  C_9
REMARK    2  A    between atoms: C_9  and  O_11
REMARK    3  A    between atoms: C_15  and  C_16
REMARK    4  A    between atoms: C_18  and  O_19
REMARK    5  A    between atoms: O_19  and  C_20
REMARK    6  A    between atoms: C_20  and  C_22
REMARK    7  A    between atoms: C_23  and  C_24
REMARK    8  A    between atoms: C_23  and  C_25
REMARK    9  A    between atoms: C_25  and  C_26
REMARK                            x       y       z     vdW  Elec       q    Type
REMARK                         _______ _______ _______ _____ _____    ______ ____
ROOT
ATOM      1  C   UNL     1       2.040   8.377  17.602  0.00  0.00    +0.000 C 
ATOM      2  C   UNL     1       2.370   7.395  18.453  0.00  0.00    +0.000 C 
ATOM      3  C   UNL     1       2.182   7.707  19.892  0.00  0.00    +0.000 C 
ATOM      4  O   UNL     1       1.523   8.623  20.350  0.00  0.00    +0.000 OA
ATOM      5  O   UNL     1       2.718   6.710  20.615  0.00  0.00    +0.000 OA
ATOM      6  C   UNL     1       3.041   5.599  19.777  0.00  0.00    +0.000 C 
ATOM      7  C   UNL     1       2.193   4.499  20.335  0.00  0.00    +0.000 C 
ATOM      8  C   UNL     1       2.540   3.253  20.716  0.00  0.00    +0.000 C 
ATOM      9  C   UNL     1       1.402   2.232  20.740  0.00  0.00    +0.000 C 
ATOM     10  C   UNL     1       0.982   1.719  19.330  0.00  0.00    +0.000 C 
ATOM     11  C   UNL     1       1.293   2.671  18.187  0.00  0.00    +0.000 C 
ATOM     12  C   UNL     1       2.479   2.762  17.534  0.00  0.00    +0.000 C 
ATOM     13  C   UNL     1       3.561   1.721  17.667  0.00  0.00    +0.000 C 
ATOM     14  C   UNL     1       2.788   3.934  16.598  0.00  0.00    +0.000 C 
ATOM     15  C   UNL     1       3.483   5.220  17.213  0.00  0.00    +0.000 C 
ATOM     16  C   UNL     1       2.597   5.914  18.320  0.00  0.00    +0.000 C 
ENDROOT
BRANCH   8  17
ATOM     17  C   UNL     1       3.931   2.839  20.884  0.00  0.00    +0.000 C 
ATOM     18  O   UNL     1       4.311   1.908  21.569  0.00  0.00    +0.000 OA
BRANCH  17  19
ATOM     19  O   UNL     1       4.788   3.602  20.177  0.00  0.00    +0.000 OA
ATOM     20  H   UNL     1       4.973   3.263  19.278  0.00  0.00    +0.000 HD
ENDBRANCH  17  19
ENDBRANCH   8  17
BRANCH  15  21
ATOM     21  O   UNL     1       4.788   4.888  17.760  0.00  0.00    +0.000 OA
BRANCH  21  22
ATOM     22  C   UNL     1       5.887   4.874  16.960  0.00  0.00    +0.000 C 
ATOM     23  O   UNL     1       6.343   3.896  16.395  0.00  0.00    +0.000 OA
BRANCH  22  24
ATOM     24  C   UNL     1       6.438   6.260  16.909  0.00  0.00    +0.000 C 
ATOM     25  C   UNL     1       7.283   6.856  17.779  0.00  0.00    +0.000 C 
ATOM     26  C   UNL     1       7.876   6.192  18.989  0.00  0.00    +0.000 C 
BRANCH  25  27
ATOM     27  C   UNL     1       7.771   8.274  17.518  0.00  0.00    +0.000 C 
ATOM     28  C   UNL     1       8.678   8.850  18.597  0.00  0.00    +0.000 C 
ENDBRANCH  25  27
ENDBRANCH  22  24
ENDBRANCH  21  22
ENDBRANCH  15  21
TORSDOF 6
ENDMDL
MODEL 5
REMARK VINA RESULT:      -7.4      0.759      1.030
REMARK  Name = 
REMARK  9 active torsions:
REMARK  status: ('A' for Active; 'I' for Inactive)
REMARK    1  A    between atoms: C_8  and  C_9
REMARK    2  A    between atoms: C_9  and  O_11
REMARK    3  A    between atoms: C_15  and  C_16
REMARK    4  A    between atoms: C_18  and  O_19
REMARK    5  A    between atoms: O_19  and  C_20
REMARK    6  A    between atoms: C_20  and  C_22
REMARK    7  A    between atoms: C_23  and  C_24
REMARK    8  A    between atoms: C_23  and  C_25
REMARK    9  A    between atoms: C_25  and  C_26
REMARK                            x       y       z     vdW  Elec       q    Type
REMARK                         _______ _______ _______ _____ _____    ______ ____
ROOT
ATOM      1  C   UNL     1       2.479   8.606  17.553  0.00  0.00    +0.000 C 
ATOM      2  C   UNL     1       2.473   7.616  18.457  0.00  0.00    +0.000 C 
ATOM      3  C   UNL     1       1.901   7.964  19.781  0.00  0.00    +0.000 C 
ATOM      4  O   UNL     1       1.207   8.933  20.034  0.00  0.00    +0.000 OA
ATOM      5  O   UNL     1       2.127   6.941  20.622  0.00  0.00    +0.000 OA
ATOM      6  C   UNL     1       2.595   5.797  19.907  0.00  0.00    +0.000 C 
ATOM      7  C   UNL     1       1.542   4.770  20.188  0.00  0.00    +0.000 C 
ATOM      8  C   UNL     1       1.669   3.509  20.645  0.00  0.00    +0.000 C 
ATOM      9  C   UNL     1       0.500   2.575  20.332  0.00  0.00    +0.000 C 
ATOM     10  C   UNL     1       0.470   2.072  18.858  0.00  0.00    +0.000 C 
ATOM     11  C   UNL     1       1.169   2.980  17.860  0.00  0.00    +0.000 C 
ATOM     12  C   UNL     1       2.497   2.974  17.580  0.00  0.00    +0.000 C 
ATOM     13  C   UNL     1       3.413   1.858  18.015  0.00  0.00    +0.000 C 
ATOM     14  C   UNL     1       3.151   4.105  16.781  0.00  0.00    +0.000 C 
ATOM     15  C   UNL     1       3.732   5.346  17.580  0.00  0.00    +0.000 C 
ATOM     16  C   UNL     1       2.618   6.121  18.387  0.00  0.00    +0.000 C 
ENDROOT
BRANCH   8  17
ATOM     17  C   UNL     1       2.917   2.996  21.208  0.00  0.00    +0.000 C 
ATOM     18  O   UNL     1       4.026   3.171  20.739  0.00  0.00    +0.000 OA
BRANCH  17  19
ATOM     19  O   UNL     1       2.724   2.296  22.343  0.00  0.00    +0.000 OA
ATOM     20  H   UNL     1       1.915   2.548  22.833  0.00  0.00    +0.000 HD
ENDBRANCH  17  19
ENDBRANCH   8  17
BRANCH  15  21
ATOM     21  O   UNL     1       4.793   4.928  18.480  0.00  0.00    +0.000 OA
BRANCH  21  22
ATOM     22  C   UNL     1       6.091   5.217  18.196  0.00  0.00    +0.000 C 
ATOM     23  O   UNL     1       6.827   5.919  18.867  0.00  0.00    +0.000 OA
BRANCH  22  24
ATOM     24  C   UNL     1       6.447   4.533  16.918  0.00  0.00    +0.000 C 
ATOM     25  C   UNL     1       6.265   4.977  15.655  0.00  0.00    +0.000 C 
ATOM     26  C   UNL     1       5.680   6.312  15.291  0.00  0.00    +0.000 C 
BRANCH  25  27
ATOM     27  C   UNL     1       6.747   4.144  14.476  0.00  0.00    +0.000 C 
ATOM     28  C   UNL     1       7.331   4.943  13.320  0.00  0.00    +0.000 C 
ENDBRANCH  25  27
ENDBRANCH  22  24
ENDBRANCH  21  22
ENDBRANCH  15  21
TORSDOF 6
ENDMDL
MODEL 6
REMARK VINA RESULT:      -7.0      2.483      4.402
REMARK  Name = 
REMARK  9 active torsions:
REMARK  status: ('A' for Active; 'I' for Inactive)
REMARK    1  A    between atoms: C_8  and  C_9
REMARK    2  A    between atoms: C_9  and  O_11
REMARK    3  A    between atoms: C_15  and  C_16
REMARK    4  A    between atoms: C_18  and  O_19
REMARK    5  A    between atoms: O_19  and  C_20
REMARK    6  A    between atoms: C_20  and  C_22
REMARK    7  A    between atoms: C_23  and  C_24
REMARK    8  A    between atoms: C_23  and  C_25
REMARK    9  A    between atoms: C_25  and  C_26
REMARK                            x       y       z     vdW  Elec       q    Type
REMARK                         _______ _______ _______ _____ _____    ______ ____
ROOT
ATOM      1  C   UNL     1       7.939   7.480  18.534  0.00  0.00    +0.000 C 
ATOM      2  C   UNL     1       7.241   6.336  18.533  0.00  0.00    +0.000 C 
ATOM      3  C   UNL     1       7.960   5.150  19.062  0.00  0.00    +0.000 C 
ATOM      4  O   UNL     1       8.977   5.163  19.731  0.00  0.00    +0.000 OA
ATOM      5  O   UNL     1       7.207   4.061  18.830  0.00  0.00    +0.000 OA
ATOM      6  C   UNL     1       5.897   4.437  18.403  0.00  0.00    +0.000 C 
ATOM      7  C   UNL     1       5.017   3.857  19.466  0.00  0.00    +0.000 C 
ATOM      8  C   UNL     1       3.931   3.068  19.349  0.00  0.00    +0.000 C 
ATOM      9  C   UNL     1       2.976   3.081  20.543  0.00  0.00    +0.000 C 
ATOM     10  C   UNL     1       2.082   4.355  20.624  0.00  0.00    +0.000 C 
ATOM     11  C   UNL     1       2.658   5.582  19.936  0.00  0.00    +0.000 C 
ATOM     12  C   UNL     1       2.540   5.877  18.617  0.00  0.00    +0.000 C 
ATOM     13  C   UNL     1       1.568   5.168  17.709  0.00  0.00    +0.000 C 
ATOM     14  C   UNL     1       3.386   6.975  17.966  0.00  0.00    +0.000 C 
ATOM     15  C   UNL     1       4.786   6.569  17.340  0.00  0.00    +0.000 C 
ATOM     16  C   UNL     1       5.783   5.987  18.418  0.00  0.00    +0.000 C 
ENDROOT
BRANCH   8  17
ATOM     17  C   UNL     1       3.565   2.411  18.096  0.00  0.00    +0.000 C 
ATOM     18  O   UNL     1       4.054   2.649  17.007  0.00  0.00    +0.000 OA
BRANCH  17  19
ATOM     19  O   UNL     1       2.610   1.475  18.260  0.00  0.00    +0.000 OA
ATOM     20  H   UNL     1       2.349   1.333  19.193  0.00  0.00    +0.000 HD
ENDBRANCH  17  19
ENDBRANCH   8  17
BRANCH  15  21
ATOM     21  O   UNL     1       4.609   5.611  16.262  0.00  0.00    +0.000 OA
BRANCH  21  22
ATOM     22  C   UNL     1       5.004   5.917  14.997  0.00  0.00    +0.000 C 
ATOM     23  O   UNL     1       5.172   7.040  14.556  0.00  0.00    +0.000 OA
BRANCH  22  24
ATOM     24  C   UNL     1       5.182   4.638  14.247  0.00  0.00    +0.000 C 
ATOM     25  C   UNL     1       6.233   4.251  13.493  0.00  0.00    +0.000 C 
ATOM     26  C   UNL     1       7.486   5.056  13.292  0.00  0.00    +0.000 C 
BRANCH  25  27
ATOM     27  C   UNL     1       6.242   2.874  12.846  0.00  0.00    +0.000 C 
ATOM     28  C   UNL     1       5.243   2.690  11.712  0.00  0.00    +0.000 C 
ENDBRANCH  25  27
ENDBRANCH  22  24
ENDBRANCH  21  22
ENDBRANCH  15  21
TORSDOF 6
ENDMDL
MODEL 7
REMARK VINA RESULT:      -6.6      2.375      4.056
REMARK  Name = 
REMARK  9 active torsions:
REMARK  status: ('A' for Active; 'I' for Inactive)
REMARK    1  A    between atoms: C_8  and  C_9
REMARK    2  A    between atoms: C_9  and  O_11
REMARK    3  A    between atoms: C_15  and  C_16
REMARK    4  A    between atoms: C_18  and  O_19
REMARK    5  A    between atoms: O_19  and  C_20
REMARK    6  A    between atoms: C_20  and  C_22
REMARK    7  A    between atoms: C_23  and  C_24
REMARK    8  A    between atoms: C_23  and  C_25
REMARK    9  A    between atoms: C_25  and  C_26
REMARK                            x       y       z     vdW  Elec       q    Type
REMARK                         _______ _______ _______ _____ _____    ______ ____
ROOT
ATOM      1  C   UNL     1       7.819   7.241  17.935  0.00  0.00    +0.000 C 
ATOM      2  C   UNL     1       7.034   6.209  18.275  0.00  0.00    +0.000 C 
ATOM      3  C   UNL     1       7.634   5.236  19.223  0.00  0.00    +0.000 C 
ATOM      4  O   UNL     1       8.620   5.418  19.913  0.00  0.00    +0.000 OA
ATOM      5  O   UNL     1       6.809   4.181  19.324  0.00  0.00    +0.000 OA
ATOM      6  C   UNL     1       5.552   4.464  18.709  0.00  0.00    +0.000 C 
ATOM      7  C   UNL     1       4.585   4.337  19.844  0.00  0.00    +0.000 C 
ATOM      8  C   UNL     1       3.446   3.622  19.929  0.00  0.00    +0.000 C 
ATOM      9  C   UNL     1       2.445   4.101  20.981  0.00  0.00    +0.000 C 
ATOM     10  C   UNL     1       1.651   5.375  20.564  0.00  0.00    +0.000 C 
ATOM     11  C   UNL     1       2.350   6.256  19.541  0.00  0.00    +0.000 C 
ATOM     12  C   UNL     1       2.312   6.087  18.196  0.00  0.00    +0.000 C 
ATOM     13  C   UNL     1       1.327   5.168  17.520  0.00  0.00    +0.000 C 
ATOM     14  C   UNL     1       3.269   6.842  17.268  0.00  0.00    +0.000 C 
ATOM     15  C   UNL     1       4.658   6.164  16.912  0.00  0.00    +0.000 C 
ATOM     16  C   UNL     1       5.559   5.929  18.188  0.00  0.00    +0.000 C 
ENDROOT
BRANCH   8  17
ATOM     17  C   UNL     1       3.083   2.598  18.951  0.00  0.00    +0.000 C 
ATOM     18  O   UNL     1       1.957   2.373  18.551  0.00  0.00    +0.000 OA
BRANCH  17  19
ATOM     19  O   UNL     1       4.150   1.905  18.506  0.00  0.00    +0.000 OA
ATOM     20  H   UNL     1       4.922   1.933  19.108  0.00  0.00    +0.000 HD
ENDBRANCH  17  19
ENDBRANCH   8  17
BRANCH  15  21
ATOM     21  O   UNL     1       4.453   4.906  16.215  0.00  0.00    +0.000 OA
BRANCH  21  22
ATOM     22  C   UNL     1       5.512   4.117  15.892  0.00  0.00    +0.000 C 
ATOM     23  O   UNL     1       5.665   2.957  16.232  0.00  0.00    +0.000 OA
BRANCH  22  24
ATOM     24  C   UNL     1       6.453   4.925  15.062  0.00  0.00    +0.000 C 
ATOM     25  C   UNL     1       6.829   4.715  13.781  0.00  0.00    +0.000 C 
ATOM     26  C   UNL     1       6.318   3.604  12.909  0.00  0.00    +0.000 C 
BRANCH  25  27
ATOM     27  C   UNL     1       7.770   5.693  13.093  0.00  0.00    +0.000 C 
ATOM     28  C   UNL     1       7.729   5.661  11.571  0.00  0.00    +0.000 C 
ENDBRANCH  25  27
ENDBRANCH  22  24
ENDBRANCH  21  22
ENDBRANCH  15  21
TORSDOF 6
ENDMDL
MODEL 8
REMARK VINA RESULT:      -6.5      7.350     11.119
REMARK  Name = 
REMARK  9 active torsions:
REMARK  status: ('A' for Active; 'I' for Inactive)
REMARK    1  A    between atoms: C_8  and  C_9
REMARK    2  A    between atoms: C_9  and  O_11
REMARK    3  A    between atoms: C_15  and  C_16
REMARK    4  A    between atoms: C_18  and  O_19
REMARK    5  A    between atoms: O_19  and  C_20
REMARK    6  A    between atoms: C_20  and  C_22
REMARK    7  A    between atoms: C_23  and  C_24
REMARK    8  A    between atoms: C_23  and  C_25
REMARK    9  A    between atoms: C_25  and  C_26
REMARK                            x       y       z     vdW  Elec       q    Type
REMARK                         _______ _______ _______ _____ _____    ______ ____
ROOT
ATOM      1  C   UNL     1       0.734  10.544  20.783  0.00  0.00    +0.000 C 
ATOM      2  C   UNL     1      -0.276  10.972  21.552  0.00  0.00    +0.000 C 
ATOM      3  C   UNL     1      -0.373  10.339  22.890  0.00  0.00    +0.000 C 
ATOM      4  O   UNL     1       0.499   9.700  23.449  0.00  0.00    +0.000 OA
ATOM      5  O   UNL     1      -1.523  10.733  23.463  0.00  0.00    +0.000 OA
ATOM      6  C   UNL     1      -2.115  11.800  22.720  0.00  0.00    +0.000 C 
ATOM      7  C   UNL     1      -2.149  12.921  23.710  0.00  0.00    +0.000 C 
ATOM      8  C   UNL     1      -3.174  13.713  24.080  0.00  0.00    +0.000 C 
ATOM      9  C   UNL     1      -2.781  15.057  24.693  0.00  0.00    +0.000 C 
ATOM     10  C   UNL     1      -2.302  16.111  23.650  0.00  0.00    +0.000 C 
ATOM     11  C   UNL     1      -1.742  15.527  22.363  0.00  0.00    +0.000 C 
ATOM     12  C   UNL     1      -2.473  15.147  21.285  0.00  0.00    +0.000 C 
ATOM     13  C   UNL     1      -3.920  15.529  21.108  0.00  0.00    +0.000 C 
ATOM     14  C   UNL     1      -1.858  14.312  20.158  0.00  0.00    +0.000 C 
ATOM     15  C   UNL     1      -1.939  12.731  20.267  0.00  0.00    +0.000 C 
ATOM     16  C   UNL     1      -1.180  12.175  21.535  0.00  0.00    +0.000 C 
ENDROOT
BRANCH   8  17
ATOM     17  C   UNL     1      -4.563  13.419  23.730  0.00  0.00    +0.000 C 
ATOM     18  O   UNL     1      -4.938  12.461  23.081  0.00  0.00    +0.000 OA
BRANCH  17  19
ATOM     19  O   UNL     1      -5.425  14.332  24.220  0.00  0.00    +0.000 OA
ATOM     20  H   UNL     1      -6.327  13.985  24.374  0.00  0.00    +0.000 HD
ENDBRANCH  17  19
ENDBRANCH   8  17
BRANCH  15  21
ATOM     21  O   UNL     1      -3.322  12.287  20.285  0.00  0.00    +0.000 OA
BRANCH  21  22
ATOM     22  C   UNL     1      -4.038  12.217  19.131  0.00  0.00    +0.000 C 
ATOM     23  O   UNL     1      -5.199  12.560  18.991  0.00  0.00    +0.000 OA
BRANCH  22  24
ATOM     24  C   UNL     1      -3.156  11.637  18.076  0.00  0.00    +0.000 C 
ATOM     25  C   UNL     1      -3.145  10.374  17.597  0.00  0.00    +0.000 C 
ATOM     26  C   UNL     1      -4.084   9.285  18.031  0.00  0.00    +0.000 C 
BRANCH  25  27
ATOM     27  C   UNL     1      -2.192   9.992  16.474  0.00  0.00    +0.000 C 
ATOM     28  C   UNL     1      -2.790  10.051  15.075  0.00  0.00    +0.000 C 
ENDBRANCH  25  27
ENDBRANCH  22  24
ENDBRANCH  21  22
ENDBRANCH  15  21
TORSDOF 6
ENDMDL
MODEL 9
REMARK VINA RESULT:      -6.4      2.320      5.625
REMARK  Name = 
REMARK  9 active torsions:
REMARK  status: ('A' for Active; 'I' for Inactive)
REMARK    1  A    between atoms: C_8  and  C_9
REMARK    2  A    between atoms: C_9  and  O_11
REMARK    3  A    between atoms: C_15  and  C_16
REMARK    4  A    between atoms: C_18  and  O_19
REMARK    5  A    between atoms: O_19  and  C_20
REMARK    6  A    between atoms: C_20  and  C_22
REMARK    7  A    between atoms: C_23  and  C_24
REMARK    8  A    between atoms: C_23  and  C_25
REMARK    9  A    between atoms: C_25  and  C_26
REMARK                            x       y       z     vdW  Elec       q    Type
REMARK                         _______ _______ _______ _____ _____    ______ ____
ROOT
ATOM      1  C   UNL     1       7.149   6.376  15.864  0.00  0.00    +0.000 C 
ATOM      2  C   UNL     1       6.092   5.565  16.017  0.00  0.00    +0.000 C 
ATOM      3  C   UNL     1       5.884   4.576  14.930  0.00  0.00    +0.000 C 
ATOM      4  O   UNL     1       6.701   4.249  14.088  0.00  0.00    +0.000 OA
ATOM      5  O   UNL     1       4.703   3.968  15.132  0.00  0.00    +0.000 OA
ATOM      6  C   UNL     1       4.189   4.285  16.426  0.00  0.00    +0.000 C 
ATOM      7  C   UNL     1       4.105   2.947  17.091  0.00  0.00    +0.000 C 
ATOM      8  C   UNL     1       3.070   2.367  17.731  0.00  0.00    +0.000 C 
ATOM      9  C   UNL     1       3.443   1.267  18.725  0.00  0.00    +0.000 C 
ATOM     10  C   UNL     1       4.018   1.800  20.071  0.00  0.00    +0.000 C 
ATOM     11  C   UNL     1       4.660   3.176  19.990  0.00  0.00    +0.000 C 
ATOM     12  C   UNL     1       4.004   4.361  20.080  0.00  0.00    +0.000 C 
ATOM     13  C   UNL     1       2.581   4.467  20.566  0.00  0.00    +0.000 C 
ATOM     14  C   UNL     1       4.683   5.680  19.704  0.00  0.00    +0.000 C 
ATOM     15  C   UNL     1       4.564   6.184  18.205  0.00  0.00    +0.000 C 
ATOM     16  C   UNL     1       5.216   5.179  17.176  0.00  0.00    +0.000 C 
ENDROOT
BRANCH   8  17
ATOM     17  C   UNL     1       1.706   2.886  17.655  0.00  0.00    +0.000 C 
ATOM     18  O   UNL     1       1.375   3.920  17.106  0.00  0.00    +0.000 OA
BRANCH  17  19
ATOM     19  O   UNL     1       0.810   2.080  18.260  0.00  0.00    +0.000 OA
ATOM     20  H   UNL     1       0.899   1.136  18.019  0.00  0.00    +0.000 HD
ENDBRANCH  17  19
ENDBRANCH   8  17
BRANCH  15  21
ATOM     21  O   UNL     1       3.174   6.421  17.851  0.00  0.00    +0.000 OA
BRANCH  21  22
ATOM     22  C   UNL     1       2.613   7.644  18.046  0.00  0.00    +0.000 C 
ATOM     23  O   UNL     1       2.483   8.510  17.199  0.00  0.00    +0.000 OA
BRANCH  22  24
ATOM     24  C   UNL     1       2.198   7.738  19.476  0.00  0.00    +0.000 C 
ATOM     25  C   UNL     1       1.400   8.662  20.055  0.00  0.00    +0.000 C 
ATOM     26  C   UNL     1       0.726   9.789  19.327  0.00  0.00    +0.000 C 
BRANCH  25  27
ATOM     27  C   UNL     1       1.054   8.552  21.533  0.00  0.00    +0.000 C 
ATOM     28  C   UNL     1      -0.422   8.725  21.863  0.00  0.00    +0.000 C 
ENDBRANCH  25  27
ENDBRANCH  22  24
ENDBRANCH  21  22
ENDBRANCH  15  21
TORSDOF 6
ENDMDL
