MODEL 1
REMARK VINA RESULT:      -7.6      0.000      0.000
REMARK  Name = 
REMARK  1 active torsions:
REMARK  status: ('A' for Active; 'I' for Inactive)
REMARK    1  A    between atoms: C_2  and  C_3
REMARK                            x       y       z     vdW  Elec       q    Type
REMARK                         _______ _______ _______ _____ _____    ______ ____
ROOT
ATOM      1  O   UNL     1       6.620   4.386  18.936  0.00  0.00    +0.000 OA
ATOM      2  C   UNL     1       5.800   4.341  18.017  0.00  0.00    +0.000 C 
ATOM      3  N   UNL     1       4.409   4.284  18.288  0.00  0.00    +0.000 N 
ATOM      4  C   UNL     1       3.971   4.293  19.683  0.00  0.00    +0.000 C 
ATOM      5  C   UNL     1       3.484   2.921  20.151  0.00  0.00    +0.000 C 
ATOM      6  C   UNL     1       2.166   2.445  19.541  0.00  0.00    +0.000 C 
ATOM      7  C   UNL     1       2.087   2.503  18.017  0.00  0.00    +0.000 C 
ATOM      8  C   UNL     1       2.023   3.939  17.505  0.00  0.00    +0.000 C 
ATOM      9  C   UNL     1       3.394   4.561  17.269  0.00  0.00    +0.000 C 
ENDROOT
BRANCH   2  10
ATOM     10  C   UNL     1       6.226   4.411  16.629  0.00  0.00    +0.000 A 
ATOM     11  C   UNL     1       7.143   5.239  16.006  0.00  0.00    +0.000 A 
ATOM     12  C   UNL     1       7.116   4.925  14.621  0.00  0.00    +0.000 A 
ATOM     13  C   UNL     1       7.740   5.413  13.461  0.00  0.00    +0.000 A 
ATOM     14  C   UNL     1       7.424   4.822  12.227  0.00  0.00    +0.000 A 
ATOM     15  C   UNL     1       6.502   3.775  12.143  0.00  0.00    +0.000 A 
ATOM     16  C   UNL     1       5.871   3.276  13.285  0.00  0.00    +0.000 A 
ATOM     17  C   UNL     1       6.216   3.874  14.495  0.00  0.00    +0.000 A 
ATOM     18  O   UNL     1       5.722   3.528  15.711  0.00  0.00    +0.000 OA
ENDBRANCH   2  10
TORSDOF 1
ENDMDL
MODEL 2
REMARK VINA RESULT:      -7.5      0.725      1.436
REMARK  Name = 
REMARK  1 active torsions:
REMARK  status: ('A' for Active; 'I' for Inactive)
REMARK    1  A    between atoms: C_2  and  C_3
REMARK                            x       y       z     vdW  Elec       q    Type
REMARK                         _______ _______ _______ _____ _____    ______ ____
ROOT
ATOM      1  O   UNL     1       6.444   4.255  18.805  0.00  0.00    +0.000 OA
ATOM      2  C   UNL     1       5.548   4.323  17.961  0.00  0.00    +0.000 C 
ATOM      3  N   UNL     1       4.193   4.470  18.354  0.00  0.00    +0.000 N 
ATOM      4  C   UNL     1       3.886   4.550  19.782  0.00  0.00    +0.000 C 
ATOM      5  C   UNL     1       3.251   3.267  20.317  0.00  0.00    +0.000 C 
ATOM      6  C   UNL     1       1.829   2.982  19.833  0.00  0.00    +0.000 C 
ATOM      7  C   UNL     1       1.624   3.043  18.321  0.00  0.00    +0.000 C 
ATOM      8  C   UNL     1       1.722   4.470  17.789  0.00  0.00    +0.000 C 
ATOM      9  C   UNL     1       3.141   4.885  17.423  0.00  0.00    +0.000 C 
ENDROOT
BRANCH   2  10
ATOM     10  C   UNL     1       5.854   4.323  16.540  0.00  0.00    +0.000 A 
ATOM     11  C   UNL     1       5.346   3.555  15.508  0.00  0.00    +0.000 A 
ATOM     12  C   UNL     1       6.051   3.921  14.330  0.00  0.00    +0.000 A 
ATOM     13  C   UNL     1       6.067   3.502  12.989  0.00  0.00    +0.000 A 
ATOM     14  C   UNL     1       6.954   4.127  12.098  0.00  0.00    +0.000 A 
ATOM     15  C   UNL     1       7.816   5.139  12.529  0.00  0.00    +0.000 A 
ATOM     16  C   UNL     1       7.815   5.570  13.859  0.00  0.00    +0.000 A 
ATOM     17  C   UNL     1       6.914   4.940  14.713  0.00  0.00    +0.000 A 
ATOM     18  O   UNL     1       6.755   5.220  16.032  0.00  0.00    +0.000 OA
ENDBRANCH   2  10
TORSDOF 1
ENDMDL
MODEL 3
REMARK VINA RESULT:      -7.2      2.949      4.035
REMARK  Name = 
REMARK  1 active torsions:
REMARK  status: ('A' for Active; 'I' for Inactive)
REMARK    1  A    between atoms: C_2  and  C_3
REMARK                            x       y       z     vdW  Elec       q    Type
REMARK                         _______ _______ _______ _____ _____    ______ ____
ROOT
ATOM      1  O   UNL     1       4.178   2.625  16.891  0.00  0.00    +0.000 OA
ATOM      2  C   UNL     1       4.156   3.410  17.842  0.00  0.00    +0.000 C 
ATOM      3  N   UNL     1       3.334   3.159  18.970  0.00  0.00    +0.000 N 
ATOM      4  C   UNL     1       2.523   1.942  18.984  0.00  0.00    +0.000 C 
ATOM      5  C   UNL     1       1.039   2.225  18.748  0.00  0.00    +0.000 C 
ATOM      6  C   UNL     1       0.316   2.949  19.884  0.00  0.00    +0.000 C 
ATOM      7  C   UNL     1       0.990   4.224  20.386  0.00  0.00    +0.000 C 
ATOM      8  C   UNL     1       2.280   3.927  21.144  0.00  0.00    +0.000 C 
ATOM      9  C   UNL     1       3.509   3.857  20.246  0.00  0.00    +0.000 C 
ENDROOT
BRANCH   2  10
ATOM     10  C   UNL     1       5.018   4.580  17.868  0.00  0.00    +0.000 A 
ATOM     11  C   UNL     1       4.956   5.763  17.155  0.00  0.00    +0.000 A 
ATOM     12  C   UNL     1       6.093   6.531  17.520  0.00  0.00    +0.000 A 
ATOM     13  C   UNL     1       6.646   7.766  17.140  0.00  0.00    +0.000 A 
ATOM     14  C   UNL     1       7.839   8.186  17.749  0.00  0.00    +0.000 A 
ATOM     15  C   UNL     1       8.478   7.395  18.707  0.00  0.00    +0.000 A 
ATOM     16  C   UNL     1       7.945   6.164  19.099  0.00  0.00    +0.000 A 
ATOM     17  C   UNL     1       6.754   5.783  18.487  0.00  0.00    +0.000 A 
ATOM     18  O   UNL     1       6.077   4.633  18.736  0.00  0.00    +0.000 OA
ENDBRANCH   2  10
TORSDOF 1
ENDMDL
MODEL 4
REMARK VINA RESULT:      -7.1      4.289      6.720
REMARK  Name = 
REMARK  1 active torsions:
REMARK  status: ('A' for Active; 'I' for Inactive)
REMARK    1  A    between atoms: C_2  and  C_3
REMARK                            x       y       z     vdW  Elec       q    Type
REMARK                         _______ _______ _______ _____ _____    ______ ____
ROOT
ATOM      1  O   UNL     1       4.609   5.962  18.468  0.00  0.00    +0.000 OA
ATOM      2  C   UNL     1       3.469   5.908  18.933  0.00  0.00    +0.000 C 
ATOM      3  N   UNL     1       2.958   4.697  19.464  0.00  0.00    +0.000 N 
ATOM      4  C   UNL     1       3.821   3.515  19.458  0.00  0.00    +0.000 C 
ATOM      5  C   UNL     1       3.409   2.496  18.396  0.00  0.00    +0.000 C 
ATOM      6  C   UNL     1       2.090   1.767  18.657  0.00  0.00    +0.000 C 
ATOM      7  C   UNL     1       0.894   2.662  18.973  0.00  0.00    +0.000 C 
ATOM      8  C   UNL     1       1.021   3.319  20.344  0.00  0.00    +0.000 C 
ATOM      9  C   UNL     1       1.767   4.646  20.316  0.00  0.00    +0.000 C 
ENDROOT
BRANCH   2  10
ATOM     10  C   UNL     1       2.636   7.097  19.013  0.00  0.00    +0.000 A 
ATOM     11  C   UNL     1       2.226   7.980  18.031  0.00  0.00    +0.000 A 
ATOM     12  C   UNL     1       1.483   9.005  18.675  0.00  0.00    +0.000 A 
ATOM     13  C   UNL     1       0.852  10.198  18.282  0.00  0.00    +0.000 A 
ATOM     14  C   UNL     1       0.211  10.975  19.259  0.00  0.00    +0.000 A 
ATOM     15  C   UNL     1       0.203  10.585  20.601  0.00  0.00    +0.000 A 
ATOM     16  C   UNL     1       0.824   9.402  21.012  0.00  0.00    +0.000 A 
ATOM     17  C   UNL     1       1.439   8.647  20.017  0.00  0.00    +0.000 A 
ATOM     18  O   UNL     1       2.085   7.470  20.211  0.00  0.00    +0.000 OA
ENDBRANCH   2  10
TORSDOF 1
ENDMDL
MODEL 5
REMARK VINA RESULT:      -7.1      5.465      8.450
REMARK  Name = 
REMARK  1 active torsions:
REMARK  status: ('A' for Active; 'I' for Inactive)
REMARK    1  A    between atoms: C_2  and  C_3
REMARK                            x       y       z     vdW  Elec       q    Type
REMARK                         _______ _______ _______ _____ _____    ______ ____
ROOT
ATOM      1  O   UNL     1       2.808   7.873  18.182  0.00  0.00    +0.000 OA
ATOM      2  C   UNL     1       2.256   7.386  19.171  0.00  0.00    +0.000 C 
ATOM      3  N   UNL     1       2.365   6.001  19.453  0.00  0.00    +0.000 N 
ATOM      4  C   UNL     1       3.158   5.167  18.550  0.00  0.00    +0.000 C 
ATOM      5  C   UNL     1       2.288   4.280  17.659  0.00  0.00    +0.000 C 
ATOM      6  C   UNL     1       1.555   3.144  18.372  0.00  0.00    +0.000 C 
ATOM      7  C   UNL     1       0.747   3.552  19.602  0.00  0.00    +0.000 C 
ATOM      8  C   UNL     1       1.648   3.955  20.767  0.00  0.00    +0.000 C 
ATOM      9  C   UNL     1       2.026   5.430  20.759  0.00  0.00    +0.000 C 
ENDROOT
BRANCH   2  10
ATOM     10  C   UNL     1       1.533   8.223  20.115  0.00  0.00    +0.000 A 
ATOM     11  C   UNL     1       1.349   8.094  21.479  0.00  0.00    +0.000 A 
ATOM     12  C   UNL     1       0.498   9.155  21.888  0.00  0.00    +0.000 A 
ATOM     13  C   UNL     1      -0.107   9.562  23.089  0.00  0.00    +0.000 A 
ATOM     14  C   UNL     1      -0.926  10.702  23.079  0.00  0.00    +0.000 A 
ATOM     15  C   UNL     1      -1.150  11.419  21.900  0.00  0.00    +0.000 A 
ATOM     16  C   UNL     1      -0.558  11.031  20.695  0.00  0.00    +0.000 A 
ATOM     17  C   UNL     1       0.260   9.905  20.743  0.00  0.00    +0.000 A 
ATOM     18  O   UNL     1       0.928   9.375  19.686  0.00  0.00    +0.000 OA
ENDBRANCH   2  10
TORSDOF 1
ENDMDL
MODEL 6
REMARK VINA RESULT:      -6.9      3.044      4.082
REMARK  Name = 
REMARK  1 active torsions:
REMARK  status: ('A' for Active; 'I' for Inactive)
REMARK    1  A    between atoms: C_2  and  C_3
REMARK                            x       y       z     vdW  Elec       q    Type
REMARK                         _______ _______ _______ _____ _____    ______ ____
ROOT
ATOM      1  O   UNL     1       3.263   3.495  16.425  0.00  0.00    +0.000 OA
ATOM      2  C   UNL     1       3.709   3.702  17.556  0.00  0.00    +0.000 C 
ATOM      3  N   UNL     1       3.151   3.050  18.685  0.00  0.00    +0.000 N 
ATOM      4  C   UNL     1       2.043   2.119  18.475  0.00  0.00    +0.000 C 
ATOM      5  C   UNL     1       0.701   2.696  18.926  0.00  0.00    +0.000 C 
ATOM      6  C   UNL     1       0.527   2.860  20.436  0.00  0.00    +0.000 C 
ATOM      7  C   UNL     1       1.652   3.607  21.151  0.00  0.00    +0.000 C 
ATOM      8  C   UNL     1       2.939   2.789  21.197  0.00  0.00    +0.000 C 
ATOM      9  C   UNL     1       3.832   2.993  19.981  0.00  0.00    +0.000 C 
ENDROOT
BRANCH   2  10
ATOM     10  C   UNL     1       4.860   4.565  17.761  0.00  0.00    +0.000 A 
ATOM     11  C   UNL     1       5.964   4.419  18.582  0.00  0.00    +0.000 A 
ATOM     12  C   UNL     1       6.746   5.596  18.444  0.00  0.00    +0.000 A 
ATOM     13  C   UNL     1       7.924   6.102  19.018  0.00  0.00    +0.000 A 
ATOM     14  C   UNL     1       8.385   7.364  18.611  0.00  0.00    +0.000 A 
ATOM     15  C   UNL     1       7.687   8.116  17.663  0.00  0.00    +0.000 A 
ATOM     16  C   UNL     1       6.512   7.631  17.079  0.00  0.00    +0.000 A 
ATOM     17  C   UNL     1       6.091   6.370  17.494  0.00  0.00    +0.000 A 
ATOM     18  O   UNL     1       4.985   5.725  17.042  0.00  0.00    +0.000 OA
ENDBRANCH   2  10
TORSDOF 1
ENDMDL
MODEL 7
REMARK VINA RESULT:      -6.8      4.419      6.805
REMARK  Name = 
REMARK  1 active torsions:
REMARK  status: ('A' for Active; 'I' for Inactive)
REMARK    1  A    between atoms: C_2  and  C_3
REMARK                            x       y       z     vdW  Elec       q    Type
REMARK                         _______ _______ _______ _____ _____    ______ ____
ROOT
ATOM      1  O   UNL     1       4.496   6.008  18.773  0.00  0.00    +0.000 OA
ATOM      2  C   UNL     1       3.374   5.905  19.274  0.00  0.00    +0.000 C 
ATOM      3  N   UNL     1       2.896   4.651  19.731  0.00  0.00    +0.000 N 
ATOM      4  C   UNL     1       3.770   3.485  19.605  0.00  0.00    +0.000 C 
ATOM      5  C   UNL     1       3.328   2.542  18.485  0.00  0.00    +0.000 C 
ATOM      6  C   UNL     1       2.028   1.779  18.740  0.00  0.00    +0.000 C 
ATOM      7  C   UNL     1       0.836   2.633  19.166  0.00  0.00    +0.000 C 
ATOM      8  C   UNL     1       1.008   3.187  20.578  0.00  0.00    +0.000 C 
ATOM      9  C   UNL     1       1.739   4.522  20.621  0.00  0.00    +0.000 C 
ENDROOT
BRANCH   2  10
ATOM     10  C   UNL     1       2.533   7.074  19.474  0.00  0.00    +0.000 A 
ATOM     11  C   UNL     1       1.900   7.547  20.609  0.00  0.00    +0.000 A 
ATOM     12  C   UNL     1       1.148   8.689  20.223  0.00  0.00    +0.000 A 
ATOM     13  C   UNL     1       0.263   9.579  20.853  0.00  0.00    +0.000 A 
ATOM     14  C   UNL     1      -0.309  10.612  20.094  0.00  0.00    +0.000 A 
ATOM     15  C   UNL     1      -0.019  10.755  18.735  0.00  0.00    +0.000 A 
ATOM     16  C   UNL     1       0.859   9.880  18.088  0.00  0.00    +0.000 A 
ATOM     17  C   UNL     1       1.420   8.875  18.873  0.00  0.00    +0.000 A 
ATOM     18  O   UNL     1       2.297   7.936  18.435  0.00  0.00    +0.000 OA
ENDBRANCH   2  10
TORSDOF 1
ENDMDL
MODEL 8
REMARK VINA RESULT:      -6.8      3.920      7.094
REMARK  Name = 
REMARK  1 active torsions:
REMARK  status: ('A' for Active; 'I' for Inactive)
REMARK    1  A    between atoms: C_2  and  C_3
REMARK                            x       y       z     vdW  Elec       q    Type
REMARK                         _______ _______ _______ _____ _____    ______ ____
ROOT
ATOM      1  O   UNL     1       2.631   4.536  17.398  0.00  0.00    +0.000 OA
ATOM      2  C   UNL     1       3.268   5.544  17.715  0.00  0.00    +0.000 C 
ATOM      3  N   UNL     1       4.576   5.761  17.213  0.00  0.00    +0.000 N 
ATOM      4  C   UNL     1       5.147   4.769  16.302  0.00  0.00    +0.000 C 
ATOM      5  C   UNL     1       6.220   3.911  16.972  0.00  0.00    +0.000 C 
ATOM      6  C   UNL     1       7.526   4.631  17.310  0.00  0.00    +0.000 C 
ATOM      7  C   UNL     1       7.375   5.934  18.093  0.00  0.00    +0.000 C 
ATOM      8  C   UNL     1       6.763   7.042  17.242  0.00  0.00    +0.000 C 
ATOM      9  C   UNL     1       5.241   7.065  17.277  0.00  0.00    +0.000 C 
ENDROOT
BRANCH   2  10
ATOM     10  C   UNL     1       2.676   6.571  18.556  0.00  0.00    +0.000 A 
ATOM     11  C   UNL     1       2.440   6.597  19.918  0.00  0.00    +0.000 A 
ATOM     12  C   UNL     1       1.773   7.818  20.204  0.00  0.00    +0.000 A 
ATOM     13  C   UNL     1       1.218   8.426  21.342  0.00  0.00    +0.000 A 
ATOM     14  C   UNL     1       0.607   9.683  21.204  0.00  0.00    +0.000 A 
ATOM     15  C   UNL     1       0.538  10.320  19.963  0.00  0.00    +0.000 A 
ATOM     16  C   UNL     1       1.084   9.732  18.818  0.00  0.00    +0.000 A 
ATOM     17  C   UNL     1       1.695   8.492  18.991  0.00  0.00    +0.000 A 
ATOM     18  O   UNL     1       2.288   7.766  18.010  0.00  0.00    +0.000 OA
ENDBRANCH   2  10
TORSDOF 1
ENDMDL
MODEL 9
REMARK VINA RESULT:      -6.8      5.251      8.181
REMARK  Name = 
REMARK  1 active torsions:
REMARK  status: ('A' for Active; 'I' for Inactive)
REMARK    1  A    between atoms: C_2  and  C_3
REMARK                            x       y       z     vdW  Elec       q    Type
REMARK                         _______ _______ _______ _____ _____    ______ ____
ROOT
ATOM      1  O   UNL     1       3.198   7.592  18.083  0.00  0.00    +0.000 OA
ATOM      2  C   UNL     1       2.468   7.216  19.003  0.00  0.00    +0.000 C 
ATOM      3  N   UNL     1       2.474   5.861  19.424  0.00  0.00    +0.000 N 
ATOM      4  C   UNL     1       3.374   4.926  18.750  0.00  0.00    +0.000 C 
ATOM      5  C   UNL     1       2.633   3.979  17.807  0.00  0.00    +0.000 C 
ATOM      6  C   UNL     1       1.746   2.933  18.484  0.00  0.00    +0.000 C 
ATOM      7  C   UNL     1       0.759   3.477  19.515  0.00  0.00    +0.000 C 
ATOM      8  C   UNL     1       1.464   3.969  20.775  0.00  0.00    +0.000 C 
ATOM      9  C   UNL     1       1.896   5.428  20.698  0.00  0.00    +0.000 C 
ENDROOT
BRANCH   2  10
ATOM     10  C   UNL     1       1.630   8.156  19.728  0.00  0.00    +0.000 A 
ATOM     11  C   UNL     1       1.028   9.331  19.317  0.00  0.00    +0.000 A 
ATOM     12  C   UNL     1       0.382   9.889  20.452  0.00  0.00    +0.000 A 
ATOM     13  C   UNL     1      -0.341  11.061  20.732  0.00  0.00    +0.000 A 
ATOM     14  C   UNL     1      -0.821  11.261  22.036  0.00  0.00    +0.000 A 
ATOM     15  C   UNL     1      -0.581  10.326  23.046  0.00  0.00    +0.000 A 
ATOM     16  C   UNL     1       0.137   9.154  22.788  0.00  0.00    +0.000 A 
ATOM     17  C   UNL     1       0.586   8.978  21.482  0.00  0.00    +0.000 A 
ATOM     18  O   UNL     1       1.290   7.909  21.032  0.00  0.00    +0.000 OA
ENDBRANCH   2  10
TORSDOF 1
ENDMDL
