MODEL 1
REMARK VINA RESULT:      -8.1      0.000      0.000
REMARK  Name = 
REMARK  7 active torsions:
REMARK  status: ('A' for Active; 'I' for Inactive)
REMARK    1  A    between atoms: C_1  and  O_2
REMARK    2  A    between atoms: O_2  and  C_3
REMARK    3  A    between atoms: C_3  and  C_5
REMARK    4  A    between atoms: C_5  and  O_6
REMARK    5  A    between atoms: O_6  and  C_7
REMARK    6  A    between atoms: C_13  and  O_14
REMARK    7  A    between atoms: C_13  and  C_15
REMARK                            x       y       z     vdW  Elec       q    Type
REMARK                         _______ _______ _______ _____ _____    ______ ____
ROOT
ATOM      1  C   UNL     1       2.237   6.644  19.837  0.00  0.00    +0.000 A 
ATOM      2  C   UNL     1       2.555   7.627  18.883  0.00  0.00    +0.000 A 
ATOM      3  C   UNL     1       3.387   7.347  17.794  0.00  0.00    +0.000 A 
ATOM      4  C   UNL     1       3.885   6.064  17.660  0.00  0.00    +0.000 A 
ATOM      5  C   UNL     1       3.572   5.075  18.618  0.00  0.00    +0.000 A 
ATOM      6  C   UNL     1       2.751   5.354  19.711  0.00  0.00    +0.000 A 
ATOM      7  C   UNL     1       4.220   3.747  18.225  0.00  0.00    +0.000 C 
ATOM      8  C   UNL     1       4.903   4.111  16.906  0.00  0.00    +0.000 A 
ATOM      9  C   UNL     1       5.649   3.302  16.056  0.00  0.00    +0.000 A 
ATOM     10  C   UNL     1       6.203   3.875  14.910  0.00  0.00    +0.000 A 
ATOM     11  C   UNL     1       6.014   5.237  14.628  0.00  0.00    +0.000 A 
ATOM     12  C   UNL     1       5.258   6.047  15.482  0.00  0.00    +0.000 A 
ATOM     13  C   UNL     1       4.704   5.478  16.619  0.00  0.00    +0.000 A 
ENDROOT
BRANCH   7  14
ATOM     14  C   UNL     1       3.210   2.574  18.102  0.00  0.00    +0.000 C 
ATOM     15  F   UNL     1       2.538   2.326  19.248  0.00  0.00    +0.000 F 
ATOM     16  F   UNL     1       2.289   2.760  17.129  0.00  0.00    +0.000 F 
ATOM     17  F   UNL     1       3.875   1.424  17.796  0.00  0.00    +0.000 F 
ENDBRANCH   7  14
BRANCH   7  18
ATOM     18  O   UNL     1       5.272   3.494  19.178  0.00  0.00    +0.000 OA
ATOM     19  H   UNL     1       5.689   2.653  18.921  0.00  0.00    +0.000 HD
ENDBRANCH   7  18
BRANCH   1  20
ATOM     20  O   UNL     1       1.340   7.036  20.790  0.00  0.00    +0.000 OA
BRANCH  20  21
ATOM     21  C   UNL     1       1.414   8.388  21.237  0.00  0.00    +0.000 C 
BRANCH  21  22
ATOM     22  C   UNL     1       0.035   9.024  21.127  0.00  0.00    +0.000 C 
ATOM     23  O   UNL     1      -0.414   9.596  20.136  0.00  0.00    +0.000 OA
BRANCH  22  25
ATOM     24  C   UNL     1      -0.055   9.512  23.416  0.00  0.00    +0.000 C 
ATOM     25  O   UNL     1      -0.658   8.859  22.292  0.00  0.00    +0.000 OA
ENDBRANCH  22  25
ENDBRANCH  21  22
ENDBRANCH  20  21
ENDBRANCH   1  20
TORSDOF 6
ENDMDL
MODEL 2
REMARK VINA RESULT:      -8.1      0.503      1.239
REMARK  Name = 
REMARK  7 active torsions:
REMARK  status: ('A' for Active; 'I' for Inactive)
REMARK    1  A    between atoms: C_1  and  O_2
REMARK    2  A    between atoms: O_2  and  C_3
REMARK    3  A    between atoms: C_3  and  C_5
REMARK    4  A    between atoms: C_5  and  O_6
REMARK    5  A    between atoms: O_6  and  C_7
REMARK    6  A    between atoms: C_13  and  O_14
REMARK    7  A    between atoms: C_13  and  C_15
REMARK                            x       y       z     vdW  Elec       q    Type
REMARK                         _______ _______ _______ _____ _____    ______ ____
ROOT
ATOM      1  C   UNL     1       2.295   6.680  19.806  0.00  0.00    +0.000 A 
ATOM      2  C   UNL     1       2.603   7.654  18.840  0.00  0.00    +0.000 A 
ATOM      3  C   UNL     1       3.425   7.363  17.745  0.00  0.00    +0.000 A 
ATOM      4  C   UNL     1       3.922   6.079  17.619  0.00  0.00    +0.000 A 
ATOM      5  C   UNL     1       3.619   5.100  18.589  0.00  0.00    +0.000 A 
ATOM      6  C   UNL     1       2.808   5.388  19.687  0.00  0.00    +0.000 A 
ATOM      7  C   UNL     1       4.264   3.768  18.202  0.00  0.00    +0.000 C 
ATOM      8  C   UNL     1       4.934   4.120  16.874  0.00  0.00    +0.000 A 
ATOM      9  C   UNL     1       5.672   3.303  16.025  0.00  0.00    +0.000 A 
ATOM     10  C   UNL     1       6.215   3.866  14.868  0.00  0.00    +0.000 A 
ATOM     11  C   UNL     1       6.022   5.225  14.575  0.00  0.00    +0.000 A 
ATOM     12  C   UNL     1       5.274   6.043  15.428  0.00  0.00    +0.000 A 
ATOM     13  C   UNL     1       4.731   5.484  16.576  0.00  0.00    +0.000 A 
ENDROOT
BRANCH   7  14
ATOM     14  C   UNL     1       3.253   2.593  18.100  0.00  0.00    +0.000 C 
ATOM     15  F   UNL     1       3.835   1.414  17.785  0.00  0.00    +0.000 F 
ATOM     16  F   UNL     1       2.543   2.399  19.235  0.00  0.00    +0.000 F 
ATOM     17  F   UNL     1       2.349   2.848  17.113  0.00  0.00    +0.000 F 
ENDBRANCH   7  14
BRANCH   7  18
ATOM     18  O   UNL     1       5.325   3.525  19.148  0.00  0.00    +0.000 OA
ATOM     19  H   UNL     1       5.455   2.561  19.183  0.00  0.00    +0.000 HD
ENDBRANCH   7  18
BRANCH   1  20
ATOM     20  O   UNL     1       1.406   7.080  20.763  0.00  0.00    +0.000 OA
BRANCH  20  21
ATOM     21  C   UNL     1       1.366   8.472  21.073  0.00  0.00    +0.000 C 
BRANCH  21  22
ATOM     22  C   UNL     1      -0.068   8.864  21.407  0.00  0.00    +0.000 C 
ATOM     23  O   UNL     1      -0.865   8.188  22.054  0.00  0.00    +0.000 OA
BRANCH  22  25
ATOM     24  C   UNL     1       0.683  10.623  20.055  0.00  0.00    +0.000 C 
ATOM     25  O   UNL     1      -0.352  10.098  20.895  0.00  0.00    +0.000 OA
ENDBRANCH  22  25
ENDBRANCH  21  22
ENDBRANCH  20  21
ENDBRANCH   1  20
TORSDOF 6
ENDMDL
MODEL 3
REMARK VINA RESULT:      -8.1      2.937      6.994
REMARK  Name = 
REMARK  7 active torsions:
REMARK  status: ('A' for Active; 'I' for Inactive)
REMARK    1  A    between atoms: C_1  and  O_2
REMARK    2  A    between atoms: O_2  and  C_3
REMARK    3  A    between atoms: C_3  and  C_5
REMARK    4  A    between atoms: C_5  and  O_6
REMARK    5  A    between atoms: O_6  and  C_7
REMARK    6  A    between atoms: C_13  and  O_14
REMARK    7  A    between atoms: C_13  and  C_15
REMARK                            x       y       z     vdW  Elec       q    Type
REMARK                         _______ _______ _______ _____ _____    ______ ____
ROOT
ATOM      1  C   UNL     1       5.398   5.136  15.431  0.00  0.00    +0.000 A 
ATOM      2  C   UNL     1       5.390   6.459  15.907  0.00  0.00    +0.000 A 
ATOM      3  C   UNL     1       4.583   6.844  16.984  0.00  0.00    +0.000 A 
ATOM      4  C   UNL     1       3.797   5.884  17.592  0.00  0.00    +0.000 A 
ATOM      5  C   UNL     1       3.798   4.555  17.114  0.00  0.00    +0.000 A 
ATOM      6  C   UNL     1       4.592   4.170  16.035  0.00  0.00    +0.000 A 
ATOM      7  C   UNL     1       2.870   3.693  17.972  0.00  0.00    +0.000 C 
ATOM      8  C   UNL     1       2.381   4.702  19.012  0.00  0.00    +0.000 A 
ATOM      9  C   UNL     1       1.514   4.503  20.081  0.00  0.00    +0.000 A 
ATOM     10  C   UNL     1       1.189   5.597  20.885  0.00  0.00    +0.000 A 
ATOM     11  C   UNL     1       1.723   6.867  20.615  0.00  0.00    +0.000 A 
ATOM     12  C   UNL     1       2.600   7.063  19.542  0.00  0.00    +0.000 A 
ATOM     13  C   UNL     1       2.926   5.976  18.745  0.00  0.00    +0.000 A 
ENDROOT
BRANCH   7  14
ATOM     14  C   UNL     1       3.568   2.451  18.588  0.00  0.00    +0.000 C 
ATOM     15  F   UNL     1       3.975   1.553  17.663  0.00  0.00    +0.000 F 
ATOM     16  F   UNL     1       4.645   2.762  19.345  0.00  0.00    +0.000 F 
ATOM     17  F   UNL     1       2.698   1.789  19.402  0.00  0.00    +0.000 F 
ENDBRANCH   7  14
BRANCH   7  18
ATOM     18  O   UNL     1       1.732   3.359  17.154  0.00  0.00    +0.000 OA
ATOM     19  H   UNL     1       1.497   4.162  16.657  0.00  0.00    +0.000 HD
ENDBRANCH   7  18
BRANCH   1  20
ATOM     20  O   UNL     1       6.303   4.887  14.438  0.00  0.00    +0.000 OA
BRANCH  20  21
ATOM     21  C   UNL     1       6.334   3.566  13.902  0.00  0.00    +0.000 C 
BRANCH  21  22
ATOM     22  C   UNL     1       6.516   3.648  12.392  0.00  0.00    +0.000 C 
ATOM     23  O   UNL     1       7.282   4.407  11.802  0.00  0.00    +0.000 OA
BRANCH  22  25
ATOM     24  C   UNL     1       4.379   3.214  11.539  0.00  0.00    +0.000 C 
ATOM     25  O   UNL     1       5.711   2.739  11.768  0.00  0.00    +0.000 OA
ENDBRANCH  22  25
ENDBRANCH  21  22
ENDBRANCH  20  21
ENDBRANCH   1  20
TORSDOF 6
ENDMDL
MODEL 4
REMARK VINA RESULT:      -8.0      2.957      7.169
REMARK  Name = 
REMARK  7 active torsions:
REMARK  status: ('A' for Active; 'I' for Inactive)
REMARK    1  A    between atoms: C_1  and  O_2
REMARK    2  A    between atoms: O_2  and  C_3
REMARK    3  A    between atoms: C_3  and  C_5
REMARK    4  A    between atoms: C_5  and  O_6
REMARK    5  A    between atoms: O_6  and  C_7
REMARK    6  A    between atoms: C_13  and  O_14
REMARK    7  A    between atoms: C_13  and  C_15
REMARK                            x       y       z     vdW  Elec       q    Type
REMARK                         _______ _______ _______ _____ _____    ______ ____
ROOT
ATOM      1  C   UNL     1       5.601   4.243  15.441  0.00  0.00    +0.000 A 
ATOM      2  C   UNL     1       5.644   5.641  15.584  0.00  0.00    +0.000 A 
ATOM      3  C   UNL     1       4.856   6.304  16.533  0.00  0.00    +0.000 A 
ATOM      4  C   UNL     1       4.036   5.547  17.350  0.00  0.00    +0.000 A 
ATOM      5  C   UNL     1       3.987   4.144  17.206  0.00  0.00    +0.000 A 
ATOM      6  C   UNL     1       4.763   3.481  16.255  0.00  0.00    +0.000 A 
ATOM      7  C   UNL     1       3.032   3.548  18.241  0.00  0.00    +0.000 C 
ATOM      8  C   UNL     1       2.583   4.795  19.005  0.00  0.00    +0.000 A 
ATOM      9  C   UNL     1       1.714   4.890  20.086  0.00  0.00    +0.000 A 
ATOM     10  C   UNL     1       1.431   6.157  20.601  0.00  0.00    +0.000 A 
ATOM     11  C   UNL     1       2.011   7.304  20.036  0.00  0.00    +0.000 A 
ATOM     12  C   UNL     1       2.891   7.204  18.953  0.00  0.00    +0.000 A 
ATOM     13  C   UNL     1       3.173   5.946  18.442  0.00  0.00    +0.000 A 
ENDROOT
BRANCH   7  14
ATOM     14  C   UNL     1       3.685   2.465  19.142  0.00  0.00    +0.000 C 
ATOM     15  F   UNL     1       3.867   1.284  18.510  0.00  0.00    +0.000 F 
ATOM     16  F   UNL     1       4.884   2.840  19.645  0.00  0.00    +0.000 F 
ATOM     17  F   UNL     1       2.879   2.205  20.209  0.00  0.00    +0.000 F 
ENDBRANCH   7  14
BRANCH   7  18
ATOM     18  O   UNL     1       1.878   3.069  17.521  0.00  0.00    +0.000 OA
ATOM     19  H   UNL     1       2.030   2.124  17.343  0.00  0.00    +0.000 HD
ENDBRANCH   7  18
BRANCH   1  20
ATOM     20  O   UNL     1       6.493   3.730  14.542  0.00  0.00    +0.000 OA
BRANCH  20  21
ATOM     21  C   UNL     1       6.513   4.312  13.240  0.00  0.00    +0.000 C 
BRANCH  21  22
ATOM     22  C   UNL     1       5.865   3.348  12.256  0.00  0.00    +0.000 C 
ATOM     23  O   UNL     1       4.675   3.330  11.947  0.00  0.00    +0.000 OA
BRANCH  22  25
ATOM     24  C   UNL     1       6.242   1.309  11.166  0.00  0.00    +0.000 C 
ATOM     25  O   UNL     1       6.800   2.498  11.738  0.00  0.00    +0.000 OA
ENDBRANCH  22  25
ENDBRANCH  21  22
ENDBRANCH  20  21
ENDBRANCH   1  20
TORSDOF 6
ENDMDL
MODEL 5
REMARK VINA RESULT:      -8.0      2.891      6.943
REMARK  Name = 
REMARK  7 active torsions:
REMARK  status: ('A' for Active; 'I' for Inactive)
REMARK    1  A    between atoms: C_1  and  O_2
REMARK    2  A    between atoms: O_2  and  C_3
REMARK    3  A    between atoms: C_3  and  C_5
REMARK    4  A    between atoms: C_5  and  O_6
REMARK    5  A    between atoms: O_6  and  C_7
REMARK    6  A    between atoms: C_13  and  O_14
REMARK    7  A    between atoms: C_13  and  C_15
REMARK                            x       y       z     vdW  Elec       q    Type
REMARK                         _______ _______ _______ _____ _____    ______ ____
ROOT
ATOM      1  C   UNL     1       5.528   4.281  15.689  0.00  0.00    +0.000 A 
ATOM      2  C   UNL     1       5.564   5.683  15.795  0.00  0.00    +0.000 A 
ATOM      3  C   UNL     1       4.762   6.367  16.716  0.00  0.00    +0.000 A 
ATOM      4  C   UNL     1       3.935   5.629  17.543  0.00  0.00    +0.000 A 
ATOM      5  C   UNL     1       3.893   4.222  17.436  0.00  0.00    +0.000 A 
ATOM      6  C   UNL     1       4.683   3.537  16.512  0.00  0.00    +0.000 A 
ATOM      7  C   UNL     1       2.928   3.650  18.475  0.00  0.00    +0.000 C 
ATOM      8  C   UNL     1       2.465   4.914  19.200  0.00  0.00    +0.000 A 
ATOM      9  C   UNL     1       1.582   5.035  20.267  0.00  0.00    +0.000 A 
ATOM     10  C   UNL     1       1.288   6.314  20.745  0.00  0.00    +0.000 A 
ATOM     11  C   UNL     1       1.870   7.448  20.157  0.00  0.00    +0.000 A 
ATOM     12  C   UNL     1       2.763   7.323  19.087  0.00  0.00    +0.000 A 
ATOM     13  C   UNL     1       3.057   6.053  18.614  0.00  0.00    +0.000 A 
ENDROOT
BRANCH   7  14
ATOM     14  C   UNL     1       3.575   2.594  19.412  0.00  0.00    +0.000 C 
ATOM     15  F   UNL     1       2.834   2.330  20.511  0.00  0.00    +0.000 F 
ATOM     16  F   UNL     1       3.819   1.413  18.799  0.00  0.00    +0.000 F 
ATOM     17  F   UNL     1       4.775   3.054  19.865  0.00  0.00    +0.000 F 
ENDBRANCH   7  14
BRANCH   7  18
ATOM     18  O   UNL     1       1.785   3.146  17.754  0.00  0.00    +0.000 OA
ATOM     19  H   UNL     1       1.213   3.911  17.564  0.00  0.00    +0.000 HD
ENDBRANCH   7  18
BRANCH   1  20
ATOM     20  O   UNL     1       6.433   3.748  14.815  0.00  0.00    +0.000 OA
BRANCH  20  21
ATOM     21  C   UNL     1       6.598   4.412  13.563  0.00  0.00    +0.000 C 
BRANCH  21  22
ATOM     22  C   UNL     1       6.072   3.513  12.452  0.00  0.00    +0.000 C 
ATOM     23  O   UNL     1       6.754   2.786  11.734  0.00  0.00    +0.000 OA
BRANCH  22  25
ATOM     24  C   UNL     1       4.169   3.037  11.172  0.00  0.00    +0.000 C 
ATOM     25  O   UNL     1       4.713   3.612  12.367  0.00  0.00    +0.000 OA
ENDBRANCH  22  25
ENDBRANCH  21  22
ENDBRANCH  20  21
ENDBRANCH   1  20
TORSDOF 6
ENDMDL
MODEL 6
REMARK VINA RESULT:      -7.9      1.435      2.134
REMARK  Name = 
REMARK  7 active torsions:
REMARK  status: ('A' for Active; 'I' for Inactive)
REMARK    1  A    between atoms: C_1  and  O_2
REMARK    2  A    between atoms: O_2  and  C_3
REMARK    3  A    between atoms: C_3  and  C_5
REMARK    4  A    between atoms: C_5  and  O_6
REMARK    5  A    between atoms: O_6  and  C_7
REMARK    6  A    between atoms: C_13  and  O_14
REMARK    7  A    between atoms: C_13  and  C_15
REMARK                            x       y       z     vdW  Elec       q    Type
REMARK                         _______ _______ _______ _____ _____    ______ ____
ROOT
ATOM      1  C   UNL     1       1.332   8.646  19.655  0.00  0.00    +0.000 A 
ATOM      2  C   UNL     1       1.914   9.327  18.571  0.00  0.00    +0.000 A 
ATOM      3  C   UNL     1       2.830   8.698  17.720  0.00  0.00    +0.000 A 
ATOM      4  C   UNL     1       3.145   7.373  17.957  0.00  0.00    +0.000 A 
ATOM      5  C   UNL     1       2.566   6.687  19.047  0.00  0.00    +0.000 A 
ATOM      6  C   UNL     1       1.661   7.313  19.903  0.00  0.00    +0.000 A 
ATOM      7  C   UNL     1       3.055   5.238  19.068  0.00  0.00    +0.000 C 
ATOM      8  C   UNL     1       3.950   5.193  17.829  0.00  0.00    +0.000 A 
ATOM      9  C   UNL     1       4.672   4.123  17.312  0.00  0.00    +0.000 A 
ATOM     10  C   UNL     1       5.450   4.335  16.172  0.00  0.00    +0.000 A 
ATOM     11  C   UNL     1       5.504   5.601  15.568  0.00  0.00    +0.000 A 
ATOM     12  C   UNL     1       4.771   6.674  16.087  0.00  0.00    +0.000 A 
ATOM     13  C   UNL     1       3.996   6.464  17.218  0.00  0.00    +0.000 A 
ENDROOT
BRANCH   7  14
ATOM     14  C   UNL     1       1.907   4.193  19.047  0.00  0.00    +0.000 C 
ATOM     15  F   UNL     1       2.346   2.916  19.104  0.00  0.00    +0.000 F 
ATOM     16  F   UNL     1       1.017   4.357  20.053  0.00  0.00    +0.000 F 
ATOM     17  F   UNL     1       1.205   4.303  17.884  0.00  0.00    +0.000 F 
ENDBRANCH   7  14
BRANCH   7  18
ATOM     18  O   UNL     1       3.925   5.105  20.210  0.00  0.00    +0.000 OA
ATOM     19  H   UNL     1       3.374   5.241  21.001  0.00  0.00    +0.000 HD
ENDBRANCH   7  18
BRANCH   1  20
ATOM     20  O   UNL     1       0.387   9.356  20.340  0.00  0.00    +0.000 OA
BRANCH  20  21
ATOM     21  C   UNL     1      -0.065   8.814  21.579  0.00  0.00    +0.000 C 
BRANCH  21  22
ATOM     22  C   UNL     1       0.691   9.484  22.719  0.00  0.00    +0.000 C 
ATOM     23  O   UNL     1       1.914   9.546  22.830  0.00  0.00    +0.000 OA
BRANCH  22  25
ATOM     24  C   UNL     1      -1.100  10.963  23.018  0.00  0.00    +0.000 C 
ATOM     25  O   UNL     1      -0.185  10.032  23.611  0.00  0.00    +0.000 OA
ENDBRANCH  22  25
ENDBRANCH  21  22
ENDBRANCH  20  21
ENDBRANCH   1  20
TORSDOF 6
ENDMDL
MODEL 7
REMARK VINA RESULT:      -7.7      1.413      2.022
REMARK  Name = 
REMARK  7 active torsions:
REMARK  status: ('A' for Active; 'I' for Inactive)
REMARK    1  A    between atoms: C_1  and  O_2
REMARK    2  A    between atoms: O_2  and  C_3
REMARK    3  A    between atoms: C_3  and  C_5
REMARK    4  A    between atoms: C_5  and  O_6
REMARK    5  A    between atoms: O_6  and  C_7
REMARK    6  A    between atoms: C_13  and  O_14
REMARK    7  A    between atoms: C_13  and  C_15
REMARK                            x       y       z     vdW  Elec       q    Type
REMARK                         _______ _______ _______ _____ _____    ______ ____
ROOT
ATOM      1  C   UNL     1       1.417   8.764  19.480  0.00  0.00    +0.000 A 
ATOM      2  C   UNL     1       2.001   9.371  18.354  0.00  0.00    +0.000 A 
ATOM      3  C   UNL     1       2.917   8.686  17.547  0.00  0.00    +0.000 A 
ATOM      4  C   UNL     1       3.230   7.379  17.871  0.00  0.00    +0.000 A 
ATOM      5  C   UNL     1       2.651   6.768  19.004  0.00  0.00    +0.000 A 
ATOM      6  C   UNL     1       1.745   7.450  19.816  0.00  0.00    +0.000 A 
ATOM      7  C   UNL     1       3.138   5.323  19.122  0.00  0.00    +0.000 C 
ATOM      8  C   UNL     1       4.034   5.196  17.890  0.00  0.00    +0.000 A 
ATOM      9  C   UNL     1       4.755   4.092  17.445  0.00  0.00    +0.000 A 
ATOM     10  C   UNL     1       5.535   4.228  16.295  0.00  0.00    +0.000 A 
ATOM     11  C   UNL     1       5.590   5.451  15.608  0.00  0.00    +0.000 A 
ATOM     12  C   UNL     1       4.858   6.557  16.054  0.00  0.00    +0.000 A 
ATOM     13  C   UNL     1       4.081   6.422  17.195  0.00  0.00    +0.000 A 
ENDROOT
BRANCH   7  14
ATOM     14  C   UNL     1       1.989   4.280  19.169  0.00  0.00    +0.000 C 
ATOM     15  F   UNL     1       1.131   4.477  20.195  0.00  0.00    +0.000 F 
ATOM     16  F   UNL     1       1.254   4.241  18.034  0.00  0.00    +0.000 F 
ATOM     17  F   UNL     1       2.507   3.031  19.342  0.00  0.00    +0.000 F 
ENDBRANCH   7  14
BRANCH   7  18
ATOM     18  O   UNL     1       4.007   5.266  20.271  0.00  0.00    +0.000 OA
ATOM     19  H   UNL     1       4.902   5.080  19.938  0.00  0.00    +0.000 HD
ENDBRANCH   7  18
BRANCH   1  20
ATOM     20  O   UNL     1       0.472   9.518  20.115  0.00  0.00    +0.000 OA
BRANCH  20  21
ATOM     21  C   UNL     1       0.817  10.059  21.389  0.00  0.00    +0.000 C 
BRANCH  21  22
ATOM     22  C   UNL     1      -0.188   9.570  22.424  0.00  0.00    +0.000 C 
ATOM     23  O   UNL     1      -0.758   8.481  22.411  0.00  0.00    +0.000 OA
BRANCH  22  25
ATOM     24  C   UNL     1      -1.300  11.537  23.037  0.00  0.00    +0.000 C 
ATOM     25  O   UNL     1      -0.365  10.513  23.395  0.00  0.00    +0.000 OA
ENDBRANCH  22  25
ENDBRANCH  21  22
ENDBRANCH  20  21
ENDBRANCH   1  20
TORSDOF 6
ENDMDL
MODEL 8
REMARK VINA RESULT:      -7.7      3.422      7.386
REMARK  Name = 
REMARK  7 active torsions:
REMARK  status: ('A' for Active; 'I' for Inactive)
REMARK    1  A    between atoms: C_1  and  O_2
REMARK    2  A    between atoms: O_2  and  C_3
REMARK    3  A    between atoms: C_3  and  C_5
REMARK    4  A    between atoms: C_5  and  O_6
REMARK    5  A    between atoms: O_6  and  C_7
REMARK    6  A    between atoms: C_13  and  O_14
REMARK    7  A    between atoms: C_13  and  C_15
REMARK                            x       y       z     vdW  Elec       q    Type
REMARK                         _______ _______ _______ _____ _____    ______ ____
ROOT
ATOM      1  C   UNL     1       5.577   5.198  15.785  0.00  0.00    +0.000 A 
ATOM      2  C   UNL     1       5.120   3.883  15.582  0.00  0.00    +0.000 A 
ATOM      3  C   UNL     1       4.148   3.311  16.410  0.00  0.00    +0.000 A 
ATOM      4  C   UNL     1       3.624   4.078  17.435  0.00  0.00    +0.000 A 
ATOM      5  C   UNL     1       4.083   5.396  17.645  0.00  0.00    +0.000 A 
ATOM      6  C   UNL     1       5.060   5.966  16.828  0.00  0.00    +0.000 A 
ATOM      7  C   UNL     1       3.328   6.030  18.814  0.00  0.00    +0.000 C 
ATOM      8  C   UNL     1       2.364   4.910  19.206  0.00  0.00    +0.000 A 
ATOM      9  C   UNL     1       1.400   4.899  20.208  0.00  0.00    +0.000 A 
ATOM     10  C   UNL     1       0.651   3.736  20.397  0.00  0.00    +0.000 A 
ATOM     11  C   UNL     1       0.872   2.605  19.594  0.00  0.00    +0.000 A 
ATOM     12  C   UNL     1       1.838   2.622  18.583  0.00  0.00    +0.000 A 
ATOM     13  C   UNL     1       2.580   3.778  18.393  0.00  0.00    +0.000 A 
ENDROOT
BRANCH   7  14
ATOM     14  C   UNL     1       2.622   7.364  18.450  0.00  0.00    +0.000 C 
ATOM     15  F   UNL     1       3.450   8.269  17.883  0.00  0.00    +0.000 F 
ATOM     16  F   UNL     1       1.571   7.201  17.612  0.00  0.00    +0.000 F 
ATOM     17  F   UNL     1       2.134   7.951  19.579  0.00  0.00    +0.000 F 
ENDBRANCH   7  14
BRANCH   7  18
ATOM     18  O   UNL     1       4.269   6.162  19.899  0.00  0.00    +0.000 OA
ATOM     19  H   UNL     1       4.057   6.996  20.355  0.00  0.00    +0.000 HD
ENDBRANCH   7  18
BRANCH   1  20
ATOM     20  O   UNL     1       6.456   5.653  14.842  0.00  0.00    +0.000 OA
BRANCH  20  21
ATOM     21  C   UNL     1       7.331   4.694  14.251  0.00  0.00    +0.000 C 
BRANCH  21  22
ATOM     22  C   UNL     1       7.972   5.306  13.012  0.00  0.00    +0.000 C 
ATOM     23  O   UNL     1       8.870   6.146  13.010  0.00  0.00    +0.000 OA
BRANCH  22  25
ATOM     24  C   UNL     1       6.689   3.565  12.113  0.00  0.00    +0.000 C 
ATOM     25  O   UNL     1       7.417   4.777  11.882  0.00  0.00    +0.000 OA
ENDBRANCH  22  25
ENDBRANCH  21  22
ENDBRANCH  20  21
ENDBRANCH   1  20
TORSDOF 6
ENDMDL
MODEL 9
REMARK VINA RESULT:      -7.7      1.168      1.669
REMARK  Name = 
REMARK  7 active torsions:
REMARK  status: ('A' for Active; 'I' for Inactive)
REMARK    1  A    between atoms: C_1  and  O_2
REMARK    2  A    between atoms: O_2  and  C_3
REMARK    3  A    between atoms: C_3  and  C_5
REMARK    4  A    between atoms: C_5  and  O_6
REMARK    5  A    between atoms: O_6  and  C_7
REMARK    6  A    between atoms: C_13  and  O_14
REMARK    7  A    between atoms: C_13  and  C_15
REMARK                            x       y       z     vdW  Elec       q    Type
REMARK                         _______ _______ _______ _____ _____    ______ ____
ROOT
ATOM      1  C   UNL     1       1.763   7.251  20.183  0.00  0.00    +0.000 A 
ATOM      2  C   UNL     1       2.186   8.211  19.247  0.00  0.00    +0.000 A 
ATOM      3  C   UNL     1       3.031   7.873  18.183  0.00  0.00    +0.000 A 
ATOM      4  C   UNL     1       3.435   6.557  18.058  0.00  0.00    +0.000 A 
ATOM      5  C   UNL     1       3.018   5.591  18.999  0.00  0.00    +0.000 A 
ATOM      6  C   UNL     1       2.183   5.926  20.066  0.00  0.00    +0.000 A 
ATOM      7  C   UNL     1       3.577   4.219  18.619  0.00  0.00    +0.000 C 
ATOM      8  C   UNL     1       4.329   4.537  17.327  0.00  0.00    +0.000 A 
ATOM      9  C   UNL     1       5.040   3.676  16.497  0.00  0.00    +0.000 A 
ATOM     10  C   UNL     1       5.675   4.211  15.374  0.00  0.00    +0.000 A 
ATOM     11  C   UNL     1       5.597   5.584  15.094  0.00  0.00    +0.000 A 
ATOM     12  C   UNL     1       4.875   6.446  15.927  0.00  0.00    +0.000 A 
ATOM     13  C   UNL     1       4.243   5.915  17.041  0.00  0.00    +0.000 A 
ENDROOT
BRANCH   7  14
ATOM     14  C   UNL     1       2.487   3.126  18.456  0.00  0.00    +0.000 C 
ATOM     15  F   UNL     1       2.960   1.975  17.927  0.00  0.00    +0.000 F 
ATOM     16  F   UNL     1       1.869   2.809  19.617  0.00  0.00    +0.000 F 
ATOM     17  F   UNL     1       1.518   3.565  17.604  0.00  0.00    +0.000 F 
ENDBRANCH   7  14
BRANCH   7  18
ATOM     18  O   UNL     1       4.575   3.885  19.605  0.00  0.00    +0.000 OA
ATOM     19  H   UNL     1       4.354   2.998  19.941  0.00  0.00    +0.000 HD
ENDBRANCH   7  18
BRANCH   1  20
ATOM     20  O   UNL     1       0.866   7.705  21.108  0.00  0.00    +0.000 OA
BRANCH  20  21
ATOM     21  C   UNL     1       0.308   9.000  20.892  0.00  0.00    +0.000 C 
BRANCH  21  22
ATOM     22  C   UNL     1       0.690   9.905  22.057  0.00  0.00    +0.000 C 
ATOM     23  O   UNL     1       0.596   9.618  23.249  0.00  0.00    +0.000 OA
BRANCH  22  25
ATOM     24  C   UNL     1       0.685  11.447  20.294  0.00  0.00    +0.000 C 
ATOM     25  O   UNL     1       1.175  11.094  21.594  0.00  0.00    +0.000 OA
ENDBRANCH  22  25
ENDBRANCH  21  22
ENDBRANCH  20  21
ENDBRANCH   1  20
TORSDOF 6
ENDMDL
