MODEL 1
REMARK VINA RESULT:      -6.7      0.000      0.000
REMARK  Name = 
REMARK  9 active torsions:
REMARK  status: ('A' for Active; 'I' for Inactive)
REMARK    1  A    between atoms: C_1  and  O_2
REMARK    2  A    between atoms: O_2  and  C_3
REMARK    3  A    between atoms: C_6  and  C_7
REMARK    4  A    between atoms: C_9  and  C_10
REMARK    5  A    between atoms: N_12  and  C_13
REMARK    6  A    between atoms: C_13  and  C_14
REMARK    7  A    between atoms: C_14  and  O_15
REMARK    8  A    between atoms: C_19  and  C_20
REMARK    9  A    between atoms: C_27  and  C_28
REMARK                            x       y       z     vdW  Elec       q    Type
REMARK                         _______ _______ _______ _____ _____    ______ ____
ROOT
ATOM      1  C   UNL     1      -2.098  11.585  19.216  0.00  0.00    +0.000 A 
ATOM      2  N   UNL     1      -2.888  11.633  18.123  0.00  0.00    +0.000 NA
ATOM      3  C   UNL     1      -2.580  10.838  17.098  0.00  0.00    +0.000 A 
ATOM      4  N   UNL     1      -1.557   9.985  17.075  0.00  0.00    +0.000 NA
ATOM      5  C   UNL     1      -0.778   9.932  18.140  0.00  0.00    +0.000 A 
ATOM      6  N   UNL     1       0.209   9.060  17.986  0.00  0.00    +0.000 NA
ATOM      7  C   UNL     1       1.128   8.865  18.950  0.00  0.00    +0.000 A 
ATOM      8  C   UNL     1       1.061   9.556  20.133  0.00  0.00    +0.000 A 
ATOM      9  C   UNL     1       0.056  10.516  20.339  0.00  0.00    +0.000 A 
ATOM     10  C   UNL     1      -0.953  10.716  19.308  0.00  0.00    +0.000 A 
ENDROOT
BRANCH   1  14
ATOM     11  C   UNL     1      -3.071  14.414  22.310  0.00  0.00    +0.000 A 
ATOM     12  C   UNL     1      -3.848  13.273  22.134  0.00  0.00    +0.000 A 
ATOM     13  C   UNL     1      -3.635  12.429  21.039  0.00  0.00    +0.000 A 
ATOM     14  C   UNL     1      -2.532  12.597  20.205  0.00  0.00    +0.000 A 
ATOM     15  C   UNL     1      -1.846  13.825  20.317  0.00  0.00    +0.000 A 
ATOM     16  C   UNL     1      -2.126  14.735  21.344  0.00  0.00    +0.000 A 
BRANCH  11  18
ATOM     17  C   UNL     1      -4.722  15.172  23.822  0.00  0.00    +0.000 C 
ATOM     18  O   UNL     1      -3.356  15.148  23.426  0.00  0.00    +0.000 OA
ENDBRANCH  11  18
ENDBRANCH   1  14
BRANCH   7  19
ATOM     19  C   UNL     1       2.183   7.867  18.698  0.00  0.00    +0.000 A 
ATOM     20  C   UNL     1       3.049   7.968  17.588  0.00  0.00    +0.000 A 
ATOM     21  C   UNL     1       4.100   7.069  17.395  0.00  0.00    +0.000 A 
ATOM     22  C   UNL     1       4.295   6.030  18.297  0.00  0.00    +0.000 A 
ATOM     23  C   UNL     1       3.436   5.890  19.385  0.00  0.00    +0.000 A 
ATOM     24  C   UNL     1       2.390   6.798  19.582  0.00  0.00    +0.000 A 
ENDBRANCH   7  19
BRANCH   3  25
ATOM     25  C   UNL     1      -3.425  10.944  15.846  0.00  0.00    +0.000 C 
ATOM     26  O   UNL     1      -4.347  11.749  15.748  0.00  0.00    +0.000 OA
ATOM     27  N   UNL     1      -3.074  10.087  14.812  0.00  0.00    +0.000 N 
ATOM     28  H   UNL     1      -2.299   9.448  14.963  0.00  0.00    +0.000 HD
BRANCH  27  29
ATOM     29  C   UNL     1      -3.836  10.025  13.569  0.00  0.00    +0.000 C 
BRANCH  29  30
ATOM     30  C   UNL     1      -2.973   9.622  12.375  0.00  0.00    +0.000 C 
BRANCH  30  31
ATOM     31  O   UNL     1      -3.742   9.660  11.173  0.00  0.00    +0.000 OA
ATOM     32  H   UNL     1      -4.340   8.894  11.213  0.00  0.00    +0.000 HD
ENDBRANCH  30  31
ENDBRANCH  29  30
ENDBRANCH  27  29
ENDBRANCH   3  25
BRANCH   9  33
ATOM     33  C   UNL     1       0.173  11.195  21.686  0.00  0.00    +0.000 C 
ATOM     34  F   UNL     1       1.061  10.565  22.520  0.00  0.00    +0.000 F 
ATOM     35  F   UNL     1       0.621  12.470  21.630  0.00  0.00    +0.000 F 
ATOM     36  F   UNL     1      -0.992  11.174  22.385  0.00  0.00    +0.000 F 
ENDBRANCH   9  33
TORSDOF 8
ENDMDL
MODEL 2
REMARK VINA RESULT:      -6.7      0.384      1.119
REMARK  Name = 
REMARK  9 active torsions:
REMARK  status: ('A' for Active; 'I' for Inactive)
REMARK    1  A    between atoms: C_1  and  O_2
REMARK    2  A    between atoms: O_2  and  C_3
REMARK    3  A    between atoms: C_6  and  C_7
REMARK    4  A    between atoms: C_9  and  C_10
REMARK    5  A    between atoms: N_12  and  C_13
REMARK    6  A    between atoms: C_13  and  C_14
REMARK    7  A    between atoms: C_14  and  O_15
REMARK    8  A    between atoms: C_19  and  C_20
REMARK    9  A    between atoms: C_27  and  C_28
REMARK                            x       y       z     vdW  Elec       q    Type
REMARK                         _______ _______ _______ _____ _____    ______ ____
ROOT
ATOM      1  C   UNL     1      -2.208  11.598  19.158  0.00  0.00    +0.000 A 
ATOM      2  N   UNL     1      -2.926  11.664  18.016  0.00  0.00    +0.000 NA
ATOM      3  C   UNL     1      -2.540  10.902  16.994  0.00  0.00    +0.000 A 
ATOM      4  N   UNL     1      -1.504  10.064  17.015  0.00  0.00    +0.000 NA
ATOM      5  C   UNL     1      -0.794   9.993  18.127  0.00  0.00    +0.000 A 
ATOM      6  N   UNL     1       0.214   9.140  18.016  0.00  0.00    +0.000 NA
ATOM      7  C   UNL     1       1.071   8.932  19.032  0.00  0.00    +0.000 A 
ATOM      8  C   UNL     1       0.917   9.590  20.226  0.00  0.00    +0.000 A 
ATOM      9  C   UNL     1      -0.115  10.530  20.391  0.00  0.00    +0.000 A 
ATOM     10  C   UNL     1      -1.058  10.743  19.301  0.00  0.00    +0.000 A 
ENDROOT
BRANCH   1  14
ATOM     11  C   UNL     1      -3.429  14.324  22.255  0.00  0.00    +0.000 A 
ATOM     12  C   UNL     1      -4.184  13.188  21.985  0.00  0.00    +0.000 A 
ATOM     13  C   UNL     1      -3.883  12.379  20.883  0.00  0.00    +0.000 A 
ATOM     14  C   UNL     1      -2.722  12.577  20.141  0.00  0.00    +0.000 A 
ATOM     15  C   UNL     1      -2.053  13.803  20.344  0.00  0.00    +0.000 A 
ATOM     16  C   UNL     1      -2.415  14.679  21.374  0.00  0.00    +0.000 A 
BRANCH  11  18
ATOM     17  C   UNL     1      -3.330  14.509  24.610  0.00  0.00    +0.000 C 
ATOM     18  O   UNL     1      -3.801  15.022  23.369  0.00  0.00    +0.000 OA
ENDBRANCH  11  18
ENDBRANCH   1  14
BRANCH   7  19
ATOM     19  C   UNL     1       2.156   7.956  18.824  0.00  0.00    +0.000 A 
ATOM     20  C   UNL     1       2.360   6.876  19.709  0.00  0.00    +0.000 A 
ATOM     21  C   UNL     1       3.336   5.906  19.468  0.00  0.00    +0.000 A 
ATOM     22  C   UNL     1       4.148   6.008  18.344  0.00  0.00    +0.000 A 
ATOM     23  C   UNL     1       3.986   7.080  17.471  0.00  0.00    +0.000 A 
ATOM     24  C   UNL     1       3.002   8.045  17.709  0.00  0.00    +0.000 A 
ENDBRANCH   7  19
BRANCH   3  25
ATOM     25  C   UNL     1      -3.303  11.030  15.692  0.00  0.00    +0.000 C 
ATOM     26  O   UNL     1      -3.956  12.032  15.415  0.00  0.00    +0.000 OA
ATOM     27  N   UNL     1      -3.197   9.949  14.828  0.00  0.00    +0.000 N 
ATOM     28  H   UNL     1      -2.639   9.154  15.122  0.00  0.00    +0.000 HD
BRANCH  27  29
ATOM     29  C   UNL     1      -3.929   9.896  13.566  0.00  0.00    +0.000 C 
BRANCH  29  30
ATOM     30  C   UNL     1      -3.014   9.635  12.371  0.00  0.00    +0.000 C 
BRANCH  30  31
ATOM     31  O   UNL     1      -3.757   9.703  11.154  0.00  0.00    +0.000 OA
ATOM     32  H   UNL     1      -4.377  10.446  11.260  0.00  0.00    +0.000 HD
ENDBRANCH  30  31
ENDBRANCH  29  30
ENDBRANCH  27  29
ENDBRANCH   3  25
BRANCH   9  33
ATOM     33  C   UNL     1      -0.096  11.174  21.760  0.00  0.00    +0.000 C 
ATOM     34  F   UNL     1      -1.338  11.221  22.339  0.00  0.00    +0.000 F 
ATOM     35  F   UNL     1       0.668  10.528  22.669  0.00  0.00    +0.000 F 
ATOM     36  F   UNL     1       0.287  12.478  21.719  0.00  0.00    +0.000 F 
ENDBRANCH   9  33
TORSDOF 8
ENDMDL
MODEL 3
REMARK VINA RESULT:      -6.5      3.900      4.842
REMARK  Name = 
REMARK  9 active torsions:
REMARK  status: ('A' for Active; 'I' for Inactive)
REMARK    1  A    between atoms: C_1  and  O_2
REMARK    2  A    between atoms: O_2  and  C_3
REMARK    3  A    between atoms: C_6  and  C_7
REMARK    4  A    between atoms: C_9  and  C_10
REMARK    5  A    between atoms: N_12  and  C_13
REMARK    6  A    between atoms: C_13  and  C_14
REMARK    7  A    between atoms: C_14  and  O_15
REMARK    8  A    between atoms: C_19  and  C_20
REMARK    9  A    between atoms: C_27  and  C_28
REMARK                            x       y       z     vdW  Elec       q    Type
REMARK                         _______ _______ _______ _____ _____    ______ ____
ROOT
ATOM      1  C   UNL     1      -0.470  14.316  21.002  0.00  0.00    +0.000 A 
ATOM      2  N   UNL     1       0.096  15.273  20.236  0.00  0.00    +0.000 NA
ATOM      3  C   UNL     1       0.977  14.890  19.313  0.00  0.00    +0.000 A 
ATOM      4  N   UNL     1       1.336  13.629  19.076  0.00  0.00    +0.000 NA
ATOM      5  C   UNL     1       0.789  12.685  19.822  0.00  0.00    +0.000 A 
ATOM      6  N   UNL     1       1.238  11.480  19.500  0.00  0.00    +0.000 NA
ATOM      7  C   UNL     1       0.820  10.379  20.152  0.00  0.00    +0.000 A 
ATOM      8  C   UNL     1      -0.101  10.472  21.165  0.00  0.00    +0.000 A 
ATOM      9  C   UNL     1      -0.588  11.726  21.571  0.00  0.00    +0.000 A 
ATOM     10  C   UNL     1      -0.154  12.918  20.854  0.00  0.00    +0.000 A 
ENDROOT
BRANCH   1  14
ATOM     11  C   UNL     1      -2.994  15.772  24.169  0.00  0.00    +0.000 A 
ATOM     12  C   UNL     1      -3.538  15.456  22.928  0.00  0.00    +0.000 A 
ATOM     13  C   UNL     1      -2.709  15.130  21.849  0.00  0.00    +0.000 A 
ATOM     14  C   UNL     1      -1.342  14.931  22.027  0.00  0.00    +0.000 A 
ATOM     15  C   UNL     1      -0.798  15.386  23.247  0.00  0.00    +0.000 A 
ATOM     16  C   UNL     1      -1.611  15.823  24.299  0.00  0.00    +0.000 A 
BRANCH  11  18
ATOM     17  C   UNL     1      -4.467  17.357  25.121  0.00  0.00    +0.000 C 
ATOM     18  O   UNL     1      -3.901  16.051  25.151  0.00  0.00    +0.000 OA
ENDBRANCH  11  18
ENDBRANCH   1  14
BRANCH   7  19
ATOM     19  C   UNL     1       1.363   9.079  19.719  0.00  0.00    +0.000 A 
ATOM     20  C   UNL     1       1.812   8.867  18.398  0.00  0.00    +0.000 A 
ATOM     21  C   UNL     1       2.400   7.662  18.009  0.00  0.00    +0.000 A 
ATOM     22  C   UNL     1       2.533   6.629  18.931  0.00  0.00    +0.000 A 
ATOM     23  C   UNL     1       2.072   6.803  20.233  0.00  0.00    +0.000 A 
ATOM     24  C   UNL     1       1.491   8.014  20.623  0.00  0.00    +0.000 A 
ENDBRANCH   7  19
BRANCH   3  25
ATOM     25  C   UNL     1       1.663  15.971  18.503  0.00  0.00    +0.000 C 
ATOM     26  O   UNL     1       2.822  15.857  18.115  0.00  0.00    +0.000 OA
ATOM     27  N   UNL     1       0.887  17.085  18.213  0.00  0.00    +0.000 N 
ATOM     28  H   UNL     1      -0.064  17.110  18.566  0.00  0.00    +0.000 HD
BRANCH  27  29
ATOM     29  C   UNL     1       1.429  18.237  17.500  0.00  0.00    +0.000 C 
BRANCH  29  30
ATOM     30  C   UNL     1       0.614  18.589  16.256  0.00  0.00    +0.000 C 
BRANCH  30  31
ATOM     31  O   UNL     1      -0.780  18.590  16.562  0.00  0.00    +0.000 OA
ATOM     32  H   UNL     1      -0.904  17.914  17.249  0.00  0.00    +0.000 HD
ENDBRANCH  30  31
ENDBRANCH  29  30
ENDBRANCH  27  29
ENDBRANCH   3  25
BRANCH   9  33
ATOM     33  C   UNL     1      -1.562  11.622  22.724  0.00  0.00    +0.000 C 
ATOM     34  F   UNL     1      -1.237  12.451  23.766  0.00  0.00    +0.000 F 
ATOM     35  F   UNL     1      -2.832  11.965  22.411  0.00  0.00    +0.000 F 
ATOM     36  F   UNL     1      -1.573  10.386  23.289  0.00  0.00    +0.000 F 
ENDBRANCH   9  33
TORSDOF 8
ENDMDL
MODEL 4
REMARK VINA RESULT:      -6.5      0.885      1.312
REMARK  Name = 
REMARK  9 active torsions:
REMARK  status: ('A' for Active; 'I' for Inactive)
REMARK    1  A    between atoms: C_1  and  O_2
REMARK    2  A    between atoms: O_2  and  C_3
REMARK    3  A    between atoms: C_6  and  C_7
REMARK    4  A    between atoms: C_9  and  C_10
REMARK    5  A    between atoms: N_12  and  C_13
REMARK    6  A    between atoms: C_13  and  C_14
REMARK    7  A    between atoms: C_14  and  O_15
REMARK    8  A    between atoms: C_19  and  C_20
REMARK    9  A    between atoms: C_27  and  C_28
REMARK                            x       y       z     vdW  Elec       q    Type
REMARK                         _______ _______ _______ _____ _____    ______ ____
ROOT
ATOM      1  C   UNL     1      -1.796  11.546  18.952  0.00  0.00    +0.000 A 
ATOM      2  N   UNL     1      -2.723  11.567  17.972  0.00  0.00    +0.000 NA
ATOM      3  C   UNL     1      -2.580  10.710  16.961  0.00  0.00    +0.000 A 
ATOM      4  N   UNL     1      -1.595   9.820  16.850  0.00  0.00    +0.000 NA
ATOM      5  C   UNL     1      -0.681   9.793  17.803  0.00  0.00    +0.000 A 
ATOM      6  N   UNL     1       0.250   8.878  17.568  0.00  0.00    +0.000 NA
ATOM      7  C   UNL     1       1.285   8.700  18.410  0.00  0.00    +0.000 A 
ATOM      8  C   UNL     1       1.398   9.453  19.552  0.00  0.00    +0.000 A 
ATOM      9  C   UNL     1       0.459  10.458  19.836  0.00  0.00    +0.000 A 
ATOM     10  C   UNL     1      -0.674  10.642  18.939  0.00  0.00    +0.000 A 
ENDROOT
BRANCH   1  14
ATOM     11  C   UNL     1      -2.253  14.571  21.978  0.00  0.00    +0.000 A 
ATOM     12  C   UNL     1      -3.055  13.435  21.996  0.00  0.00    +0.000 A 
ATOM     13  C   UNL     1      -3.022  12.523  20.936  0.00  0.00    +0.000 A 
ATOM     14  C   UNL     1      -2.062  12.623  19.931  0.00  0.00    +0.000 A 
ATOM     15  C   UNL     1      -1.359  13.843  19.859  0.00  0.00    +0.000 A 
ATOM     16  C   UNL     1      -1.468  14.818  20.859  0.00  0.00    +0.000 A 
BRANCH  11  18
ATOM     17  C   UNL     1      -2.760  14.734  24.281  0.00  0.00    +0.000 C 
ATOM     18  O   UNL     1      -2.354  15.375  23.077  0.00  0.00    +0.000 OA
ENDBRANCH  11  18
ENDBRANCH   1  14
BRANCH   7  19
ATOM     19  C   UNL     1       2.266   7.652  18.076  0.00  0.00    +0.000 A 
ATOM     20  C   UNL     1       1.978   6.283  18.257  0.00  0.00    +0.000 A 
ATOM     21  C   UNL     1       2.877   5.288  17.866  0.00  0.00    +0.000 A 
ATOM     22  C   UNL     1       4.098   5.642  17.303  0.00  0.00    +0.000 A 
ATOM     23  C   UNL     1       4.418   6.987  17.140  0.00  0.00    +0.000 A 
ATOM     24  C   UNL     1       3.513   7.982  17.525  0.00  0.00    +0.000 A 
ENDBRANCH   7  19
BRANCH   3  25
ATOM     25  C   UNL     1      -3.583  10.782  15.828  0.00  0.00    +0.000 C 
ATOM     26  O   UNL     1      -4.640  11.397  15.932  0.00  0.00    +0.000 OA
ATOM     27  N   UNL     1      -3.216  10.126  14.662  0.00  0.00    +0.000 N 
ATOM     28  H   UNL     1      -2.326   9.638  14.647  0.00  0.00    +0.000 HD
BRANCH  27  29
ATOM     29  C   UNL     1      -4.106  10.050  13.508  0.00  0.00    +0.000 C 
BRANCH  29  30
ATOM     30  C   UNL     1      -3.373   9.639  12.231  0.00  0.00    +0.000 C 
BRANCH  30  31
ATOM     31  O   UNL     1      -1.975   9.507  12.484  0.00  0.00    +0.000 OA
ATOM     32  H   UNL     1      -1.668  10.388  12.758  0.00  0.00    +0.000 HD
ENDBRANCH  30  31
ENDBRANCH  29  30
ENDBRANCH  27  29
ENDBRANCH   3  25
BRANCH   9  33
ATOM     33  C   UNL     1       0.776  11.201  21.116  0.00  0.00    +0.000 C 
ATOM     34  F   UNL     1       1.274  12.457  20.887  0.00  0.00    +0.000 F 
ATOM     35  F   UNL     1      -0.293  11.409  21.918  0.00  0.00    +0.000 F 
ATOM     36  F   UNL     1       1.753  10.596  21.842  0.00  0.00    +0.000 F 
ENDBRANCH   9  33
TORSDOF 8
ENDMDL
MODEL 5
REMARK VINA RESULT:      -6.4      0.485      1.257
REMARK  Name = 
REMARK  9 active torsions:
REMARK  status: ('A' for Active; 'I' for Inactive)
REMARK    1  A    between atoms: C_1  and  O_2
REMARK    2  A    between atoms: O_2  and  C_3
REMARK    3  A    between atoms: C_6  and  C_7
REMARK    4  A    between atoms: C_9  and  C_10
REMARK    5  A    between atoms: N_12  and  C_13
REMARK    6  A    between atoms: C_13  and  C_14
REMARK    7  A    between atoms: C_14  and  O_15
REMARK    8  A    between atoms: C_19  and  C_20
REMARK    9  A    between atoms: C_27  and  C_28
REMARK                            x       y       z     vdW  Elec       q    Type
REMARK                         _______ _______ _______ _____ _____    ______ ____
ROOT
ATOM      1  C   UNL     1      -2.195  11.611  19.094  0.00  0.00    +0.000 A 
ATOM      2  N   UNL     1      -2.907  11.667  17.949  0.00  0.00    +0.000 NA
ATOM      3  C   UNL     1      -2.520  10.890  16.938  0.00  0.00    +0.000 A 
ATOM      4  N   UNL     1      -1.488  10.047  16.974  0.00  0.00    +0.000 NA
ATOM      5  C   UNL     1      -0.783   9.987  18.090  0.00  0.00    +0.000 A 
ATOM      6  N   UNL     1       0.222   9.128  17.994  0.00  0.00    +0.000 NA
ATOM      7  C   UNL     1       1.073   8.929  19.017  0.00  0.00    +0.000 A 
ATOM      8  C   UNL     1       0.917   9.603  20.202  0.00  0.00    +0.000 A 
ATOM      9  C   UNL     1      -0.111  10.549  20.350  0.00  0.00    +0.000 A 
ATOM     10  C   UNL     1      -1.049  10.753  19.254  0.00  0.00    +0.000 A 
ENDROOT
BRANCH   1  14
ATOM     11  C   UNL     1      -3.939  14.603  21.648  0.00  0.00    +0.000 A 
ATOM     12  C   UNL     1      -2.703  14.826  21.051  0.00  0.00    +0.000 A 
ATOM     13  C   UNL     1      -2.058  13.804  20.346  0.00  0.00    +0.000 A 
ATOM     14  C   UNL     1      -2.707  12.605  20.064  0.00  0.00    +0.000 A 
ATOM     15  C   UNL     1      -3.890  12.350  20.788  0.00  0.00    +0.000 A 
ATOM     16  C   UNL     1      -4.489  13.329  21.590  0.00  0.00    +0.000 A 
BRANCH  11  18
ATOM     17  C   UNL     1      -4.054  15.885  23.632  0.00  0.00    +0.000 C 
ATOM     18  O   UNL     1      -4.481  15.681  22.289  0.00  0.00    +0.000 OA
ENDBRANCH  11  18
ENDBRANCH   1  14
BRANCH   7  19
ATOM     19  C   UNL     1       2.155   7.946  18.826  0.00  0.00    +0.000 A 
ATOM     20  C   UNL     1       2.364   6.889  19.737  0.00  0.00    +0.000 A 
ATOM     21  C   UNL     1       3.336   5.911  19.514  0.00  0.00    +0.000 A 
ATOM     22  C   UNL     1       4.139   5.981  18.381  0.00  0.00    +0.000 A 
ATOM     23  C   UNL     1       3.972   7.030  17.481  0.00  0.00    +0.000 A 
ATOM     24  C   UNL     1       2.992   8.003  17.702  0.00  0.00    +0.000 A 
ENDBRANCH   7  19
BRANCH   3  25
ATOM     25  C   UNL     1      -3.276  11.005  15.631  0.00  0.00    +0.000 C 
ATOM     26  O   UNL     1      -3.847  12.040  15.298  0.00  0.00    +0.000 OA
ATOM     27  N   UNL     1      -3.264   9.872  14.830  0.00  0.00    +0.000 N 
ATOM     28  H   UNL     1      -2.771   9.052  15.170  0.00  0.00    +0.000 HD
BRANCH  27  29
ATOM     29  C   UNL     1      -4.004   9.807  13.574  0.00  0.00    +0.000 C 
BRANCH  29  30
ATOM     30  C   UNL     1      -3.092   9.579  12.370  0.00  0.00    +0.000 C 
BRANCH  30  31
ATOM     31  O   UNL     1      -3.793   9.855  11.158  0.00  0.00    +0.000 OA
ATOM     32  H   UNL     1      -4.607  10.318  11.419  0.00  0.00    +0.000 HD
ENDBRANCH  30  31
ENDBRANCH  29  30
ENDBRANCH  27  29
ENDBRANCH   3  25
BRANCH   9  33
ATOM     33  C   UNL     1      -0.096  11.210  21.711  0.00  0.00    +0.000 C 
ATOM     34  F   UNL     1       0.712  10.557  22.607  0.00  0.00    +0.000 F 
ATOM     35  F   UNL     1       0.372  12.479  21.709  0.00  0.00    +0.000 F 
ATOM     36  F   UNL     1      -1.315  11.198  22.312  0.00  0.00    +0.000 F 
ENDBRANCH   9  33
TORSDOF 8
ENDMDL
MODEL 6
REMARK VINA RESULT:      -6.4      4.357      6.013
REMARK  Name = 
REMARK  9 active torsions:
REMARK  status: ('A' for Active; 'I' for Inactive)
REMARK    1  A    between atoms: C_1  and  O_2
REMARK    2  A    between atoms: O_2  and  C_3
REMARK    3  A    between atoms: C_6  and  C_7
REMARK    4  A    between atoms: C_9  and  C_10
REMARK    5  A    between atoms: N_12  and  C_13
REMARK    6  A    between atoms: C_13  and  C_14
REMARK    7  A    between atoms: C_14  and  O_15
REMARK    8  A    between atoms: C_19  and  C_20
REMARK    9  A    between atoms: C_27  and  C_28
REMARK                            x       y       z     vdW  Elec       q    Type
REMARK                         _______ _______ _______ _____ _____    ______ ____
ROOT
ATOM      1  C   UNL     1      -0.030  13.490  20.641  0.00  0.00    +0.000 A 
ATOM      2  N   UNL     1      -1.014  13.560  21.562  0.00  0.00    +0.000 NA
ATOM      3  C   UNL     1      -1.443  12.420  22.102  0.00  0.00    +0.000 A 
ATOM      4  N   UNL     1      -0.964  11.211  21.812  0.00  0.00    +0.000 NA
ATOM      5  C   UNL     1      -0.002  11.131  20.910  0.00  0.00    +0.000 A 
ATOM      6  N   UNL     1       0.375   9.878  20.700  0.00  0.00    +0.000 NA
ATOM      7  C   UNL     1       1.333   9.576  19.804  0.00  0.00    +0.000 A 
ATOM      8  C   UNL     1       1.961  10.563  19.089  0.00  0.00    +0.000 A 
ATOM      9  C   UNL     1       1.581  11.906  19.247  0.00  0.00    +0.000 A 
ATOM     10  C   UNL     1       0.560  12.242  20.230  0.00  0.00    +0.000 A 
ENDROOT
BRANCH   1  14
ATOM     11  C   UNL     1       0.935  17.222  18.728  0.00  0.00    +0.000 A 
ATOM     12  C   UNL     1       1.677  16.781  19.819  0.00  0.00    +0.000 A 
ATOM     13  C   UNL     1       1.278  15.652  20.542  0.00  0.00    +0.000 A 
ATOM     14  C   UNL     1       0.248  14.834  20.086  0.00  0.00    +0.000 A 
ATOM     15  C   UNL     1      -0.570  15.368  19.068  0.00  0.00    +0.000 A 
ATOM     16  C   UNL     1      -0.244  16.560  18.410  0.00  0.00    +0.000 A 
BRANCH  11  18
ATOM     17  C   UNL     1       0.958  18.537  16.764  0.00  0.00    +0.000 C 
ATOM     18  O   UNL     1       1.433  18.321  18.088  0.00  0.00    +0.000 OA
ENDBRANCH  11  18
ENDBRANCH   1  14
BRANCH   7  19
ATOM     19  C   UNL     1       1.697   8.156  19.644  0.00  0.00    +0.000 A 
ATOM     20  C   UNL     1       1.493   7.218  20.678  0.00  0.00    +0.000 A 
ATOM     21  C   UNL     1       1.763   5.860  20.499  0.00  0.00    +0.000 A 
ATOM     22  C   UNL     1       2.265   5.410  19.283  0.00  0.00    +0.000 A 
ATOM     23  C   UNL     1       2.502   6.320  18.255  0.00  0.00    +0.000 A 
ATOM     24  C   UNL     1       2.223   7.679  18.435  0.00  0.00    +0.000 A 
ENDBRANCH   7  19
BRANCH   3  25
ATOM     25  C   UNL     1      -2.594  12.494  23.083  0.00  0.00    +0.000 C 
ATOM     26  O   UNL     1      -2.998  11.507  23.691  0.00  0.00    +0.000 OA
ATOM     27  N   UNL     1      -3.147  13.755  23.263  0.00  0.00    +0.000 N 
ATOM     28  H   UNL     1      -2.761  14.527  22.728  0.00  0.00    +0.000 HD
BRANCH  27  29
ATOM     29  C   UNL     1      -4.305  13.973  24.124  0.00  0.00    +0.000 C 
BRANCH  29  30
ATOM     30  C   UNL     1      -5.576  13.337  23.565  0.00  0.00    +0.000 C 
BRANCH  30  31
ATOM     31  O   UNL     1      -5.898  12.152  24.292  0.00  0.00    +0.000 OA
ATOM     32  H   UNL     1      -6.253  11.524  23.639  0.00  0.00    +0.000 HD
ENDBRANCH  30  31
ENDBRANCH  29  30
ENDBRANCH  27  29
ENDBRANCH   3  25
BRANCH   9  33
ATOM     33  C   UNL     1       2.363  12.838  18.346  0.00  0.00    +0.000 C 
ATOM     34  F   UNL     1       3.140  13.723  19.049  0.00  0.00    +0.000 F 
ATOM     35  F   UNL     1       3.235  12.214  17.523  0.00  0.00    +0.000 F 
ATOM     36  F   UNL     1       1.559  13.641  17.600  0.00  0.00    +0.000 F 
ENDBRANCH   9  33
TORSDOF 8
ENDMDL
MODEL 7
REMARK VINA RESULT:      -6.4      0.332      1.089
REMARK  Name = 
REMARK  9 active torsions:
REMARK  status: ('A' for Active; 'I' for Inactive)
REMARK    1  A    between atoms: C_1  and  O_2
REMARK    2  A    between atoms: O_2  and  C_3
REMARK    3  A    between atoms: C_6  and  C_7
REMARK    4  A    between atoms: C_9  and  C_10
REMARK    5  A    between atoms: N_12  and  C_13
REMARK    6  A    between atoms: C_13  and  C_14
REMARK    7  A    between atoms: C_14  and  O_15
REMARK    8  A    between atoms: C_19  and  C_20
REMARK    9  A    between atoms: C_27  and  C_28
REMARK                            x       y       z     vdW  Elec       q    Type
REMARK                         _______ _______ _______ _____ _____    ______ ____
ROOT
ATOM      1  C   UNL     1      -2.021  11.631  19.230  0.00  0.00    +0.000 A 
ATOM      2  N   UNL     1      -2.833  11.673  18.152  0.00  0.00    +0.000 NA
ATOM      3  C   UNL     1      -2.551  10.868  17.129  0.00  0.00    +0.000 A 
ATOM      4  N   UNL     1      -1.532  10.009  17.092  0.00  0.00    +0.000 NA
ATOM      5  C   UNL     1      -0.731   9.962  18.141  0.00  0.00    +0.000 A 
ATOM      6  N   UNL     1       0.249   9.084  17.974  0.00  0.00    +0.000 NA
ATOM      7  C   UNL     1       1.187   8.893  18.920  0.00  0.00    +0.000 A 
ATOM      8  C   UNL     1       1.148   9.596  20.098  0.00  0.00    +0.000 A 
ATOM      9  C   UNL     1       0.152  10.563  20.317  0.00  0.00    +0.000 A 
ATOM     10  C   UNL     1      -0.878  10.758  19.305  0.00  0.00    +0.000 A 
ENDROOT
BRANCH   1  14
ATOM     11  C   UNL     1      -3.506  14.680  21.879  0.00  0.00    +0.000 A 
ATOM     12  C   UNL     1      -2.403  14.931  21.070  0.00  0.00    +0.000 A 
ATOM     13  C   UNL     1      -1.820  13.903  20.322  0.00  0.00    +0.000 A 
ATOM     14  C   UNL     1      -2.429  12.655  20.218  0.00  0.00    +0.000 A 
ATOM     15  C   UNL     1      -3.456  12.383  21.144  0.00  0.00    +0.000 A 
ATOM     16  C   UNL     1      -3.976  13.376  21.983  0.00  0.00    +0.000 A 
BRANCH  11  18
ATOM     17  C   UNL     1      -3.810  15.770  23.954  0.00  0.00    +0.000 C 
ATOM     18  O   UNL     1      -4.003  15.764  22.544  0.00  0.00    +0.000 OA
ENDBRANCH  11  18
ENDBRANCH   1  14
BRANCH   7  19
ATOM     19  C   UNL     1       2.232   7.888  18.656  0.00  0.00    +0.000 A 
ATOM     20  C   UNL     1       3.089   7.987  17.539  0.00  0.00    +0.000 A 
ATOM     21  C   UNL     1       4.131   7.080  17.333  0.00  0.00    +0.000 A 
ATOM     22  C   UNL     1       4.325   6.035  18.229  0.00  0.00    +0.000 A 
ATOM     23  C   UNL     1       3.474   5.898  19.323  0.00  0.00    +0.000 A 
ATOM     24  C   UNL     1       2.437   6.813  19.533  0.00  0.00    +0.000 A 
ENDBRANCH   7  19
BRANCH   3  25
ATOM     25  C   UNL     1      -3.422  10.966  15.894  0.00  0.00    +0.000 C 
ATOM     26  O   UNL     1      -4.370  11.743  15.826  0.00  0.00    +0.000 OA
ATOM     27  N   UNL     1      -3.062  10.137  14.841  0.00  0.00    +0.000 N 
ATOM     28  H   UNL     1      -2.265   9.521  14.967  0.00  0.00    +0.000 HD
BRANCH  27  29
ATOM     29  C   UNL     1      -3.845  10.070  13.611  0.00  0.00    +0.000 C 
BRANCH  29  30
ATOM     30  C   UNL     1      -3.007   9.636  12.409  0.00  0.00    +0.000 C 
BRANCH  30  31
ATOM     31  O   UNL     1      -3.774   9.737  11.209  0.00  0.00    +0.000 OA
ATOM     32  H   UNL     1      -3.131   9.871  10.491  0.00  0.00    +0.000 HD
ENDBRANCH  30  31
ENDBRANCH  29  30
ENDBRANCH  27  29
ENDBRANCH   3  25
BRANCH   9  33
ATOM     33  C   UNL     1       0.301  11.253  21.655  0.00  0.00    +0.000 C 
ATOM     34  F   UNL     1      -0.872  11.290  22.364  0.00  0.00    +0.000 F 
ATOM     35  F   UNL     1       1.177  10.657  22.495  0.00  0.00    +0.000 F 
ATOM     36  F   UNL     1       0.641  12.564  21.531  0.00  0.00    +0.000 F 
ENDBRANCH   9  33
TORSDOF 8
ENDMDL
MODEL 8
REMARK VINA RESULT:      -6.4      4.465      7.685
REMARK  Name = 
REMARK  9 active torsions:
REMARK  status: ('A' for Active; 'I' for Inactive)
REMARK    1  A    between atoms: C_1  and  O_2
REMARK    2  A    between atoms: O_2  and  C_3
REMARK    3  A    between atoms: C_6  and  C_7
REMARK    4  A    between atoms: C_9  and  C_10
REMARK    5  A    between atoms: N_12  and  C_13
REMARK    6  A    between atoms: C_13  and  C_14
REMARK    7  A    between atoms: C_14  and  O_15
REMARK    8  A    between atoms: C_19  and  C_20
REMARK    9  A    between atoms: C_27  and  C_28
REMARK                            x       y       z     vdW  Elec       q    Type
REMARK                         _______ _______ _______ _____ _____    ______ ____
ROOT
ATOM      1  C   UNL     1       1.442  12.909  18.940  0.00  0.00    +0.000 A 
ATOM      2  N   UNL     1       1.935  11.689  18.640  0.00  0.00    +0.000 NA
ATOM      3  C   UNL     1       1.119  10.642  18.755  0.00  0.00    +0.000 A 
ATOM      4  N   UNL     1      -0.157  10.708  19.131  0.00  0.00    +0.000 NA
ATOM      5  C   UNL     1      -0.649  11.897  19.429  0.00  0.00    +0.000 A 
ATOM      6  N   UNL     1      -1.919  11.825  19.803  0.00  0.00    +0.000 NA
ATOM      7  C   UNL     1      -2.605  12.925  20.166  0.00  0.00    +0.000 A 
ATOM      8  C   UNL     1      -2.011  14.162  20.145  0.00  0.00    +0.000 A 
ATOM      9  C   UNL     1      -0.658  14.294  19.788  0.00  0.00    +0.000 A 
ATOM     10  C   UNL     1       0.083  13.110  19.374  0.00  0.00    +0.000 A 
ENDROOT
BRANCH   1  14
ATOM     11  C   UNL     1       4.310  16.116  18.853  0.00  0.00    +0.000 A 
ATOM     12  C   UNL     1       3.630  15.752  17.695  0.00  0.00    +0.000 A 
ATOM     13  C   UNL     1       2.813  14.617  17.676  0.00  0.00    +0.000 A 
ATOM     14  C   UNL     1       2.510  13.930  18.849  0.00  0.00    +0.000 A 
ATOM     15  C   UNL     1       3.309  14.228  19.972  0.00  0.00    +0.000 A 
ATOM     16  C   UNL     1       4.216  15.294  19.969  0.00  0.00    +0.000 A 
BRANCH  11  18
ATOM     17  C   UNL     1       6.296  17.245  19.461  0.00  0.00    +0.000 C 
ATOM     18  O   UNL     1       5.059  17.254  18.758  0.00  0.00    +0.000 OA
ENDBRANCH  11  18
ENDBRANCH   1  14
BRANCH   7  19
ATOM     19  C   UNL     1      -4.016  12.754  20.556  0.00  0.00    +0.000 A 
ATOM     20  C   UNL     1      -4.985  12.283  19.644  0.00  0.00    +0.000 A 
ATOM     21  C   UNL     1      -6.304  12.045  20.035  0.00  0.00    +0.000 A 
ATOM     22  C   UNL     1      -6.692  12.294  21.347  0.00  0.00    +0.000 A 
ATOM     23  C   UNL     1      -5.762  12.786  22.259  0.00  0.00    +0.000 A 
ATOM     24  C   UNL     1      -4.439  13.016  21.868  0.00  0.00    +0.000 A 
ENDBRANCH   7  19
BRANCH   3  25
ATOM     25  C   UNL     1       1.695   9.268  18.485  0.00  0.00    +0.000 C 
ATOM     26  O   UNL     1       2.012   8.904  17.356  0.00  0.00    +0.000 OA
ATOM     27  N   UNL     1       1.857   8.457  19.600  0.00  0.00    +0.000 N 
ATOM     28  H   UNL     1       1.573   8.825  20.503  0.00  0.00    +0.000 HD
BRANCH  27  29
ATOM     29  C   UNL     1       2.336   7.083  19.492  0.00  0.00    +0.000 C 
BRANCH  29  30
ATOM     30  C   UNL     1       1.654   6.147  20.488  0.00  0.00    +0.000 C 
BRANCH  30  31
ATOM     31  O   UNL     1       2.600   5.224  21.028  0.00  0.00    +0.000 OA
ATOM     32  H   UNL     1       2.465   5.234  21.991  0.00  0.00    +0.000 HD
ENDBRANCH  30  31
ENDBRANCH  29  30
ENDBRANCH  27  29
ENDBRANCH   3  25
BRANCH   9  33
ATOM     33  C   UNL     1      -0.179  15.727  19.862  0.00  0.00    +0.000 C 
ATOM     34  F   UNL     1      -1.163  16.594  20.261  0.00  0.00    +0.000 F 
ATOM     35  F   UNL     1       0.822  15.934  20.748  0.00  0.00    +0.000 F 
ATOM     36  F   UNL     1       0.205  16.213  18.652  0.00  0.00    +0.000 F 
ENDBRANCH   9  33
TORSDOF 8
ENDMDL
MODEL 9
REMARK VINA RESULT:      -6.3      4.447      7.666
REMARK  Name = 
REMARK  9 active torsions:
REMARK  status: ('A' for Active; 'I' for Inactive)
REMARK    1  A    between atoms: C_1  and  O_2
REMARK    2  A    between atoms: O_2  and  C_3
REMARK    3  A    between atoms: C_6  and  C_7
REMARK    4  A    between atoms: C_9  and  C_10
REMARK    5  A    between atoms: N_12  and  C_13
REMARK    6  A    between atoms: C_13  and  C_14
REMARK    7  A    between atoms: C_14  and  O_15
REMARK    8  A    between atoms: C_19  and  C_20
REMARK    9  A    between atoms: C_27  and  C_28
REMARK                            x       y       z     vdW  Elec       q    Type
REMARK                         _______ _______ _______ _____ _____    ______ ____
ROOT
ATOM      1  C   UNL     1       1.490  12.867  18.934  0.00  0.00    +0.000 A 
ATOM      2  N   UNL     1       1.980  11.651  18.615  0.00  0.00    +0.000 NA
ATOM      3  C   UNL     1       1.168  10.601  18.735  0.00  0.00    +0.000 A 
ATOM      4  N   UNL     1      -0.102  10.661  19.134  0.00  0.00    +0.000 NA
ATOM      5  C   UNL     1      -0.591  11.846  19.451  0.00  0.00    +0.000 A 
ATOM      6  N   UNL     1      -1.854  11.770  19.846  0.00  0.00    +0.000 NA
ATOM      7  C   UNL     1      -2.535  12.865  20.231  0.00  0.00    +0.000 A 
ATOM      8  C   UNL     1      -1.944  14.103  20.210  0.00  0.00    +0.000 A 
ATOM      9  C   UNL     1      -0.598  14.240  19.830  0.00  0.00    +0.000 A 
ATOM     10  C   UNL     1       0.138  13.061  19.393  0.00  0.00    +0.000 A 
ENDROOT
BRANCH   1  14
ATOM     11  C   UNL     1       4.348  16.081  18.819  0.00  0.00    +0.000 A 
ATOM     12  C   UNL     1       3.661  15.713  17.667  0.00  0.00    +0.000 A 
ATOM     13  C   UNL     1       2.847  14.576  17.657  0.00  0.00    +0.000 A 
ATOM     14  C   UNL     1       2.554  13.890  18.833  0.00  0.00    +0.000 A 
ATOM     15  C   UNL     1       3.361  14.193  19.949  0.00  0.00    +0.000 A 
ATOM     16  C   UNL     1       4.265  15.262  19.938  0.00  0.00    +0.000 A 
BRANCH  11  18
ATOM     17  C   UNL     1       5.882  17.553  19.853  0.00  0.00    +0.000 C 
ATOM     18  O   UNL     1       5.093  17.222  18.716  0.00  0.00    +0.000 OA
ENDBRANCH  11  18
ENDBRANCH   1  14
BRANCH   7  19
ATOM     19  C   UNL     1      -3.939  12.688  20.644  0.00  0.00    +0.000 A 
ATOM     20  C   UNL     1      -4.359  12.936  21.968  0.00  0.00    +0.000 A 
ATOM     21  C   UNL     1      -5.702  12.847  22.340  0.00  0.00    +0.000 A 
ATOM     22  C   UNL     1      -6.657  12.484  21.397  0.00  0.00    +0.000 A 
ATOM     23  C   UNL     1      -6.265  12.205  20.090  0.00  0.00    +0.000 A 
ATOM     24  C   UNL     1      -4.920  12.304  19.718  0.00  0.00    +0.000 A 
ENDBRANCH   7  19
BRANCH   3  25
ATOM     25  C   UNL     1       1.741   9.230  18.444  0.00  0.00    +0.000 C 
ATOM     26  O   UNL     1       2.088   8.895  17.315  0.00  0.00    +0.000 OA
ATOM     27  N   UNL     1       1.866   8.388  19.541  0.00  0.00    +0.000 N 
ATOM     28  H   UNL     1       1.560   8.733  20.445  0.00  0.00    +0.000 HD
BRANCH  27  29
ATOM     29  C   UNL     1       2.338   7.014  19.408  0.00  0.00    +0.000 C 
BRANCH  29  30
ATOM     30  C   UNL     1       1.694   6.074  20.426  0.00  0.00    +0.000 C 
BRANCH  30  31
ATOM     31  O   UNL     1       2.681   5.219  21.004  0.00  0.00    +0.000 OA
ATOM     32  H   UNL     1       3.280   5.801  21.502  0.00  0.00    +0.000 HD
ENDBRANCH  30  31
ENDBRANCH  29  30
ENDBRANCH  27  29
ENDBRANCH   3  25
BRANCH   9  33
ATOM     33  C   UNL     1      -0.119  15.674  19.908  0.00  0.00    +0.000 C 
ATOM     34  F   UNL     1       0.922  15.836  20.785  0.00  0.00    +0.000 F 
ATOM     35  F   UNL     1       0.352  16.167  18.740  0.00  0.00    +0.000 F 
ATOM     36  F   UNL     1      -1.073  16.518  20.383  0.00  0.00    +0.000 F 
ENDBRANCH   9  33
TORSDOF 8
ENDMDL
