MODEL 1
REMARK VINA RESULT:      -6.6      0.000      0.000
REMARK  Name = 
REMARK  3 active torsions:
REMARK  status: ('A' for Active; 'I' for Inactive)
REMARK    1  A    between atoms: C_2  and  C_4
REMARK    2  A    between atoms: C_8  and  C_9
REMARK    3  A    between atoms: C_9  and  C_11
REMARK                            x       y       z     vdW  Elec       q    Type
REMARK                         _______ _______ _______ _____ _____    ______ ____
ROOT
ATOM      1  C   UNL     1       5.539   5.076  15.756  0.00  0.00    +0.000 A 
ATOM      2  C   UNL     1       5.437   6.430  16.095  0.00  0.00    +0.000 A 
ATOM      3  C   UNL     1       4.490   6.848  17.027  0.00  0.00    +0.000 A 
ATOM      4  C   UNL     1       3.648   5.912  17.627  0.00  0.00    +0.000 A 
ATOM      5  C   UNL     1       3.744   4.551  17.299  0.00  0.00    +0.000 A 
ATOM      6  C   UNL     1       4.698   4.130  16.362  0.00  0.00    +0.000 A 
ENDROOT
BRANCH   1   8
ATOM      7  N   UNL     1       6.325   3.591  13.994  0.00  0.00    +0.000 N 
ATOM      8  C   UNL     1       6.589   4.672  14.788  0.00  0.00    +0.000 C 
ATOM      9  O   UNL     1       7.631   5.301  14.673  0.00  0.00    +0.000 OA
ATOM     10  H   UNL     1       7.007   3.407  13.267  0.00  0.00    +0.000 HD
ATOM     11  H   UNL     1       5.389   3.244  13.843  0.00  0.00    +0.000 HD
ENDBRANCH   1   8
BRANCH   5  12
ATOM     12  C   UNL     1       2.841   3.601  18.011  0.00  0.00    +0.000 C 
ATOM     13  O   UNL     1       2.113   2.881  17.327  0.00  0.00    +0.000 OA
BRANCH  12  14
ATOM     14  C   UNL     1       2.887   3.547  19.522  0.00  0.00    +0.000 C 
ATOM     15 BR   UNL     1       1.123   3.064  20.157  0.00  0.00    +0.000 Br
ATOM     16 BR   UNL     1       4.272   2.286  20.032  0.00  0.00    +0.000 Br
ENDBRANCH  12  14
ENDBRANCH   5  12
TORSDOF 3
ENDMDL
MODEL 2
REMARK VINA RESULT:      -6.5      1.228      1.228
REMARK  Name = 
REMARK  3 active torsions:
REMARK  status: ('A' for Active; 'I' for Inactive)
REMARK    1  A    between atoms: C_2  and  C_4
REMARK    2  A    between atoms: C_8  and  C_9
REMARK    3  A    between atoms: C_9  and  C_11
REMARK                            x       y       z     vdW  Elec       q    Type
REMARK                         _______ _______ _______ _____ _____    ______ ____
ROOT
ATOM      1  C   UNL     1       5.587   5.089  15.795  0.00  0.00    +0.000 A 
ATOM      2  C   UNL     1       5.330   6.453  15.970  0.00  0.00    +0.000 A 
ATOM      3  C   UNL     1       4.439   6.878  16.953  0.00  0.00    +0.000 A 
ATOM      4  C   UNL     1       3.808   5.938  17.768  0.00  0.00    +0.000 A 
ATOM      5  C   UNL     1       4.060   4.568  17.605  0.00  0.00    +0.000 A 
ATOM      6  C   UNL     1       4.958   4.141  16.617  0.00  0.00    +0.000 A 
ENDROOT
BRANCH   1   8
ATOM      7  N   UNL     1       6.282   3.579  14.016  0.00  0.00    +0.000 N 
ATOM      8  C   UNL     1       6.574   4.687  14.762  0.00  0.00    +0.000 C 
ATOM      9  O   UNL     1       7.586   5.339  14.555  0.00  0.00    +0.000 OA
ATOM     10  H   UNL     1       6.913   3.393  13.245  0.00  0.00    +0.000 HD
ATOM     11  H   UNL     1       5.346   3.205  13.943  0.00  0.00    +0.000 HD
ENDBRANCH   1   8
BRANCH   5  12
ATOM     12  C   UNL     1       3.383   3.622  18.540  0.00  0.00    +0.000 C 
ATOM     13  O   UNL     1       4.006   2.619  18.891  0.00  0.00    +0.000 OA
BRANCH  12  14
ATOM     14  C   UNL     1       1.991   3.954  19.028  0.00  0.00    +0.000 C 
ATOM     15 BR   UNL     1       0.892   2.372  18.824  0.00  0.00    +0.000 Br
ATOM     16 BR   UNL     1       2.133   4.573  20.862  0.00  0.00    +0.000 Br
ENDBRANCH  12  14
ENDBRANCH   5  12
TORSDOF 3
ENDMDL
MODEL 3
REMARK VINA RESULT:      -6.5      1.639      1.639
REMARK  Name = 
REMARK  3 active torsions:
REMARK  status: ('A' for Active; 'I' for Inactive)
REMARK    1  A    between atoms: C_2  and  C_4
REMARK    2  A    between atoms: C_8  and  C_9
REMARK    3  A    between atoms: C_9  and  C_11
REMARK                            x       y       z     vdW  Elec       q    Type
REMARK                         _______ _______ _______ _____ _____    ______ ____
ROOT
ATOM      1  C   UNL     1       5.576   5.083  16.021  0.00  0.00    +0.000 A 
ATOM      2  C   UNL     1       5.175   6.422  16.079  0.00  0.00    +0.000 A 
ATOM      3  C   UNL     1       4.391   6.873  17.140  0.00  0.00    +0.000 A 
ATOM      4  C   UNL     1       4.012   5.985  18.147  0.00  0.00    +0.000 A 
ATOM      5  C   UNL     1       4.412   4.641  18.101  0.00  0.00    +0.000 A 
ATOM      6  C   UNL     1       5.201   4.189  17.035  0.00  0.00    +0.000 A 
ENDROOT
BRANCH   1   8
ATOM      7  N   UNL     1       7.566   5.401  14.655  0.00  0.00    +0.000 N 
ATOM      8  C   UNL     1       6.443   4.659  14.894  0.00  0.00    +0.000 C 
ATOM      9  O   UNL     1       6.191   3.664  14.230  0.00  0.00    +0.000 OA
ATOM     10  H   UNL     1       8.197   5.026  13.957  0.00  0.00    +0.000 HD
ATOM     11  H   UNL     1       7.963   6.022  15.346  0.00  0.00    +0.000 HD
ENDBRANCH   1   8
BRANCH   5  12
ATOM     12  C   UNL     1       4.006   3.758  19.234  0.00  0.00    +0.000 C 
ATOM     13  O   UNL     1       4.861   3.011  19.711  0.00  0.00    +0.000 OA
BRANCH  12  14
ATOM     14  C   UNL     1       2.589   3.846  19.753  0.00  0.00    +0.000 C 
ATOM     15 BR   UNL     1       1.403   3.193  18.368  0.00  0.00    +0.000 Br
ATOM     16 BR   UNL     1       2.493   2.829  21.403  0.00  0.00    +0.000 Br
ENDBRANCH  12  14
ENDBRANCH   5  12
TORSDOF 3
ENDMDL
MODEL 4
REMARK VINA RESULT:      -6.4      1.612      1.654
REMARK  Name = 
REMARK  3 active torsions:
REMARK  status: ('A' for Active; 'I' for Inactive)
REMARK    1  A    between atoms: C_2  and  C_4
REMARK    2  A    between atoms: C_8  and  C_9
REMARK    3  A    between atoms: C_9  and  C_11
REMARK                            x       y       z     vdW  Elec       q    Type
REMARK                         _______ _______ _______ _____ _____    ______ ____
ROOT
ATOM      1  C   UNL     1       6.376   4.837  16.326  0.00  0.00    +0.000 A 
ATOM      2  C   UNL     1       7.311   5.163  17.315  0.00  0.00    +0.000 A 
ATOM      3  C   UNL     1       6.904   5.319  18.639  0.00  0.00    +0.000 A 
ATOM      4  C   UNL     1       5.562   5.143  18.976  0.00  0.00    +0.000 A 
ATOM      5  C   UNL     1       4.617   4.812  17.994  0.00  0.00    +0.000 A 
ATOM      6  C   UNL     1       5.026   4.653  16.663  0.00  0.00    +0.000 A 
ENDROOT
BRANCH   1   8
ATOM      7  N   UNL     1       6.311   3.617  14.220  0.00  0.00    +0.000 N 
ATOM      8  C   UNL     1       6.863   4.642  14.938  0.00  0.00    +0.000 C 
ATOM      9  O   UNL     1       7.691   5.388  14.438  0.00  0.00    +0.000 OA
ATOM     10  H   UNL     1       6.576   3.577  13.243  0.00  0.00    +0.000 HD
ATOM     11  H   UNL     1       5.434   3.187  14.476  0.00  0.00    +0.000 HD
ENDBRANCH   1   8
BRANCH   5  12
ATOM     12  C   UNL     1       3.206   4.597  18.433  0.00  0.00    +0.000 C 
ATOM     13  O   UNL     1       2.339   5.323  17.948  0.00  0.00    +0.000 OA
BRANCH  12  14
ATOM     14  C   UNL     1       2.913   3.488  19.419  0.00  0.00    +0.000 C 
ATOM     15 BR   UNL     1       1.096   3.713  20.048  0.00  0.00    +0.000 Br
ATOM     16 BR   UNL     1       3.225   1.795  18.524  0.00  0.00    +0.000 Br
ENDBRANCH  12  14
ENDBRANCH   5  12
TORSDOF 3
ENDMDL
MODEL 5
REMARK VINA RESULT:      -6.3      4.077      5.747
REMARK  Name = 
REMARK  3 active torsions:
REMARK  status: ('A' for Active; 'I' for Inactive)
REMARK    1  A    between atoms: C_2  and  C_4
REMARK    2  A    between atoms: C_8  and  C_9
REMARK    3  A    between atoms: C_9  and  C_11
REMARK                            x       y       z     vdW  Elec       q    Type
REMARK                         _______ _______ _______ _____ _____    ______ ____
ROOT
ATOM      1  C   UNL     1       2.671   3.494  19.776  0.00  0.00    +0.000 A 
ATOM      2  C   UNL     1       1.760   3.592  18.719  0.00  0.00    +0.000 A 
ATOM      3  C   UNL     1       2.170   4.096  17.486  0.00  0.00    +0.000 A 
ATOM      4  C   UNL     1       3.494   4.497  17.307  0.00  0.00    +0.000 A 
ATOM      5  C   UNL     1       4.417   4.399  18.359  0.00  0.00    +0.000 A 
ATOM      6  C   UNL     1       4.005   3.891  19.598  0.00  0.00    +0.000 A 
ENDROOT
BRANCH   1   8
ATOM      7  N   UNL     1       0.848   2.842  21.252  0.00  0.00    +0.000 N 
ATOM      8  C   UNL     1       2.199   2.913  21.058  0.00  0.00    +0.000 C 
ATOM      9  O   UNL     1       2.981   2.479  21.891  0.00  0.00    +0.000 OA
ATOM     10  H   UNL     1       0.552   2.340  22.081  0.00  0.00    +0.000 HD
ATOM     11  H   UNL     1       0.187   2.900  20.490  0.00  0.00    +0.000 HD
ENDBRANCH   1   8
BRANCH   5  12
ATOM     12  C   UNL     1       5.827   4.806  18.084  0.00  0.00    +0.000 C 
ATOM     13  O   UNL     1       6.709   4.333  18.802  0.00  0.00    +0.000 OA
BRANCH  12  14
ATOM     14  C   UNL     1       6.101   5.746  16.931  0.00  0.00    +0.000 C 
ATOM     15 BR   UNL     1       7.353   7.091  17.541  0.00  0.00    +0.000 Br
ATOM     16 BR   UNL     1       6.756   4.688  15.442  0.00  0.00    +0.000 Br
ENDBRANCH  12  14
ENDBRANCH   5  12
TORSDOF 3
ENDMDL
MODEL 6
REMARK VINA RESULT:      -6.3      2.084      2.222
REMARK  Name = 
REMARK  3 active torsions:
REMARK  status: ('A' for Active; 'I' for Inactive)
REMARK    1  A    between atoms: C_2  and  C_4
REMARK    2  A    between atoms: C_8  and  C_9
REMARK    3  A    between atoms: C_9  and  C_11
REMARK                            x       y       z     vdW  Elec       q    Type
REMARK                         _______ _______ _______ _____ _____    ______ ____
ROOT
ATOM      1  C   UNL     1       6.500   4.851  16.482  0.00  0.00    +0.000 A 
ATOM      2  C   UNL     1       7.314   5.720  17.216  0.00  0.00    +0.000 A 
ATOM      3  C   UNL     1       7.076   5.924  18.574  0.00  0.00    +0.000 A 
ATOM      4  C   UNL     1       6.026   5.253  19.201  0.00  0.00    +0.000 A 
ATOM      5  C   UNL     1       5.205   4.376  18.476  0.00  0.00    +0.000 A 
ATOM      6  C   UNL     1       5.446   4.170  17.111  0.00  0.00    +0.000 A 
ENDROOT
BRANCH   1   8
ATOM      7  N   UNL     1       7.731   5.476  14.477  0.00  0.00    +0.000 N 
ATOM      8  C   UNL     1       6.817   4.635  15.048  0.00  0.00    +0.000 C 
ATOM      9  O   UNL     1       6.316   3.720  14.412  0.00  0.00    +0.000 OA
ATOM     10  H   UNL     1       8.013   5.236  13.533  0.00  0.00    +0.000 HD
ATOM     11  H   UNL     1       8.377   6.027  15.023  0.00  0.00    +0.000 HD
ENDBRANCH   1   8
BRANCH   5  12
ATOM     12  C   UNL     1       4.127   3.660  19.220  0.00  0.00    +0.000 C 
ATOM     13  O   UNL     1       4.365   2.517  19.612  0.00  0.00    +0.000 OA
BRANCH  12  14
ATOM     14  C   UNL     1       2.822   4.379  19.479  0.00  0.00    +0.000 C 
ATOM     15 BR   UNL     1       1.729   4.224  17.889  0.00  0.00    +0.000 Br
ATOM     16 BR   UNL     1       2.014   3.595  21.060  0.00  0.00    +0.000 Br
ENDBRANCH  12  14
ENDBRANCH   5  12
TORSDOF 3
ENDMDL
MODEL 7
REMARK VINA RESULT:      -6.3      2.861      3.246
REMARK  Name = 
REMARK  3 active torsions:
REMARK  status: ('A' for Active; 'I' for Inactive)
REMARK    1  A    between atoms: C_2  and  C_4
REMARK    2  A    between atoms: C_8  and  C_9
REMARK    3  A    between atoms: C_9  and  C_11
REMARK                            x       y       z     vdW  Elec       q    Type
REMARK                         _______ _______ _______ _____ _____    ______ ____
ROOT
ATOM      1  C   UNL     1       6.845   5.338  18.007  0.00  0.00    +0.000 A 
ATOM      2  C   UNL     1       7.008   5.453  16.622  0.00  0.00    +0.000 A 
ATOM      3  C   UNL     1       6.123   4.812  15.757  0.00  0.00    +0.000 A 
ATOM      4  C   UNL     1       5.070   4.059  16.277  0.00  0.00    +0.000 A 
ATOM      5  C   UNL     1       4.894   3.940  17.663  0.00  0.00    +0.000 A 
ATOM      6  C   UNL     1       5.783   4.587  18.533  0.00  0.00    +0.000 A 
ENDROOT
BRANCH   1   8
ATOM      7  N   UNL     1       8.188   5.445  20.035  0.00  0.00    +0.000 N 
ATOM      8  C   UNL     1       7.788   6.072  18.888  0.00  0.00    +0.000 C 
ATOM      9  O   UNL     1       8.223   7.173  18.584  0.00  0.00    +0.000 OA
ATOM     10  H   UNL     1       8.916   5.917  20.558  0.00  0.00    +0.000 HD
ATOM     11  H   UNL     1       8.101   4.448  20.166  0.00  0.00    +0.000 HD
ENDBRANCH   1   8
BRANCH   5  12
ATOM     12  C   UNL     1       3.721   3.155  18.149  0.00  0.00    +0.000 C 
ATOM     13  O   UNL     1       3.945   2.160  18.841  0.00  0.00    +0.000 OA
BRANCH  12  14
ATOM     14  C   UNL     1       2.330   3.632  17.797  0.00  0.00    +0.000 C 
ATOM     15 BR   UNL     1       1.060   2.551  18.780  0.00  0.00    +0.000 Br
ATOM     16 BR   UNL     1       2.227   5.526  18.211  0.00  0.00    +0.000 Br
ENDBRANCH  12  14
ENDBRANCH   5  12
TORSDOF 3
ENDMDL
MODEL 8
REMARK VINA RESULT:      -6.3      1.834      2.074
REMARK  Name = 
REMARK  3 active torsions:
REMARK  status: ('A' for Active; 'I' for Inactive)
REMARK    1  A    between atoms: C_2  and  C_4
REMARK    2  A    between atoms: C_8  and  C_9
REMARK    3  A    between atoms: C_9  and  C_11
REMARK                            x       y       z     vdW  Elec       q    Type
REMARK                         _______ _______ _______ _____ _____    ______ ____
ROOT
ATOM      1  C   UNL     1       6.459   4.640  16.227  0.00  0.00    +0.000 A 
ATOM      2  C   UNL     1       7.265   5.308  17.155  0.00  0.00    +0.000 A 
ATOM      3  C   UNL     1       6.909   5.334  18.502  0.00  0.00    +0.000 A 
ATOM      4  C   UNL     1       5.749   4.684  18.923  0.00  0.00    +0.000 A 
ATOM      5  C   UNL     1       4.935   4.007  18.003  0.00  0.00    +0.000 A 
ATOM      6  C   UNL     1       5.294   3.981  16.648  0.00  0.00    +0.000 A 
ENDROOT
BRANCH   1   8
ATOM      7  N   UNL     1       6.354   3.643  14.008  0.00  0.00    +0.000 N 
ATOM      8  C   UNL     1       6.900   4.607  14.810  0.00  0.00    +0.000 C 
ATOM      9  O   UNL     1       7.686   5.429  14.364  0.00  0.00    +0.000 OA
ATOM     10  H   UNL     1       6.584   3.713  13.024  0.00  0.00    +0.000 HD
ATOM     11  H   UNL     1       5.501   3.158  14.246  0.00  0.00    +0.000 HD
ENDBRANCH   1   8
BRANCH   5  12
ATOM     12  C   UNL     1       3.731   3.299  18.530  0.00  0.00    +0.000 C 
ATOM     13  O   UNL     1       3.900   2.479  19.433  0.00  0.00    +0.000 OA
BRANCH  12  14
ATOM     14  C   UNL     1       2.376   3.643  17.955  0.00  0.00    +0.000 C 
ATOM     15 BR   UNL     1       1.053   2.541  18.842  0.00  0.00    +0.000 Br
ATOM     16 BR   UNL     1       2.091   5.548  18.195  0.00  0.00    +0.000 Br
ENDBRANCH  12  14
ENDBRANCH   5  12
TORSDOF 3
ENDMDL
MODEL 9
REMARK VINA RESULT:      -6.3      2.249      2.273
REMARK  Name = 
REMARK  3 active torsions:
REMARK  status: ('A' for Active; 'I' for Inactive)
REMARK    1  A    between atoms: C_2  and  C_4
REMARK    2  A    between atoms: C_8  and  C_9
REMARK    3  A    between atoms: C_9  and  C_11
REMARK                            x       y       z     vdW  Elec       q    Type
REMARK                         _______ _______ _______ _____ _____    ______ ____
ROOT
ATOM      1  C   UNL     1       5.778   5.334  17.469  0.00  0.00    +0.000 A 
ATOM      2  C   UNL     1       5.359   6.527  16.870  0.00  0.00    +0.000 A 
ATOM      3  C   UNL     1       4.134   7.092  17.218  0.00  0.00    +0.000 A 
ATOM      4  C   UNL     1       3.329   6.468  18.170  0.00  0.00    +0.000 A 
ATOM      5  C   UNL     1       3.740   5.274  18.781  0.00  0.00    +0.000 A 
ATOM      6  C   UNL     1       4.973   4.706  18.432  0.00  0.00    +0.000 A 
ENDROOT
BRANCH   1   8
ATOM      7  N   UNL     1       7.886   4.295  18.105  0.00  0.00    +0.000 N 
ATOM      8  C   UNL     1       7.108   4.791  17.096  0.00  0.00    +0.000 C 
ATOM      9  O   UNL     1       7.480   4.750  15.933  0.00  0.00    +0.000 OA
ATOM     10  H   UNL     1       8.736   3.829  17.811  0.00  0.00    +0.000 HD
ATOM     11  H   UNL     1       7.507   4.034  19.004  0.00  0.00    +0.000 HD
ENDBRANCH   1   8
BRANCH   5  12
ATOM     12  C   UNL     1       2.848   4.683  19.822  0.00  0.00    +0.000 C 
ATOM     13  O   UNL     1       2.214   5.458  20.539  0.00  0.00    +0.000 OA
BRANCH  12  14
ATOM     14  C   UNL     1       2.746   3.178  19.923  0.00  0.00    +0.000 C 
ATOM     15 BR   UNL     1       1.785   2.752  21.548  0.00  0.00    +0.000 Br
ATOM     16 BR   UNL     1       1.879   2.529  18.312  0.00  0.00    +0.000 Br
ENDBRANCH  12  14
ENDBRANCH   5  12
TORSDOF 3
ENDMDL
