MODEL 1
REMARK VINA RESULT:      -8.3      0.000      0.000
REMARK  Name = 
REMARK  7 active torsions:
REMARK  status: ('A' for Active; 'I' for Inactive)
REMARK    1  A    between atoms: C_1  and  C_2
REMARK    2  A    between atoms: C_2  and  N_3
REMARK    3  A    between atoms: N_15  and  C_16
REMARK    4  A    between atoms: C_16  and  C_17
REMARK    5  A    between atoms: C_17  and  C_18
REMARK    6  A    between atoms: C_18  and  O_19
REMARK    7  A    between atoms: O_19  and  C_20
REMARK                            x       y       z     vdW  Elec       q    Type
REMARK                         _______ _______ _______ _____ _____    ______ ____
ROOT
ATOM      1  N   UNL     1       3.473   3.544  18.972  0.00  0.00    +0.000 NA
ATOM      2  C   UNL     1       3.725   4.895  19.541  0.00  0.00    +0.000 C 
ATOM      3  C   UNL     1       5.182   5.393  19.325  0.00  0.00    +0.000 C 
ATOM      4  C   UNL     1       5.569   5.154  17.903  0.00  0.00    +0.000 A 
ATOM      5  C   UNL     1       4.890   4.277  17.092  0.00  0.00    +0.000 A 
ATOM      6  C   UNL     1       5.527   4.289  15.829  0.00  0.00    +0.000 A 
ATOM      7  C   UNL     1       5.259   3.604  14.623  0.00  0.00    +0.000 A 
ATOM      8  C   UNL     1       6.063   3.830  13.509  0.00  0.00    +0.000 A 
ATOM      9 CL   UNL     1       5.729   3.005  12.038  0.00  0.00    +0.000 Cl
ATOM     10  C   UNL     1       7.124   4.714  13.576  0.00  0.00    +0.000 A 
ATOM     11  C   UNL     1       7.411   5.396  14.763  0.00  0.00    +0.000 A 
ATOM     12  C   UNL     1       6.604   5.188  15.900  0.00  0.00    +0.000 A 
ATOM     13  N   UNL     1       6.616   5.708  17.195  0.00  0.00    +0.000 N 
ATOM     14  C   UNL     1       3.670   3.520  17.503  0.00  0.00    +0.000 C 
ENDROOT
BRANCH   1  16
ATOM     15  C   UNL     1       1.931   2.714  20.784  0.00  0.00    +0.000 C 
ATOM     16  C   UNL     1       2.110   3.099  19.316  0.00  0.00    +0.000 C 
ENDBRANCH   1  16
BRANCH  13  17
ATOM     17  C   UNL     1       7.527   6.680  17.797  0.00  0.00    +0.000 C 
BRANCH  17  18
ATOM     18  C   UNL     1       7.175   8.158  17.665  0.00  0.00    +0.000 C 
BRANCH  18  19
ATOM     19  C   UNL     1       8.383   9.077  17.706  0.00  0.00    +0.000 C 
BRANCH  19  20
ATOM     20  O   UNL     1       8.798   9.239  19.057  0.00  0.00    +0.000 OA
BRANCH  20  21
ATOM     21  C   UNL     1       9.408  10.423  19.366  0.00  0.00    +0.000 A 
ATOM     22  C   UNL     1       9.505  10.982  20.642  0.00  0.00    +0.000 A 
ATOM     23  C   UNL     1      10.153  12.206  20.827  0.00  0.00    +0.000 A 
ATOM     24  C   UNL     1      10.707  12.867  19.732  0.00  0.00    +0.000 A 
ATOM     25 CL   UNL     1      11.504  14.374  19.960  0.00  0.00    +0.000 Cl
ATOM     26  C   UNL     1      10.618  12.315  18.456  0.00  0.00    +0.000 A 
ATOM     27  C   UNL     1       9.967  11.094  18.277  0.00  0.00    +0.000 A 
ENDBRANCH  20  21
ENDBRANCH  19  20
ENDBRANCH  18  19
ENDBRANCH  17  18
ENDBRANCH  13  17
TORSDOF 6
ENDMDL
MODEL 2
REMARK VINA RESULT:      -8.2      0.716      1.102
REMARK  Name = 
REMARK  7 active torsions:
REMARK  status: ('A' for Active; 'I' for Inactive)
REMARK    1  A    between atoms: C_1  and  C_2
REMARK    2  A    between atoms: C_2  and  N_3
REMARK    3  A    between atoms: N_15  and  C_16
REMARK    4  A    between atoms: C_16  and  C_17
REMARK    5  A    between atoms: C_17  and  C_18
REMARK    6  A    between atoms: C_18  and  O_19
REMARK    7  A    between atoms: O_19  and  C_20
REMARK                            x       y       z     vdW  Elec       q    Type
REMARK                         _______ _______ _______ _____ _____    ______ ____
ROOT
ATOM      1  N   UNL     1       3.004   3.867  18.790  0.00  0.00    +0.000 NA
ATOM      2  C   UNL     1       3.394   5.154  19.427  0.00  0.00    +0.000 C 
ATOM      3  C   UNL     1       4.917   5.450  19.335  0.00  0.00    +0.000 C 
ATOM      4  C   UNL     1       5.376   5.198  17.937  0.00  0.00    +0.000 A 
ATOM      5  C   UNL     1       4.648   4.447  17.047  0.00  0.00    +0.000 A 
ATOM      6  C   UNL     1       5.376   4.403  15.834  0.00  0.00    +0.000 A 
ATOM      7  C   UNL     1       5.110   3.795  14.587  0.00  0.00    +0.000 A 
ATOM      8  C   UNL     1       6.021   3.938  13.544  0.00  0.00    +0.000 A 
ATOM      9 CL   UNL     1       5.691   3.207  12.022  0.00  0.00    +0.000 Cl
ATOM     10  C   UNL     1       7.185   4.663  13.721  0.00  0.00    +0.000 A 
ATOM     11  C   UNL     1       7.471   5.266  14.950  0.00  0.00    +0.000 A 
ATOM     12  C   UNL     1       6.558   5.141  16.017  0.00  0.00    +0.000 A 
ATOM     13  N   UNL     1       6.541   5.620  17.328  0.00  0.00    +0.000 N 
ATOM     14  C   UNL     1       3.308   3.856  17.339  0.00  0.00    +0.000 C 
ENDROOT
BRANCH   1  16
ATOM     15  C   UNL     1       1.081   3.987  20.415  0.00  0.00    +0.000 C 
ATOM     16  C   UNL     1       1.570   3.607  19.017  0.00  0.00    +0.000 C 
ENDBRANCH   1  16
BRANCH  13  17
ATOM     17  C   UNL     1       7.527   6.439  18.031  0.00  0.00    +0.000 C 
BRANCH  17  18
ATOM     18  C   UNL     1       7.628   7.911  17.647  0.00  0.00    +0.000 C 
BRANCH  18  19
ATOM     19  C   UNL     1       8.744   8.652  18.365  0.00  0.00    +0.000 C 
BRANCH  19  20
ATOM     20  O   UNL     1       8.259   9.919  18.793  0.00  0.00    +0.000 OA
BRANCH  20  21
ATOM     21  C   UNL     1       9.153  10.952  18.760  0.00  0.00    +0.000 A 
ATOM     22  C   UNL     1       9.219  11.944  17.778  0.00  0.00    +0.000 A 
ATOM     23  C   UNL     1      10.187  12.948  17.856  0.00  0.00    +0.000 A 
ATOM     24  C   UNL     1      11.087  12.960  18.920  0.00  0.00    +0.000 A 
ATOM     25 CL   UNL     1      12.279  14.195  19.014  0.00  0.00    +0.000 Cl
ATOM     26  C   UNL     1      11.027  11.976  19.905  0.00  0.00    +0.000 A 
ATOM     27  C   UNL     1      10.060  10.974  19.821  0.00  0.00    +0.000 A 
ENDBRANCH  20  21
ENDBRANCH  19  20
ENDBRANCH  18  19
ENDBRANCH  17  18
ENDBRANCH  13  17
TORSDOF 6
ENDMDL
MODEL 3
REMARK VINA RESULT:      -7.9      4.728      7.779
REMARK  Name = 
REMARK  7 active torsions:
REMARK  status: ('A' for Active; 'I' for Inactive)
REMARK    1  A    between atoms: C_1  and  C_2
REMARK    2  A    between atoms: C_2  and  N_3
REMARK    3  A    between atoms: N_15  and  C_16
REMARK    4  A    between atoms: C_16  and  C_17
REMARK    5  A    between atoms: C_17  and  C_18
REMARK    6  A    between atoms: C_18  and  O_19
REMARK    7  A    between atoms: O_19  and  C_20
REMARK                            x       y       z     vdW  Elec       q    Type
REMARK                         _______ _______ _______ _____ _____    ______ ____
ROOT
ATOM      1  N   UNL     1       1.209   9.395  19.616  0.00  0.00    +0.000 NA
ATOM      2  C   UNL     1       1.558   9.530  18.177  0.00  0.00    +0.000 C 
ATOM      3  C   UNL     1       2.919   8.874  17.808  0.00  0.00    +0.000 C 
ATOM      4  C   UNL     1       2.978   7.510  18.413  0.00  0.00    +0.000 A 
ATOM      5  C   UNL     1       2.149   7.122  19.438  0.00  0.00    +0.000 A 
ATOM      6  C   UNL     1       2.483   5.788  19.770  0.00  0.00    +0.000 A 
ATOM      7  C   UNL     1       1.962   4.888  20.726  0.00  0.00    +0.000 A 
ATOM      8  C   UNL     1       2.488   3.602  20.819  0.00  0.00    +0.000 A 
ATOM      9 CL   UNL     1       1.844   2.503  21.975  0.00  0.00    +0.000 Cl
ATOM     10  C   UNL     1       3.520   3.203  19.991  0.00  0.00    +0.000 A 
ATOM     11  C   UNL     1       4.056   4.082  19.044  0.00  0.00    +0.000 A 
ATOM     12  C   UNL     1       3.532   5.386  18.927  0.00  0.00    +0.000 A 
ATOM     13  N   UNL     1       3.827   6.468  18.098  0.00  0.00    +0.000 N 
ATOM     14  C   UNL     1       1.069   7.974  20.017  0.00  0.00    +0.000 C 
ENDROOT
BRANCH   1  16
ATOM     15  C   UNL     1      -0.319  10.314  21.396  0.00  0.00    +0.000 C 
ATOM     16  C   UNL     1      -0.033  10.136  19.905  0.00  0.00    +0.000 C 
ENDBRANCH   1  16
BRANCH  13  17
ATOM     17  C   UNL     1       4.832   6.584  17.043  0.00  0.00    +0.000 C 
BRANCH  17  18
ATOM     18  C   UNL     1       6.300   6.520  17.452  0.00  0.00    +0.000 C 
BRANCH  18  19
ATOM     19  C   UNL     1       7.086   5.439  16.732  0.00  0.00    +0.000 C 
BRANCH  19  20
ATOM     20  O   UNL     1       7.391   5.885  15.416  0.00  0.00    +0.000 OA
BRANCH  20  21
ATOM     21  C   UNL     1       6.969   5.086  14.391  0.00  0.00    +0.000 A 
ATOM     22  C   UNL     1       7.609   4.931  13.159  0.00  0.00    +0.000 A 
ATOM     23  C   UNL     1       7.070   4.084  12.188  0.00  0.00    +0.000 A 
ATOM     24  C   UNL     1       5.893   3.388  12.453  0.00  0.00    +0.000 A 
ATOM     25 CL   UNL     1       5.231   2.345  11.257  0.00  0.00    +0.000 Cl
ATOM     26  C   UNL     1       5.249   3.534  13.680  0.00  0.00    +0.000 A 
ATOM     27  C   UNL     1       5.789   4.384  14.646  0.00  0.00    +0.000 A 
ENDBRANCH  20  21
ENDBRANCH  19  20
ENDBRANCH  18  19
ENDBRANCH  17  18
ENDBRANCH  13  17
TORSDOF 6
ENDMDL
MODEL 4
REMARK VINA RESULT:      -7.8      4.726      7.621
REMARK  Name = 
REMARK  7 active torsions:
REMARK  status: ('A' for Active; 'I' for Inactive)
REMARK    1  A    between atoms: C_1  and  C_2
REMARK    2  A    between atoms: C_2  and  N_3
REMARK    3  A    between atoms: N_15  and  C_16
REMARK    4  A    between atoms: C_16  and  C_17
REMARK    5  A    between atoms: C_17  and  C_18
REMARK    6  A    between atoms: C_18  and  O_19
REMARK    7  A    between atoms: O_19  and  C_20
REMARK                            x       y       z     vdW  Elec       q    Type
REMARK                         _______ _______ _______ _____ _____    ______ ____
ROOT
ATOM      1  N   UNL     1       1.239   8.902  20.108  0.00  0.00    +0.000 NA
ATOM      2  C   UNL     1       1.419   9.159  18.654  0.00  0.00    +0.000 C 
ATOM      3  C   UNL     1       2.759   8.608  18.091  0.00  0.00    +0.000 C 
ATOM      4  C   UNL     1       2.951   7.210  18.579  0.00  0.00    +0.000 A 
ATOM      5  C   UNL     1       2.261   6.704  19.655  0.00  0.00    +0.000 A 
ATOM      6  C   UNL     1       2.694   5.371  19.845  0.00  0.00    +0.000 A 
ATOM      7  C   UNL     1       2.326   4.377  20.779  0.00  0.00    +0.000 A 
ATOM      8  C   UNL     1       2.920   3.119  20.716  0.00  0.00    +0.000 A 
ATOM      9 CL   UNL     1       2.463   1.906  21.846  0.00  0.00    +0.000 Cl
ATOM     10  C   UNL     1       3.871   2.838  19.753  0.00  0.00    +0.000 A 
ATOM     11  C   UNL     1       4.255   3.812  18.824  0.00  0.00    +0.000 A 
ATOM     12  C   UNL     1       3.660   5.089  18.865  0.00  0.00    +0.000 A 
ATOM     13  N   UNL     1       3.808   6.243  18.095  0.00  0.00    +0.000 N 
ATOM     14  C   UNL     1       1.213   7.451  20.412  0.00  0.00    +0.000 C 
ENDROOT
BRANCH   1  16
ATOM     15  C   UNL     1      -0.387   9.170  22.014  0.00  0.00    +0.000 C 
ATOM     16  C   UNL     1       0.004   9.550  20.586  0.00  0.00    +0.000 C 
ENDBRANCH   1  16
BRANCH  13  17
ATOM     17  C   UNL     1       4.682   6.490  16.950  0.00  0.00    +0.000 C 
BRANCH  17  18
ATOM     18  C   UNL     1       6.160   6.741  17.228  0.00  0.00    +0.000 C 
BRANCH  18  19
ATOM     19  C   UNL     1       7.073   5.641  16.715  0.00  0.00    +0.000 C 
BRANCH  19  20
ATOM     20  O   UNL     1       7.366   5.883  15.344  0.00  0.00    +0.000 OA
BRANCH  20  21
ATOM     21  C   UNL     1       6.839   4.997  14.446  0.00  0.00    +0.000 A 
ATOM     22  C   UNL     1       5.690   4.226  14.638  0.00  0.00    +0.000 A 
ATOM     23  C   UNL     1       5.255   3.350  13.641  0.00  0.00    +0.000 A 
ATOM     24  C   UNL     1       5.971   3.249  12.449  0.00  0.00    +0.000 A 
ATOM     25 CL   UNL     1       5.436   2.168  11.223  0.00  0.00    +0.000 Cl
ATOM     26  C   UNL     1       7.117   4.015  12.248  0.00  0.00    +0.000 A 
ATOM     27  C   UNL     1       7.548   4.887  13.248  0.00  0.00    +0.000 A 
ENDBRANCH  20  21
ENDBRANCH  19  20
ENDBRANCH  18  19
ENDBRANCH  17  18
ENDBRANCH  13  17
TORSDOF 6
ENDMDL
MODEL 5
REMARK VINA RESULT:      -7.7      2.012      4.265
REMARK  Name = 
REMARK  7 active torsions:
REMARK  status: ('A' for Active; 'I' for Inactive)
REMARK    1  A    between atoms: C_1  and  C_2
REMARK    2  A    between atoms: C_2  and  N_3
REMARK    3  A    between atoms: N_15  and  C_16
REMARK    4  A    between atoms: C_16  and  C_17
REMARK    5  A    between atoms: C_17  and  C_18
REMARK    6  A    between atoms: C_18  and  O_19
REMARK    7  A    between atoms: O_19  and  C_20
REMARK                            x       y       z     vdW  Elec       q    Type
REMARK                         _______ _______ _______ _____ _____    ______ ____
ROOT
ATOM      1  N   UNL     1       5.803   4.152  13.480  0.00  0.00    +0.000 NA
ATOM      2  C   UNL     1       7.203   4.275  13.966  0.00  0.00    +0.000 C 
ATOM      3  C   UNL     1       7.364   5.289  15.133  0.00  0.00    +0.000 C 
ATOM      4  C   UNL     1       6.296   5.036  16.146  0.00  0.00    +0.000 A 
ATOM      5  C   UNL     1       5.162   4.317  15.856  0.00  0.00    +0.000 A 
ATOM      6  C   UNL     1       4.370   4.284  17.028  0.00  0.00    +0.000 A 
ATOM      7  C   UNL     1       3.124   3.686  17.316  0.00  0.00    +0.000 A 
ATOM      8  C   UNL     1       2.580   3.808  18.592  0.00  0.00    +0.000 A 
ATOM      9 CL   UNL     1       1.068   3.069  18.946  0.00  0.00    +0.000 Cl
ATOM     10  C   UNL     1       3.248   4.513  19.576  0.00  0.00    +0.000 A 
ATOM     11  C   UNL     1       4.480   5.120  19.309  0.00  0.00    +0.000 A 
ATOM     12  C   UNL     1       5.051   5.002  18.025  0.00  0.00    +0.000 A 
ATOM     13  N   UNL     1       6.239   5.464  17.457  0.00  0.00    +0.000 N 
ATOM     14  C   UNL     1       4.892   3.660  14.542  0.00  0.00    +0.000 C 
ENDROOT
BRANCH   1  16
ATOM     15  C   UNL     1       4.414   3.274  11.570  0.00  0.00    +0.000 C 
ATOM     16  C   UNL     1       5.753   3.261  12.306  0.00  0.00    +0.000 C 
ENDBRANCH   1  16
BRANCH  13  17
ATOM     17  C   UNL     1       7.307   6.261  18.056  0.00  0.00    +0.000 C 
BRANCH  17  18
ATOM     18  C   UNL     1       7.476   7.698  17.573  0.00  0.00    +0.000 C 
BRANCH  18  19
ATOM     19  C   UNL     1       8.476   8.501  18.387  0.00  0.00    +0.000 C 
BRANCH  19  20
ATOM     20  O   UNL     1       8.639   9.781  17.788  0.00  0.00    +0.000 OA
BRANCH  20  21
ATOM     21  C   UNL     1       9.122  10.771  18.597  0.00  0.00    +0.000 A 
ATOM     22  C   UNL     1       9.496  10.622  19.935  0.00  0.00    +0.000 A 
ATOM     23  C   UNL     1       9.972  11.718  20.659  0.00  0.00    +0.000 A 
ATOM     24  C   UNL     1      10.077  12.963  20.040  0.00  0.00    +0.000 A 
ATOM     25 CL   UNL     1      10.662  14.311  20.933  0.00  0.00    +0.000 Cl
ATOM     26  C   UNL     1       9.708  13.120  18.706  0.00  0.00    +0.000 A 
ATOM     27  C   UNL     1       9.231  12.023  17.988  0.00  0.00    +0.000 A 
ENDBRANCH  20  21
ENDBRANCH  19  20
ENDBRANCH  18  19
ENDBRANCH  17  18
ENDBRANCH  13  17
TORSDOF 6
ENDMDL
MODEL 6
REMARK VINA RESULT:      -7.7      1.201      1.339
REMARK  Name = 
REMARK  7 active torsions:
REMARK  status: ('A' for Active; 'I' for Inactive)
REMARK    1  A    between atoms: C_1  and  C_2
REMARK    2  A    between atoms: C_2  and  N_3
REMARK    3  A    between atoms: N_15  and  C_16
REMARK    4  A    between atoms: C_16  and  C_17
REMARK    5  A    between atoms: C_17  and  C_18
REMARK    6  A    between atoms: C_18  and  O_19
REMARK    7  A    between atoms: O_19  and  C_20
REMARK                            x       y       z     vdW  Elec       q    Type
REMARK                         _______ _______ _______ _____ _____    ______ ____
ROOT
ATOM      1  N   UNL     1       3.200   3.212  18.972  0.00  0.00    +0.000 NA
ATOM      2  C   UNL     1       3.366   4.526  19.649  0.00  0.00    +0.000 C 
ATOM      3  C   UNL     1       4.818   5.076  19.580  0.00  0.00    +0.000 C 
ATOM      4  C   UNL     1       5.318   4.948  18.179  0.00  0.00    +0.000 A 
ATOM      5  C   UNL     1       4.730   4.112  17.261  0.00  0.00    +0.000 A 
ATOM      6  C   UNL     1       5.460   4.229  16.054  0.00  0.00    +0.000 A 
ATOM      7  C   UNL     1       5.304   3.623  14.787  0.00  0.00    +0.000 A 
ATOM      8  C   UNL     1       6.182   3.948  13.757  0.00  0.00    +0.000 A 
ATOM      9 CL   UNL     1       5.985   3.219  12.211  0.00  0.00    +0.000 Cl
ATOM     10  C   UNL     1       7.207   4.853  13.965  0.00  0.00    +0.000 A 
ATOM     11  C   UNL     1       7.383   5.457  15.214  0.00  0.00    +0.000 A 
ATOM     12  C   UNL     1       6.500   5.148  16.269  0.00  0.00    +0.000 A 
ATOM     13  N   UNL     1       6.398   5.577  17.593  0.00  0.00    +0.000 N 
ATOM     14  C   UNL     1       3.507   3.296  17.524  0.00  0.00    +0.000 C 
ENDROOT
BRANCH   1  16
ATOM     15  C   UNL     1       1.092   3.367  20.345  0.00  0.00    +0.000 C 
ATOM     16  C   UNL     1       1.829   2.709  19.178  0.00  0.00    +0.000 C 
ENDBRANCH   1  16
BRANCH  13  17
ATOM     17  C   UNL     1       7.230   6.528  18.328  0.00  0.00    +0.000 C 
BRANCH  17  18
ATOM     18  C   UNL     1       8.070   7.509  17.518  0.00  0.00    +0.000 C 
BRANCH  18  19
ATOM     19  C   UNL     1       7.655   8.959  17.698  0.00  0.00    +0.000 C 
BRANCH  19  20
ATOM     20  O   UNL     1       8.502   9.567  18.667  0.00  0.00    +0.000 OA
BRANCH  20  21
ATOM     21  C   UNL     1       9.171  10.690  18.268  0.00  0.00    +0.000 A 
ATOM     22  C   UNL     1      10.545  10.782  18.037  0.00  0.00    +0.000 A 
ATOM     23  C   UNL     1      11.111  11.995  17.636  0.00  0.00    +0.000 A 
ATOM     24  C   UNL     1      10.299  13.114  17.463  0.00  0.00    +0.000 A 
ATOM     25 CL   UNL     1      10.997  14.606  16.970  0.00  0.00    +0.000 Cl
ATOM     26  C   UNL     1       8.926  13.030  17.689  0.00  0.00    +0.000 A 
ATOM     27  C   UNL     1       8.366  11.817  18.092  0.00  0.00    +0.000 A 
ENDBRANCH  20  21
ENDBRANCH  19  20
ENDBRANCH  18  19
ENDBRANCH  17  18
ENDBRANCH  13  17
TORSDOF 6
ENDMDL
MODEL 7
REMARK VINA RESULT:      -7.7      5.716      7.862
REMARK  Name = 
REMARK  7 active torsions:
REMARK  status: ('A' for Active; 'I' for Inactive)
REMARK    1  A    between atoms: C_1  and  C_2
REMARK    2  A    between atoms: C_2  and  N_3
REMARK    3  A    between atoms: N_15  and  C_16
REMARK    4  A    between atoms: C_16  and  C_17
REMARK    5  A    between atoms: C_17  and  C_18
REMARK    6  A    between atoms: C_18  and  O_19
REMARK    7  A    between atoms: O_19  and  C_20
REMARK                            x       y       z     vdW  Elec       q    Type
REMARK                         _______ _______ _______ _____ _____    ______ ____
ROOT
ATOM      1  N   UNL     1       5.251   4.565  15.339  0.00  0.00    +0.000 NA
ATOM      2  C   UNL     1       5.749   5.960  15.466  0.00  0.00    +0.000 C 
ATOM      3  C   UNL     1       4.674   6.953  15.994  0.00  0.00    +0.000 C 
ATOM      4  C   UNL     1       3.996   6.346  17.178  0.00  0.00    +0.000 A 
ATOM      5  C   UNL     1       4.051   4.999  17.448  0.00  0.00    +0.000 A 
ATOM      6  C   UNL     1       3.295   4.773  18.624  0.00  0.00    +0.000 A 
ATOM      7  C   UNL     1       3.017   3.602  19.363  0.00  0.00    +0.000 A 
ATOM      8  C   UNL     1       2.240   3.685  20.516  0.00  0.00    +0.000 A 
ATOM      9 CL   UNL     1       1.911   2.260  21.422  0.00  0.00    +0.000 Cl
ATOM     10  C   UNL     1       1.735   4.900  20.938  0.00  0.00    +0.000 A 
ATOM     11  C   UNL     1       1.993   6.070  20.215  0.00  0.00    +0.000 A 
ATOM     12  C   UNL     1       2.784   6.010  19.049  0.00  0.00    +0.000 A 
ATOM     13  N   UNL     1       3.225   6.970  18.138  0.00  0.00    +0.000 N 
ATOM     14  C   UNL     1       4.830   4.009  16.648  0.00  0.00    +0.000 C 
ENDROOT
BRANCH   1  16
ATOM     15  C   UNL     1       6.254   3.687  13.201  0.00  0.00    +0.000 C 
ATOM     16  C   UNL     1       6.289   3.713  14.729  0.00  0.00    +0.000 C 
ENDBRANCH   1  16
BRANCH  13  17
ATOM     17  C   UNL     1       2.978   8.410  18.113  0.00  0.00    +0.000 C 
BRANCH  17  18
ATOM     18  C   UNL     1       1.584   8.884  17.718  0.00  0.00    +0.000 C 
BRANCH  18  19
ATOM     19  C   UNL     1       1.040   9.988  18.608  0.00  0.00    +0.000 C 
BRANCH  19  20
ATOM     20  O   UNL     1       0.242   9.406  19.633  0.00  0.00    +0.000 OA
BRANCH  20  21
ATOM     21  C   UNL     1      -0.216  10.257  20.600  0.00  0.00    +0.000 A 
ATOM     22  C   UNL     1      -0.338   9.958  21.959  0.00  0.00    +0.000 A 
ATOM     23  C   UNL     1      -0.828  10.916  22.849  0.00  0.00    +0.000 A 
ATOM     24  C   UNL     1      -1.191  12.176  22.378  0.00  0.00    +0.000 A 
ATOM     25 CL   UNL     1      -1.795  13.355  23.475  0.00  0.00    +0.000 Cl
ATOM     26  C   UNL     1      -1.072  12.484  21.024  0.00  0.00    +0.000 A 
ATOM     27  C   UNL     1      -0.585  11.522  20.138  0.00  0.00    +0.000 A 
ENDBRANCH  20  21
ENDBRANCH  19  20
ENDBRANCH  18  19
ENDBRANCH  17  18
ENDBRANCH  13  17
TORSDOF 6
ENDMDL
MODEL 8
REMARK VINA RESULT:      -7.6      1.979      4.343
REMARK  Name = 
REMARK  7 active torsions:
REMARK  status: ('A' for Active; 'I' for Inactive)
REMARK    1  A    between atoms: C_1  and  C_2
REMARK    2  A    between atoms: C_2  and  N_3
REMARK    3  A    between atoms: N_15  and  C_16
REMARK    4  A    between atoms: C_16  and  C_17
REMARK    5  A    between atoms: C_17  and  C_18
REMARK    6  A    between atoms: C_18  and  O_19
REMARK    7  A    between atoms: O_19  and  C_20
REMARK                            x       y       z     vdW  Elec       q    Type
REMARK                         _______ _______ _______ _____ _____    ______ ____
ROOT
ATOM      1  N   UNL     1       5.563   4.011  13.241  0.00  0.00    +0.000 NA
ATOM      2  C   UNL     1       7.002   4.237  13.537  0.00  0.00    +0.000 C 
ATOM      3  C   UNL     1       7.248   5.348  14.597  0.00  0.00    +0.000 C 
ATOM      4  C   UNL     1       6.327   5.128  15.751  0.00  0.00    +0.000 A 
ATOM      5  C   UNL     1       5.207   4.336  15.659  0.00  0.00    +0.000 A 
ATOM      6  C   UNL     1       4.567   4.361  16.921  0.00  0.00    +0.000 A 
ATOM      7  C   UNL     1       3.400   3.731  17.406  0.00  0.00    +0.000 A 
ATOM      8  C   UNL     1       3.010   3.929  18.729  0.00  0.00    +0.000 A 
ATOM      9 CL   UNL     1       1.595   3.152  19.323  0.00  0.00    +0.000 Cl
ATOM     10  C   UNL     1       3.752   4.741  19.566  0.00  0.00    +0.000 A 
ATOM     11  C   UNL     1       4.907   5.380  19.102  0.00  0.00    +0.000 A 
ATOM     12  C   UNL     1       5.324   5.186  17.769  0.00  0.00    +0.000 A 
ATOM     13  N   UNL     1       6.405   5.655  17.024  0.00  0.00    +0.000 N 
ATOM     14  C   UNL     1       4.817   3.564  14.442  0.00  0.00    +0.000 C 
ENDROOT
BRANCH   1  16
ATOM     15  C   UNL     1       4.186   3.243  11.275  0.00  0.00    +0.000 C 
ATOM     16  C   UNL     1       5.420   3.028  12.151  0.00  0.00    +0.000 C 
ENDBRANCH   1  16
BRANCH  13  17
ATOM     17  C   UNL     1       7.493   6.547  17.424  0.00  0.00    +0.000 C 
BRANCH  17  18
ATOM     18  C   UNL     1       7.140   7.995  17.745  0.00  0.00    +0.000 C 
BRANCH  18  19
ATOM     19  C   UNL     1       8.324   8.943  17.660  0.00  0.00    +0.000 C 
BRANCH  19  20
ATOM     20  O   UNL     1       8.701   9.334  18.976  0.00  0.00    +0.000 OA
BRANCH  20  21
ATOM     21  C   UNL     1       9.445  10.475  19.079  0.00  0.00    +0.000 A 
ATOM     22  C   UNL     1       9.972  11.205  18.010  0.00  0.00    +0.000 A 
ATOM     23  C   UNL     1      10.725  12.357  18.249  0.00  0.00    +0.000 A 
ATOM     24  C   UNL     1      10.947  12.780  19.558  0.00  0.00    +0.000 A 
ATOM     25 CL   UNL     1      11.875  14.198  19.850  0.00  0.00    +0.000 Cl
ATOM     26  C   UNL     1      10.424  12.059  20.630  0.00  0.00    +0.000 A 
ATOM     27  C   UNL     1       9.675  10.907  20.386  0.00  0.00    +0.000 A 
ENDBRANCH  20  21
ENDBRANCH  19  20
ENDBRANCH  18  19
ENDBRANCH  17  18
ENDBRANCH  13  17
TORSDOF 6
ENDMDL
MODEL 9
REMARK VINA RESULT:      -7.4      5.786      7.677
REMARK  Name = 
REMARK  7 active torsions:
REMARK  status: ('A' for Active; 'I' for Inactive)
REMARK    1  A    between atoms: C_1  and  C_2
REMARK    2  A    between atoms: C_2  and  N_3
REMARK    3  A    between atoms: N_15  and  C_16
REMARK    4  A    between atoms: C_16  and  C_17
REMARK    5  A    between atoms: C_17  and  C_18
REMARK    6  A    between atoms: C_18  and  O_19
REMARK    7  A    between atoms: O_19  and  C_20
REMARK                            x       y       z     vdW  Elec       q    Type
REMARK                         _______ _______ _______ _____ _____    ______ ____
ROOT
ATOM      1  N   UNL     1       2.857   3.692  20.636  0.00  0.00    +0.000 NA
ATOM      2  C   UNL     1       1.766   4.701  20.671  0.00  0.00    +0.000 C 
ATOM      3  C   UNL     1       2.225   6.122  20.236  0.00  0.00    +0.000 C 
ATOM      4  C   UNL     1       3.027   6.008  18.981  0.00  0.00    +0.000 A 
ATOM      5  C   UNL     1       3.581   4.820  18.566  0.00  0.00    +0.000 A 
ATOM      6  C   UNL     1       4.276   5.076  17.361  0.00  0.00    +0.000 A 
ATOM      7  C   UNL     1       5.013   4.240  16.493  0.00  0.00    +0.000 A 
ATOM      8  C   UNL     1       5.586   4.776  15.343  0.00  0.00    +0.000 A 
ATOM      9 CL   UNL     1       6.474   3.755  14.281  0.00  0.00    +0.000 Cl
ATOM     10  C   UNL     1       5.446   6.119  15.048  0.00  0.00    +0.000 A 
ATOM     11  C   UNL     1       4.727   6.966  15.899  0.00  0.00    +0.000 A 
ATOM     12  C   UNL     1       4.131   6.441  17.064  0.00  0.00    +0.000 A 
ATOM     13  N   UNL     1       3.359   7.001  18.083  0.00  0.00    +0.000 N 
ATOM     14  C   UNL     1       3.400   3.514  19.267  0.00  0.00    +0.000 C 
ENDROOT
BRANCH   1  16
ATOM     15  C   UNL     1       1.171   2.532  22.106  0.00  0.00    +0.000 C 
ATOM     16  C   UNL     1       2.370   2.405  21.167  0.00  0.00    +0.000 C 
ENDBRANCH   1  16
BRANCH  13  17
ATOM     17  C   UNL     1       2.916   8.383  18.261  0.00  0.00    +0.000 C 
BRANCH  17  18
ATOM     18  C   UNL     1       1.500   8.735  17.816  0.00  0.00    +0.000 C 
BRANCH  18  19
ATOM     19  C   UNL     1       0.745   9.595  18.815  0.00  0.00    +0.000 C 
BRANCH  19  20
ATOM     20  O   UNL     1       0.224  10.737  18.144  0.00  0.00    +0.000 OA
BRANCH  20  21
ATOM     21  C   UNL     1      -1.136  10.876  18.152  0.00  0.00    +0.000 A 
ATOM     22  C   UNL     1      -1.859  11.778  18.935  0.00  0.00    +0.000 A 
ATOM     23  C   UNL     1      -3.253  11.819  18.855  0.00  0.00    +0.000 A 
ATOM     24  C   UNL     1      -3.922  10.958  17.987  0.00  0.00    +0.000 A 
ATOM     25 CL   UNL     1      -5.638  11.009  17.890  0.00  0.00    +0.000 Cl
ATOM     26  C   UNL     1      -3.208  10.056  17.200  0.00  0.00    +0.000 A 
ATOM     27  C   UNL     1      -1.816  10.018  17.286  0.00  0.00    +0.000 A 
ENDBRANCH  20  21
ENDBRANCH  19  20
ENDBRANCH  18  19
ENDBRANCH  17  18
ENDBRANCH  13  17
TORSDOF 6
ENDMDL
