MODEL 1
REMARK VINA RESULT:      -8.3      0.000      0.000
REMARK  Name = 
REMARK  5 active torsions:
REMARK  status: ('A' for Active; 'I' for Inactive)
REMARK    1  A    between atoms: C_5  and  C_6
REMARK    2  A    between atoms: C_6  and  C_7
REMARK    3  A    between atoms: C_6  and  C_12
REMARK    4  A    between atoms: C_19  and  C_20
REMARK    5  A    between atoms: C_21  and  C_22
REMARK                            x       y       z     vdW  Elec       q    Type
REMARK                         _______ _______ _______ _____ _____    ______ ____
ROOT
ATOM      1  C   UNL     1       4.032   5.349  18.776  0.00  0.00    +0.000 A 
ATOM      2  C   UNL     1       3.824   4.120  18.150  0.00  0.00    +0.000 A 
ATOM      3  C   UNL     1       4.604   3.744  17.047  0.00  0.00    +0.000 A 
ATOM      4  C   UNL     1       5.605   4.558  16.529  0.00  0.00    +0.000 A 
ATOM      5  N   UNL     1       6.344   4.097  15.509  0.00  0.00    +0.000 NA
ATOM      6  C   UNL     1       7.339   4.876  15.040  0.00  0.00    +0.000 A 
ATOM      7  C   UNL     1       7.626   6.135  15.529  0.00  0.00    +0.000 A 
ATOM      8  C   UNL     1       6.854   6.640  16.577  0.00  0.00    +0.000 A 
ATOM      9  C   UNL     1       5.824   5.821  17.117  0.00  0.00    +0.000 A 
ATOM     10  C   UNL     1       5.029   6.175  18.231  0.00  0.00    +0.000 A 
ENDROOT
BRANCH   8  11
ATOM     11  C   UNL     1       7.286   7.944  17.131  0.00  0.00    +0.000 C 
ATOM     12  C   UNL     1       8.219   8.166  18.075  0.00  0.00    +0.000 C 
BRANCH  12  13
ATOM     13  C   UNL     1       8.657   9.525  18.417  0.00  0.00    +0.000 A 
ATOM     14  C   UNL     1       9.301   9.809  19.631  0.00  0.00    +0.000 A 
ATOM     15  C   UNL     1       9.626  11.123  19.976  0.00  0.00    +0.000 A 
ATOM     16  C   UNL     1       9.328  12.168  19.103  0.00  0.00    +0.000 A 
ATOM     17  C   UNL     1       8.732  11.896  17.875  0.00  0.00    +0.000 A 
ATOM     18  C   UNL     1       8.405  10.579  17.527  0.00  0.00    +0.000 A 
ENDBRANCH  12  13
ENDBRANCH   8  11
BRANCH   1  19
ATOM     19  C   UNL     1       3.233   5.748  20.013  0.00  0.00    +0.000 C 
BRANCH  19  24
ATOM     20 CL   UNL     1      -0.148  10.722  19.187  0.00  0.00    +0.000 Cl
ATOM     21  C   UNL     1       0.810   9.314  19.433  0.00  0.00    +0.000 A 
ATOM     22  C   UNL     1       1.546   8.778  18.380  0.00  0.00    +0.000 A 
ATOM     23  C   UNL     1       2.316   7.626  18.578  0.00  0.00    +0.000 A 
ATOM     24  C   UNL     1       2.375   7.004  19.838  0.00  0.00    +0.000 A 
ATOM     25  C   UNL     1       1.639   7.592  20.889  0.00  0.00    +0.000 A 
ATOM     26  C   UNL     1       0.852   8.724  20.688  0.00  0.00    +0.000 A 
ENDBRANCH  19  24
BRANCH  19  27
ATOM     27  C   UNL     1       2.319   4.596  20.440  0.00  0.00    +0.000 A 
ATOM     28  C   UNL     1       1.104   4.209  19.752  0.00  0.00    +0.000 A 
ATOM     29  C   UNL     1       0.458   3.143  20.335  0.00  0.00    +0.000 A 
ATOM     30  S   UNL     1       1.250   2.616  21.747  0.00  0.00    +0.000 S 
ATOM     31  C   UNL     1       2.454   3.819  21.585  0.00  0.00    +0.000 A 
ENDBRANCH  19  27
ENDBRANCH   1  19
TORSDOF 5
ENDMDL
MODEL 2
REMARK VINA RESULT:      -8.2      0.148      1.232
REMARK  Name = 
REMARK  5 active torsions:
REMARK  status: ('A' for Active; 'I' for Inactive)
REMARK    1  A    between atoms: C_5  and  C_6
REMARK    2  A    between atoms: C_6  and  C_7
REMARK    3  A    between atoms: C_6  and  C_12
REMARK    4  A    between atoms: C_19  and  C_20
REMARK    5  A    between atoms: C_21  and  C_22
REMARK                            x       y       z     vdW  Elec       q    Type
REMARK                         _______ _______ _______ _____ _____    ______ ____
ROOT
ATOM      1  C   UNL     1       4.059   5.301  18.823  0.00  0.00    +0.000 A 
ATOM      2  C   UNL     1       3.888   4.070  18.191  0.00  0.00    +0.000 A 
ATOM      3  C   UNL     1       4.686   3.718  17.092  0.00  0.00    +0.000 A 
ATOM      4  C   UNL     1       5.669   4.560  16.585  0.00  0.00    +0.000 A 
ATOM      5  N   UNL     1       6.427   4.122  15.569  0.00  0.00    +0.000 NA
ATOM      6  C   UNL     1       7.405   4.928  15.110  0.00  0.00    +0.000 A 
ATOM      7  C   UNL     1       7.655   6.192  15.606  0.00  0.00    +0.000 A 
ATOM      8  C   UNL     1       6.862   6.673  16.649  0.00  0.00    +0.000 A 
ATOM      9  C   UNL     1       5.850   5.826  17.180  0.00  0.00    +0.000 A 
ATOM     10  C   UNL     1       5.038   6.154  18.289  0.00  0.00    +0.000 A 
ENDROOT
BRANCH   8  11
ATOM     11  C   UNL     1       7.257   7.986  17.211  0.00  0.00    +0.000 C 
ATOM     12  C   UNL     1       8.296   8.252  18.023  0.00  0.00    +0.000 C 
BRANCH  12  13
ATOM     13  C   UNL     1       8.659   9.631  18.377  0.00  0.00    +0.000 A 
ATOM     14  C   UNL     1       8.379  10.709  17.524  0.00  0.00    +0.000 A 
ATOM     15  C   UNL     1       8.816  11.999  17.838  0.00  0.00    +0.000 A 
ATOM     16  C   UNL     1       9.520  12.230  19.019  0.00  0.00    +0.000 A 
ATOM     17  C   UNL     1       9.763  11.177  19.897  0.00  0.00    +0.000 A 
ATOM     18  C   UNL     1       9.326   9.883  19.584  0.00  0.00    +0.000 A 
ENDBRANCH  12  13
ENDBRANCH   8  11
BRANCH   1  19
ATOM     19  C   UNL     1       3.240   5.674  20.056  0.00  0.00    +0.000 C 
BRANCH  19  24
ATOM     20 CL   UNL     1      -0.188  10.657  19.536  0.00  0.00    +0.000 Cl
ATOM     21  C   UNL     1       0.785   9.245  19.672  0.00  0.00    +0.000 A 
ATOM     22  C   UNL     1       0.803   8.522  20.861  0.00  0.00    +0.000 A 
ATOM     23  C   UNL     1       1.603   7.379  20.974  0.00  0.00    +0.000 A 
ATOM     24  C   UNL     1       2.382   6.932  19.892  0.00  0.00    +0.000 A 
ATOM     25  C   UNL     1       2.316   7.673  18.693  0.00  0.00    +0.000 A 
ATOM     26  C   UNL     1       1.539   8.826  18.585  0.00  0.00    +0.000 A 
ENDBRANCH  19  24
BRANCH  19  27
ATOM     27  C   UNL     1       2.324   4.513  20.447  0.00  0.00    +0.000 A 
ATOM     28  C   UNL     1       1.096   4.164  19.761  0.00  0.00    +0.000 A 
ATOM     29  C   UNL     1       0.450   3.079  20.308  0.00  0.00    +0.000 A 
ATOM     30  S   UNL     1       1.257   2.487  21.685  0.00  0.00    +0.000 S 
ATOM     31  C   UNL     1       2.468   3.687  21.556  0.00  0.00    +0.000 A 
ENDBRANCH  19  27
ENDBRANCH   1  19
TORSDOF 5
ENDMDL
MODEL 3
REMARK VINA RESULT:      -8.0      8.039     12.152
REMARK  Name = 
REMARK  5 active torsions:
REMARK  status: ('A' for Active; 'I' for Inactive)
REMARK    1  A    between atoms: C_5  and  C_6
REMARK    2  A    between atoms: C_6  and  C_7
REMARK    3  A    between atoms: C_6  and  C_12
REMARK    4  A    between atoms: C_19  and  C_20
REMARK    5  A    between atoms: C_21  and  C_22
REMARK                            x       y       z     vdW  Elec       q    Type
REMARK                         _______ _______ _______ _____ _____    ______ ____
ROOT
ATOM      1  C   UNL     1      -3.052  13.194  23.013  0.00  0.00    +0.000 A 
ATOM      2  C   UNL     1      -3.812  13.646  24.091  0.00  0.00    +0.000 A 
ATOM      3  C   UNL     1      -5.213  13.585  24.049  0.00  0.00    +0.000 A 
ATOM      4  C   UNL     1      -5.903  13.080  22.952  0.00  0.00    +0.000 A 
ATOM      5  N   UNL     1      -7.241  13.003  23.017  0.00  0.00    +0.000 NA
ATOM      6  C   UNL     1      -7.900  12.475  21.966  0.00  0.00    +0.000 A 
ATOM      7  C   UNL     1      -7.281  12.034  20.813  0.00  0.00    +0.000 A 
ATOM      8  C   UNL     1      -5.891  12.126  20.719  0.00  0.00    +0.000 A 
ATOM      9  C   UNL     1      -5.168  12.642  21.831  0.00  0.00    +0.000 A 
ATOM     10  C   UNL     1      -3.759  12.708  21.901  0.00  0.00    +0.000 A 
ENDROOT
BRANCH   8  11
ATOM     11  C   UNL     1      -5.282  11.531  19.507  0.00  0.00    +0.000 C 
ATOM     12  C   UNL     1      -4.446  12.121  18.634  0.00  0.00    +0.000 C 
BRANCH  12  13
ATOM     13  C   UNL     1      -3.795  11.360  17.560  0.00  0.00    +0.000 A 
ATOM     14  C   UNL     1      -4.321  11.325  16.259  0.00  0.00    +0.000 A 
ATOM     15  C   UNL     1      -3.739  10.520  15.276  0.00  0.00    +0.000 A 
ATOM     16  C   UNL     1      -2.611   9.757  15.576  0.00  0.00    +0.000 A 
ATOM     17  C   UNL     1      -2.051   9.820  16.849  0.00  0.00    +0.000 A 
ATOM     18  C   UNL     1      -2.634  10.626  17.836  0.00  0.00    +0.000 A 
ENDBRANCH  12  13
ENDBRANCH   8  11
BRANCH   1  19
ATOM     19  C   UNL     1      -1.526  13.199  23.069  0.00  0.00    +0.000 C 
BRANCH  19  24
ATOM     20 CL   UNL     1       1.017   8.066  21.060  0.00  0.00    +0.000 Cl
ATOM     21  C   UNL     1       0.303   9.527  21.622  0.00  0.00    +0.000 A 
ATOM     22  C   UNL     1      -0.469   9.526  22.781  0.00  0.00    +0.000 A 
ATOM     23  C   UNL     1      -1.058  10.712  23.231  0.00  0.00    +0.000 A 
ATOM     24  C   UNL     1      -0.867  11.922  22.539  0.00  0.00    +0.000 A 
ATOM     25  C   UNL     1      -0.055  11.891  21.386  0.00  0.00    +0.000 A 
ATOM     26  C   UNL     1       0.512  10.705  20.921  0.00  0.00    +0.000 A 
ENDBRANCH  19  24
BRANCH  19  27
ATOM     27  C   UNL     1      -0.977  14.388  22.277  0.00  0.00    +0.000 A 
ATOM     28  C   UNL     1       0.088  15.259  22.731  0.00  0.00    +0.000 A 
ATOM     29  C   UNL     1       0.399  16.259  21.838  0.00  0.00    +0.000 A 
ATOM     30  S   UNL     1      -0.609  16.221  20.467  0.00  0.00    +0.000 S 
ATOM     31  C   UNL     1      -1.468  14.872  21.070  0.00  0.00    +0.000 A 
ENDBRANCH  19  27
ENDBRANCH   1  19
TORSDOF 5
ENDMDL
MODEL 4
REMARK VINA RESULT:      -8.0      3.151      6.927
REMARK  Name = 
REMARK  5 active torsions:
REMARK  status: ('A' for Active; 'I' for Inactive)
REMARK    1  A    between atoms: C_5  and  C_6
REMARK    2  A    between atoms: C_6  and  C_7
REMARK    3  A    between atoms: C_6  and  C_12
REMARK    4  A    between atoms: C_19  and  C_20
REMARK    5  A    between atoms: C_21  and  C_22
REMARK                            x       y       z     vdW  Elec       q    Type
REMARK                         _______ _______ _______ _____ _____    ______ ____
ROOT
ATOM      1  C   UNL     1       4.387   4.797  17.312  0.00  0.00    +0.000 A 
ATOM      2  C   UNL     1       4.509   3.427  17.081  0.00  0.00    +0.000 A 
ATOM      3  C   UNL     1       3.820   2.506  17.884  0.00  0.00    +0.000 A 
ATOM      4  C   UNL     1       2.996   2.903  18.932  0.00  0.00    +0.000 A 
ATOM      5  N   UNL     1       2.327   1.960  19.614  0.00  0.00    +0.000 NA
ATOM      6  C   UNL     1       1.499   2.356  20.601  0.00  0.00    +0.000 A 
ATOM      7  C   UNL     1       1.319   3.673  20.973  0.00  0.00    +0.000 A 
ATOM      8  C   UNL     1       2.023   4.666  20.288  0.00  0.00    +0.000 A 
ATOM      9  C   UNL     1       2.872   4.279  19.215  0.00  0.00    +0.000 A 
ATOM     10  C   UNL     1       3.571   5.186  18.387  0.00  0.00    +0.000 A 
ENDROOT
BRANCH   8  11
ATOM     11  C   UNL     1       1.698   6.063  20.658  0.00  0.00    +0.000 C 
ATOM     12  C   UNL     1       1.903   7.174  19.927  0.00  0.00    +0.000 C 
BRANCH  12  13
ATOM     13  C   UNL     1       1.387   8.481  20.356  0.00  0.00    +0.000 A 
ATOM     14  C   UNL     1       1.086   8.749  21.700  0.00  0.00    +0.000 A 
ATOM     15  C   UNL     1       0.509   9.966  22.072  0.00  0.00    +0.000 A 
ATOM     16  C   UNL     1       0.245  10.938  21.109  0.00  0.00    +0.000 A 
ATOM     17  C   UNL     1       0.582  10.703  19.779  0.00  0.00    +0.000 A 
ATOM     18  C   UNL     1       1.160   9.483  19.403  0.00  0.00    +0.000 A 
ENDBRANCH  12  13
ENDBRANCH   8  11
BRANCH   1  19
ATOM     19  C   UNL     1       5.083   5.812  16.409  0.00  0.00    +0.000 C 
BRANCH  19  24
ATOM     20 CL   UNL     1       9.307   9.225  19.123  0.00  0.00    +0.000 Cl
ATOM     21  C   UNL     1       8.116   8.248  18.357  0.00  0.00    +0.000 A 
ATOM     22  C   UNL     1       7.207   8.821  17.471  0.00  0.00    +0.000 A 
ATOM     23  C   UNL     1       6.231   8.028  16.857  0.00  0.00    +0.000 A 
ATOM     24  C   UNL     1       6.163   6.645  17.105  0.00  0.00    +0.000 A 
ATOM     25  C   UNL     1       7.118   6.094  17.986  0.00  0.00    +0.000 A 
ATOM     26  C   UNL     1       8.075   6.886  18.618  0.00  0.00    +0.000 A 
ENDBRANCH  19  24
BRANCH  19  27
ATOM     27  C   UNL     1       5.718   5.101  15.213  0.00  0.00    +0.000 A 
ATOM     28  C   UNL     1       7.125   5.158  14.872  0.00  0.00    +0.000 A 
ATOM     29  C   UNL     1       7.448   4.434  13.747  0.00  0.00    +0.000 A 
ATOM     30  S   UNL     1       6.076   3.719  13.036  0.00  0.00    +0.000 S 
ATOM     31  C   UNL     1       5.047   4.384  14.229  0.00  0.00    +0.000 A 
ENDBRANCH  19  27
ENDBRANCH   1  19
TORSDOF 5
ENDMDL
MODEL 5
REMARK VINA RESULT:      -7.9      7.964     11.944
REMARK  Name = 
REMARK  5 active torsions:
REMARK  status: ('A' for Active; 'I' for Inactive)
REMARK    1  A    between atoms: C_5  and  C_6
REMARK    2  A    between atoms: C_6  and  C_7
REMARK    3  A    between atoms: C_6  and  C_12
REMARK    4  A    between atoms: C_19  and  C_20
REMARK    5  A    between atoms: C_21  and  C_22
REMARK                            x       y       z     vdW  Elec       q    Type
REMARK                         _______ _______ _______ _____ _____    ______ ____
ROOT
ATOM      1  C   UNL     1      -2.907  13.072  22.956  0.00  0.00    +0.000 A 
ATOM      2  C   UNL     1      -3.619  13.484  24.082  0.00  0.00    +0.000 A 
ATOM      3  C   UNL     1      -5.022  13.502  24.069  0.00  0.00    +0.000 A 
ATOM      4  C   UNL     1      -5.761  13.117  22.956  0.00  0.00    +0.000 A 
ATOM      5  N   UNL     1      -7.099  13.107  23.048  0.00  0.00    +0.000 NA
ATOM      6  C   UNL     1      -7.808  12.694  21.978  0.00  0.00    +0.000 A 
ATOM      7  C   UNL     1      -7.238  12.306  20.781  0.00  0.00    +0.000 A 
ATOM      8  C   UNL     1      -5.848  12.330  20.661  0.00  0.00    +0.000 A 
ATOM      9  C   UNL     1      -5.075  12.723  21.789  0.00  0.00    +0.000 A 
ATOM     10  C   UNL     1      -3.662  12.708  21.829  0.00  0.00    +0.000 A 
ENDROOT
BRANCH   8  11
ATOM     11  C   UNL     1      -5.297  11.793  19.395  0.00  0.00    +0.000 C 
ATOM     12  C   UNL     1      -4.031  11.880  18.948  0.00  0.00    +0.000 C 
BRANCH  12  13
ATOM     13  C   UNL     1      -3.591  11.164  17.744  0.00  0.00    +0.000 A 
ATOM     14  C   UNL     1      -2.425  10.384  17.734  0.00  0.00    +0.000 A 
ATOM     15  C   UNL     1      -1.975   9.787  16.554  0.00  0.00    +0.000 A 
ATOM     16  C   UNL     1      -2.697   9.946  15.372  0.00  0.00    +0.000 A 
ATOM     17  C   UNL     1      -3.881  10.678  15.377  0.00  0.00    +0.000 A 
ATOM     18  C   UNL     1      -4.333  11.277  16.560  0.00  0.00    +0.000 A 
ENDBRANCH  12  13
ENDBRANCH   8  11
BRANCH   1  19
ATOM     19  C   UNL     1      -1.383  12.991  22.974  0.00  0.00    +0.000 C 
BRANCH  19  24
ATOM     20 CL   UNL     1       0.928   7.779  20.890  0.00  0.00    +0.000 Cl
ATOM     21  C   UNL     1       0.268   9.250  21.490  0.00  0.00    +0.000 A 
ATOM     22  C   UNL     1       0.234  10.381  20.679  0.00  0.00    +0.000 A 
ATOM     23  C   UNL     1      -0.293  11.580  21.171  0.00  0.00    +0.000 A 
ATOM     24  C   UNL     1      -0.812  11.660  22.476  0.00  0.00    +0.000 A 
ATOM     25  C   UNL     1      -0.787  10.487  23.259  0.00  0.00    +0.000 A 
ATOM     26  C   UNL     1      -0.240   9.297  22.780  0.00  0.00    +0.000 A 
ENDBRANCH  19  24
BRANCH  19  27
ATOM     27  C   UNL     1      -0.788  14.118  22.128  0.00  0.00    +0.000 A 
ATOM     28  C   UNL     1      -1.498  14.827  21.082  0.00  0.00    +0.000 A 
ATOM     29  C   UNL     1      -0.743  15.798  20.465  0.00  0.00    +0.000 A 
ATOM     30  S   UNL     1       0.846  15.848  21.074  0.00  0.00    +0.000 S 
ATOM     31  C   UNL     1       0.528  14.566  22.159  0.00  0.00    +0.000 A 
ENDBRANCH  19  27
ENDBRANCH   1  19
TORSDOF 5
ENDMDL
MODEL 6
REMARK VINA RESULT:      -7.8      6.409     10.999
REMARK  Name = 
REMARK  5 active torsions:
REMARK  status: ('A' for Active; 'I' for Inactive)
REMARK    1  A    between atoms: C_5  and  C_6
REMARK    2  A    between atoms: C_6  and  C_7
REMARK    3  A    between atoms: C_6  and  C_12
REMARK    4  A    between atoms: C_19  and  C_20
REMARK    5  A    between atoms: C_21  and  C_22
REMARK                            x       y       z     vdW  Elec       q    Type
REMARK                         _______ _______ _______ _____ _____    ______ ____
ROOT
ATOM      1  C   UNL     1      -1.337  10.968  19.205  0.00  0.00    +0.000 A 
ATOM      2  C   UNL     1      -1.569  10.257  18.029  0.00  0.00    +0.000 A 
ATOM      3  C   UNL     1      -2.796  10.374  17.358  0.00  0.00    +0.000 A 
ATOM      4  C   UNL     1      -3.823  11.188  17.821  0.00  0.00    +0.000 A 
ATOM      5  N   UNL     1      -4.942  11.287  17.088  0.00  0.00    +0.000 NA
ATOM      6  C   UNL     1      -5.917  12.111  17.523  0.00  0.00    +0.000 A 
ATOM      7  C   UNL     1      -5.844  12.836  18.696  0.00  0.00    +0.000 A 
ATOM      8  C   UNL     1      -4.696  12.728  19.482  0.00  0.00    +0.000 A 
ATOM      9  C   UNL     1      -3.635  11.899  19.025  0.00  0.00    +0.000 A 
ATOM     10  C   UNL     1      -2.389  11.769  19.678  0.00  0.00    +0.000 A 
ENDROOT
BRANCH   8  11
ATOM     11  C   UNL     1      -4.634  13.620  20.664  0.00  0.00    +0.000 C 
ATOM     12  C   UNL     1      -4.797  13.282  21.956  0.00  0.00    +0.000 C 
BRANCH  12  13
ATOM     13  C   UNL     1      -4.553  14.245  23.037  0.00  0.00    +0.000 A 
ATOM     14  C   UNL     1      -5.425  15.319  23.279  0.00  0.00    +0.000 A 
ATOM     15  C   UNL     1      -5.125  16.276  24.252  0.00  0.00    +0.000 A 
ATOM     16  C   UNL     1      -3.961  16.160  25.010  0.00  0.00    +0.000 A 
ATOM     17  C   UNL     1      -3.112  15.075  24.813  0.00  0.00    +0.000 A 
ATOM     18  C   UNL     1      -3.410  14.115  23.838  0.00  0.00    +0.000 A 
ENDBRANCH  12  13
ENDBRANCH   8  11
BRANCH   1  19
ATOM     19  C   UNL     1       0.014  10.897  19.914  0.00  0.00    +0.000 C 
BRANCH  19  24
ATOM     20 CL   UNL     1       3.548   6.311  18.091  0.00  0.00    +0.000 Cl
ATOM     21  C   UNL     1       2.543   7.604  18.617  0.00  0.00    +0.000 A 
ATOM     22  C   UNL     1       2.246   8.653  17.752  0.00  0.00    +0.000 A 
ATOM     23  C   UNL     1       1.437   9.711  18.184  0.00  0.00    +0.000 A 
ATOM     24  C   UNL     1       0.897   9.723  19.482  0.00  0.00    +0.000 A 
ATOM     25  C   UNL     1       1.195   8.629  20.322  0.00  0.00    +0.000 A 
ATOM     26  C   UNL     1       2.021   7.587  19.902  0.00  0.00    +0.000 A 
ENDBRANCH  19  24
BRANCH  19  27
ATOM     27  C   UNL     1       0.792  12.195  19.688  0.00  0.00    +0.000 A 
ATOM     28  C   UNL     1       0.610  13.079  18.555  0.00  0.00    +0.000 A 
ATOM     29  C   UNL     1       1.432  14.183  18.579  0.00  0.00    +0.000 A 
ATOM     30  S   UNL     1       2.482  14.161  19.920  0.00  0.00    +0.000 S 
ATOM     31  C   UNL     1       1.842  12.672  20.464  0.00  0.00    +0.000 A 
ENDBRANCH  19  27
ENDBRANCH   1  19
TORSDOF 5
ENDMDL
MODEL 7
REMARK VINA RESULT:      -7.7      6.321     10.870
REMARK  Name = 
REMARK  5 active torsions:
REMARK  status: ('A' for Active; 'I' for Inactive)
REMARK    1  A    between atoms: C_5  and  C_6
REMARK    2  A    between atoms: C_6  and  C_7
REMARK    3  A    between atoms: C_6  and  C_12
REMARK    4  A    between atoms: C_19  and  C_20
REMARK    5  A    between atoms: C_21  and  C_22
REMARK                            x       y       z     vdW  Elec       q    Type
REMARK                         _______ _______ _______ _____ _____    ______ ____
ROOT
ATOM      1  C   UNL     1      -1.279  10.910  19.163  0.00  0.00    +0.000 A 
ATOM      2  C   UNL     1      -1.524  10.190  17.995  0.00  0.00    +0.000 A 
ATOM      3  C   UNL     1      -2.756  10.307  17.334  0.00  0.00    +0.000 A 
ATOM      4  C   UNL     1      -3.776  11.129  17.799  0.00  0.00    +0.000 A 
ATOM      5  N   UNL     1      -4.901  11.228  17.075  0.00  0.00    +0.000 NA
ATOM      6  C   UNL     1      -5.869  12.059  17.512  0.00  0.00    +0.000 A 
ATOM      7  C   UNL     1      -5.783  12.794  18.677  0.00  0.00    +0.000 A 
ATOM      8  C   UNL     1      -4.628  12.688  19.454  0.00  0.00    +0.000 A 
ATOM      9  C   UNL     1      -3.575  11.850  18.995  0.00  0.00    +0.000 A 
ATOM     10  C   UNL     1      -2.323  11.720  19.638  0.00  0.00    +0.000 A 
ENDROOT
BRANCH   8  11
ATOM     11  C   UNL     1      -4.551  13.589  20.628  0.00  0.00    +0.000 C 
ATOM     12  C   UNL     1      -4.253  13.259  21.898  0.00  0.00    +0.000 C 
BRANCH  12  13
ATOM     13  C   UNL     1      -4.061  14.284  22.932  0.00  0.00    +0.000 A 
ATOM     14  C   UNL     1      -3.296  14.035  24.083  0.00  0.00    +0.000 A 
ATOM     15  C   UNL     1      -3.203  14.992  25.097  0.00  0.00    +0.000 A 
ATOM     16  C   UNL     1      -3.856  16.216  24.965  0.00  0.00    +0.000 A 
ATOM     17  C   UNL     1      -4.578  16.494  23.808  0.00  0.00    +0.000 A 
ATOM     18  C   UNL     1      -4.674  15.536  22.790  0.00  0.00    +0.000 A 
ENDBRANCH  12  13
ENDBRANCH   8  11
BRANCH   1  19
ATOM     19  C   UNL     1       0.077  10.840  19.861  0.00  0.00    +0.000 C 
BRANCH  19  24
ATOM     20 CL   UNL     1       3.585   6.197  18.131  0.00  0.00    +0.000 Cl
ATOM     21  C   UNL     1       2.595   7.519  18.613  0.00  0.00    +0.000 A 
ATOM     22  C   UNL     1       2.026   7.539  19.882  0.00  0.00    +0.000 A 
ATOM     23  C   UNL     1       1.211   8.609  20.269  0.00  0.00    +0.000 A 
ATOM     24  C   UNL     1       0.971   9.686  19.397  0.00  0.00    +0.000 A 
ATOM     25  C   UNL     1       1.589   9.647  18.129  0.00  0.00    +0.000 A 
ATOM     26  C   UNL     1       2.380   8.570  17.732  0.00  0.00    +0.000 A 
ENDBRANCH  19  24
BRANCH  19  27
ATOM     27  C   UNL     1       0.839  12.151  19.658  0.00  0.00    +0.000 A 
ATOM     28  C   UNL     1       0.756  12.978  18.471  0.00  0.00    +0.000 A 
ATOM     29  C   UNL     1       1.540  14.108  18.532  0.00  0.00    +0.000 A 
ATOM     30  S   UNL     1       2.439  14.180  19.976  0.00  0.00    +0.000 S 
ATOM     31  C   UNL     1       1.786  12.696  20.519  0.00  0.00    +0.000 A 
ENDBRANCH  19  27
ENDBRANCH   1  19
TORSDOF 5
ENDMDL
MODEL 8
REMARK VINA RESULT:      -7.6      8.103     12.196
REMARK  Name = 
REMARK  5 active torsions:
REMARK  status: ('A' for Active; 'I' for Inactive)
REMARK    1  A    between atoms: C_5  and  C_6
REMARK    2  A    between atoms: C_6  and  C_7
REMARK    3  A    between atoms: C_6  and  C_12
REMARK    4  A    between atoms: C_19  and  C_20
REMARK    5  A    between atoms: C_21  and  C_22
REMARK                            x       y       z     vdW  Elec       q    Type
REMARK                         _______ _______ _______ _____ _____    ______ ____
ROOT
ATOM      1  C   UNL     1      -3.048  13.338  22.949  0.00  0.00    +0.000 A 
ATOM      2  C   UNL     1      -3.774  13.767  24.059  0.00  0.00    +0.000 A 
ATOM      3  C   UNL     1      -5.174  13.671  24.072  0.00  0.00    +0.000 A 
ATOM      4  C   UNL     1      -5.895  13.155  23.002  0.00  0.00    +0.000 A 
ATOM      5  N   UNL     1      -7.227  13.045  23.120  0.00  0.00    +0.000 NA
ATOM      6  C   UNL     1      -7.915  12.505  22.094  0.00  0.00    +0.000 A 
ATOM      7  C   UNL     1      -7.333  12.085  20.915  0.00  0.00    +0.000 A 
ATOM      8  C   UNL     1      -5.951  12.211  20.766  0.00  0.00    +0.000 A 
ATOM      9  C   UNL     1      -5.196  12.739  21.850  0.00  0.00    +0.000 A 
ATOM     10  C   UNL     1      -3.787  12.840  21.864  0.00  0.00    +0.000 A 
ENDROOT
BRANCH   8  11
ATOM     11  C   UNL     1      -5.377  11.636  19.527  0.00  0.00    +0.000 C 
ATOM     12  C   UNL     1      -4.246  12.005  18.898  0.00  0.00    +0.000 C 
BRANCH  12  13
ATOM     13  C   UNL     1      -3.715  11.240  17.762  0.00  0.00    +0.000 A 
ATOM     14  C   UNL     1      -2.561  10.451  17.879  0.00  0.00    +0.000 A 
ATOM     15  C   UNL     1      -2.021   9.807  16.763  0.00  0.00    +0.000 A 
ATOM     16  C   UNL     1      -2.640   9.927  15.520  0.00  0.00    +0.000 A 
ATOM     17  C   UNL     1      -3.812  10.668  15.399  0.00  0.00    +0.000 A 
ATOM     18  C   UNL     1      -4.355  11.315  16.517  0.00  0.00    +0.000 A 
ENDBRANCH  12  13
ENDBRANCH   8  11
BRANCH   1  19
ATOM     19  C   UNL     1      -1.522  13.381  22.943  0.00  0.00    +0.000 C 
BRANCH  19  24
ATOM     20 CL   UNL     1       1.127   9.224  19.399  0.00  0.00    +0.000 Cl
ATOM     21  C   UNL     1       0.373  10.393  20.410  0.00  0.00    +0.000 A 
ATOM     22  C   UNL     1       0.109  11.670  19.924  0.00  0.00    +0.000 A 
ATOM     23  C   UNL     1      -0.494  12.625  20.751  0.00  0.00    +0.000 A 
ATOM     24  C   UNL     1      -0.860  12.308  22.072  0.00  0.00    +0.000 A 
ATOM     25  C   UNL     1      -0.604  10.996  22.521  0.00  0.00    +0.000 A 
ATOM     26  C   UNL     1       0.019  10.051  21.708  0.00  0.00    +0.000 A 
ENDBRANCH  19  24
BRANCH  19  27
ATOM     27  C   UNL     1      -1.038  14.753  22.469  0.00  0.00    +0.000 A 
ATOM     28  C   UNL     1       0.274  15.305  22.744  0.00  0.00    +0.000 A 
ATOM     29  C   UNL     1       0.466  16.559  22.210  0.00  0.00    +0.000 A 
ATOM     30  S   UNL     1      -0.929  17.133  21.422  0.00  0.00    +0.000 S 
ATOM     31  C   UNL     1      -1.795  15.707  21.800  0.00  0.00    +0.000 A 
ENDBRANCH  19  27
ENDBRANCH   1  19
TORSDOF 5
ENDMDL
MODEL 9
REMARK VINA RESULT:      -7.5      6.092     11.168
REMARK  Name = 
REMARK  5 active torsions:
REMARK  status: ('A' for Active; 'I' for Inactive)
REMARK    1  A    between atoms: C_5  and  C_6
REMARK    2  A    between atoms: C_6  and  C_7
REMARK    3  A    between atoms: C_6  and  C_12
REMARK    4  A    between atoms: C_19  and  C_20
REMARK    5  A    between atoms: C_21  and  C_22
REMARK                            x       y       z     vdW  Elec       q    Type
REMARK                         _______ _______ _______ _____ _____    ______ ____
ROOT
ATOM      1  C   UNL     1       0.213  12.254  19.751  0.00  0.00    +0.000 A 
ATOM      2  C   UNL     1       1.373  12.895  20.184  0.00  0.00    +0.000 A 
ATOM      3  C   UNL     1       1.330  13.789  21.264  0.00  0.00    +0.000 A 
ATOM      4  C   UNL     1       0.153  14.077  21.946  0.00  0.00    +0.000 A 
ATOM      5  N   UNL     1       0.210  14.899  23.005  0.00  0.00    +0.000 NA
ATOM      6  C   UNL     1      -0.929  15.141  23.686  0.00  0.00    +0.000 A 
ATOM      7  C   UNL     1      -2.157  14.615  23.340  0.00  0.00    +0.000 A 
ATOM      8  C   UNL     1      -2.239  13.775  22.228  0.00  0.00    +0.000 A 
ATOM      9  C   UNL     1      -1.046  13.470  21.517  0.00  0.00    +0.000 A 
ATOM     10  C   UNL     1      -0.974  12.569  20.431  0.00  0.00    +0.000 A 
ENDROOT
BRANCH   8  11
ATOM     11  C   UNL     1      -3.561  13.153  21.981  0.00  0.00    +0.000 C 
ATOM     12  C   UNL     1      -4.235  13.091  20.818  0.00  0.00    +0.000 C 
BRANCH  12  13
ATOM     13  C   UNL     1      -5.468  12.305  20.686  0.00  0.00    +0.000 A 
ATOM     14  C   UNL     1      -5.733  11.534  19.544  0.00  0.00    +0.000 A 
ATOM     15  C   UNL     1      -6.953  10.869  19.399  0.00  0.00    +0.000 A 
ATOM     16  C   UNL     1      -7.916  10.950  20.404  0.00  0.00    +0.000 A 
ATOM     17  C   UNL     1      -7.648  11.672  21.563  0.00  0.00    +0.000 A 
ATOM     18  C   UNL     1      -6.425  12.340  21.710  0.00  0.00    +0.000 A 
ENDBRANCH  12  13
ENDBRANCH   8  11
BRANCH   1  19
ATOM     19  C   UNL     1       0.255  11.234  18.617  0.00  0.00    +0.000 C 
BRANCH  19  24
ATOM     20 CL   UNL     1       2.866   5.925  19.977  0.00  0.00    +0.000 Cl
ATOM     21  C   UNL     1       2.120   7.429  19.601  0.00  0.00    +0.000 A 
ATOM     22  C   UNL     1       2.216   7.954  18.316  0.00  0.00    +0.000 A 
ATOM     23  C   UNL     1       1.618   9.182  18.014  0.00  0.00    +0.000 A 
ATOM     24  C   UNL     1       0.898   9.894  18.989  0.00  0.00    +0.000 A 
ATOM     25  C   UNL     1       0.796   9.318  20.273  0.00  0.00    +0.000 A 
ATOM     26  C   UNL     1       1.412   8.107  20.583  0.00  0.00    +0.000 A 
ENDBRANCH  19  24
BRANCH  19  27
ATOM     27  C   UNL     1      -1.161  10.963  18.104  0.00  0.00    +0.000 A 
ATOM     28  C   UNL     1      -1.874   9.712  18.272  0.00  0.00    +0.000 A 
ATOM     29  C   UNL     1      -3.134   9.718  17.719  0.00  0.00    +0.000 A 
ATOM     30  S   UNL     1      -3.475  11.190  16.934  0.00  0.00    +0.000 S 
ATOM     31  C   UNL     1      -1.934  11.818  17.327  0.00  0.00    +0.000 A 
ENDBRANCH  19  27
ENDBRANCH   1  19
TORSDOF 5
ENDMDL
