MODEL 1
REMARK VINA RESULT:      -8.5      0.000      0.000
REMARK  Name = 
REMARK  9 active torsions:
REMARK  status: ('A' for Active; 'I' for Inactive)
REMARK    1  A    between atoms: C_1  and  O_2
REMARK    2  A    between atoms: O_2  and  C_3
REMARK    3  A    between atoms: C_6  and  C_7
REMARK    4  A    between atoms: C_9  and  C_10
REMARK    5  A    between atoms: C_11  and  C_12
REMARK    6  A    between atoms: C_14  and  C_15
REMARK    7  A    between atoms: C_19  and  C_20
REMARK    8  A    between atoms: C_23  and  C_24
REMARK    9  A    between atoms: C_31  and  C_32
REMARK                            x       y       z     vdW  Elec       q    Type
REMARK                         _______ _______ _______ _____ _____    ______ ____
ROOT
ATOM      1  C   UNL     1       0.740  10.711  19.265  0.00  0.00    +0.000 A 
ATOM      2  C   UNL     1       1.452  11.763  19.880  0.00  0.00    +0.000 A 
ATOM      3  C   UNL     1       0.981  13.075  19.870  0.00  0.00    +0.000 A 
ATOM      4  C   UNL     1      -0.191  13.371  19.171  0.00  0.00    +0.000 A 
ATOM      5  C   UNL     1      -0.900  12.355  18.531  0.00  0.00    +0.000 A 
ATOM      6  C   UNL     1      -0.464  11.021  18.583  0.00  0.00    +0.000 A 
ATOM      7  C   UNL     1      -1.318   9.994  17.885  0.00  0.00    +0.000 C 
ENDROOT
BRANCH   1  12
ATOM      8  C   UNL     1       2.164   7.391  18.762  0.00  0.00    +0.000 A 
ATOM      9  N   UNL     1       1.929   7.273  20.049  0.00  0.00    +0.000 NA
ATOM     10  C   UNL     1       1.403   8.475  20.456  0.00  0.00    +0.000 A 
ATOM     11  C   UNL     1       1.067   8.649  21.888  0.00  0.00    +0.000 C 
ATOM     12  C   UNL     1       1.272   9.348  19.382  0.00  0.00    +0.000 A 
ATOM     13  N   UNL     1       1.841   8.651  18.339  0.00  0.00    +0.000 N 
ATOM     14  H   UNL     1       1.989   8.998  17.405  0.00  0.00    +0.000 HD
BRANCH   8  18
ATOM     15  C   UNL     1       3.662   4.042  19.502  0.00  0.00    +0.000 C 
ATOM     16  C   UNL     1       4.436   5.365  19.459  0.00  0.00    +0.000 C 
ATOM     17  C   UNL     1       4.223   6.109  18.140  0.00  0.00    +0.000 C 
ATOM     18  C   UNL     1       2.740   6.353  17.839  0.00  0.00    +0.000 C 
ATOM     19  C   UNL     1       1.946   5.041  17.891  0.00  0.00    +0.000 C 
ATOM     20  C   UNL     1       2.174   4.243  19.180  0.00  0.00    +0.000 C 
BRANCH  15  22
ATOM     21  C   UNL     1       3.571   1.826  18.620  0.00  0.00    +0.000 C 
ATOM     22  O   UNL     1       4.181   3.109  18.544  0.00  0.00    +0.000 OA
ENDBRANCH  15  22
ENDBRANCH   8  18
ENDBRANCH   1  12
BRANCH   3  23
ATOM     23  C   UNL     1       1.719  14.205  20.500  0.00  0.00    +0.000 C 
ATOM     24  O   UNL     1       1.899  14.183  21.717  0.00  0.00    +0.000 OA
ATOM     25  N   UNL     1       2.184  15.238  19.722  0.00  0.00    +0.000 N 
ATOM     26  C   UNL     1       3.060  16.312  20.165  0.00  0.00    +0.000 C 
ATOM     27  C   UNL     1       3.577  16.418  18.716  0.00  0.00    +0.000 C 
ATOM     28  C   UNL     1       2.526  15.362  18.317  0.00  0.00    +0.000 C 
BRANCH  27  29
ATOM     29  C   UNL     1       5.125  16.121  18.453  0.00  0.00    +0.000 A 
ATOM     30  C   UNL     1       5.572  14.904  17.897  0.00  0.00    +0.000 A 
ATOM     31  C   UNL     1       6.931  14.592  17.789  0.00  0.00    +0.000 A 
ATOM     32  C   UNL     1       7.893  15.504  18.224  0.00  0.00    +0.000 A 
ATOM     33  C   UNL     1       7.487  16.745  18.714  0.00  0.00    +0.000 A 
ATOM     34  C   UNL     1       6.123  17.045  18.820  0.00  0.00    +0.000 A 
BRANCH  32  35
ATOM     35  C   UNL     1       9.281  15.150  18.208  0.00  0.00    +0.000 C 
ATOM     36  N   UNL     1      10.412  14.886  18.188  0.00  0.00    +0.000 NA
ENDBRANCH  32  35
ENDBRANCH  27  29
ENDBRANCH   3  23
TORSDOF 6
ENDMDL
MODEL 2
REMARK VINA RESULT:      -8.4      4.677      7.841
REMARK  Name = 
REMARK  9 active torsions:
REMARK  status: ('A' for Active; 'I' for Inactive)
REMARK    1  A    between atoms: C_1  and  O_2
REMARK    2  A    between atoms: O_2  and  C_3
REMARK    3  A    between atoms: C_6  and  C_7
REMARK    4  A    between atoms: C_9  and  C_10
REMARK    5  A    between atoms: C_11  and  C_12
REMARK    6  A    between atoms: C_14  and  C_15
REMARK    7  A    between atoms: C_19  and  C_20
REMARK    8  A    between atoms: C_23  and  C_24
REMARK    9  A    between atoms: C_31  and  C_32
REMARK                            x       y       z     vdW  Elec       q    Type
REMARK                         _______ _______ _______ _____ _____    ______ ____
ROOT
ATOM      1  C   UNL     1       2.505   5.961  19.200  0.00  0.00    +0.000 A 
ATOM      2  C   UNL     1       2.306   7.215  18.585  0.00  0.00    +0.000 A 
ATOM      3  C   UNL     1       1.746   8.291  19.274  0.00  0.00    +0.000 A 
ATOM      4  C   UNL     1       1.305   8.103  20.585  0.00  0.00    +0.000 A 
ATOM      5  C   UNL     1       1.464   6.865  21.206  0.00  0.00    +0.000 A 
ATOM      6  C   UNL     1       2.078   5.792  20.541  0.00  0.00    +0.000 A 
ATOM      7  C   UNL     1       2.229   4.506  21.312  0.00  0.00    +0.000 C 
ENDROOT
BRANCH   1  12
ATOM      8  C   UNL     1       4.767   3.830  17.290  0.00  0.00    +0.000 A 
ATOM      9  N   UNL     1       3.711   3.053  17.215  0.00  0.00    +0.000 NA
ATOM     10  C   UNL     1       2.719   3.681  17.928  0.00  0.00    +0.000 A 
ATOM     11  C   UNL     1       1.404   3.011  18.048  0.00  0.00    +0.000 C 
ATOM     12  C   UNL     1       3.163   4.902  18.424  0.00  0.00    +0.000 A 
ATOM     13  N   UNL     1       4.493   4.923  18.066  0.00  0.00    +0.000 N 
ATOM     14  H   UNL     1       5.164   5.631  18.317  0.00  0.00    +0.000 HD
BRANCH   8  18
ATOM     15  C   UNL     1       6.695   5.863  14.809  0.00  0.00    +0.000 C 
ATOM     16  C   UNL     1       5.688   4.763  14.455  0.00  0.00    +0.000 C 
ATOM     17  C   UNL     1       6.016   3.442  15.154  0.00  0.00    +0.000 C 
ATOM     18  C   UNL     1       6.120   3.596  16.675  0.00  0.00    +0.000 C 
ATOM     19  C   UNL     1       7.114   4.705  17.048  0.00  0.00    +0.000 C 
ATOM     20  C   UNL     1       6.846   6.030  16.328  0.00  0.00    +0.000 C 
BRANCH  15  22
ATOM     21  C   UNL     1       8.018   5.450  12.866  0.00  0.00    +0.000 C 
ATOM     22  O   UNL     1       7.996   5.561  14.284  0.00  0.00    +0.000 OA
ENDBRANCH  15  22
ENDBRANCH   8  18
ENDBRANCH   1  12
BRANCH   3  23
ATOM     23  C   UNL     1       1.514   9.622  18.645  0.00  0.00    +0.000 C 
ATOM     24  O   UNL     1       1.888   9.796  17.485  0.00  0.00    +0.000 OA
ATOM     25  N   UNL     1       0.891  10.617  19.359  0.00  0.00    +0.000 N 
ATOM     26  C   UNL     1       0.447  11.897  18.828  0.00  0.00    +0.000 C 
ATOM     27  C   UNL     1      -0.637  11.916  19.924  0.00  0.00    +0.000 C 
ATOM     28  C   UNL     1      -0.016  10.623  20.491  0.00  0.00    +0.000 C 
BRANCH  27  29
ATOM     29  C   UNL     1      -2.166  11.912  19.460  0.00  0.00    +0.000 A 
ATOM     30  C   UNL     1      -2.583  11.315  18.253  0.00  0.00    +0.000 A 
ATOM     31  C   UNL     1      -3.896  11.426  17.784  0.00  0.00    +0.000 A 
ATOM     32  C   UNL     1      -4.844  12.131  18.524  0.00  0.00    +0.000 A 
ATOM     33  C   UNL     1      -4.484  12.675  19.757  0.00  0.00    +0.000 A 
ATOM     34  C   UNL     1      -3.165  12.560  20.215  0.00  0.00    +0.000 A 
BRANCH  32  35
ATOM     35  C   UNL     1      -6.164  12.333  18.002  0.00  0.00    +0.000 C 
ATOM     36  N   UNL     1      -7.238  12.473  17.585  0.00  0.00    +0.000 NA
ENDBRANCH  32  35
ENDBRANCH  27  29
ENDBRANCH   3  23
TORSDOF 6
ENDMDL
MODEL 3
REMARK VINA RESULT:      -8.4      0.877      1.145
REMARK  Name = 
REMARK  9 active torsions:
REMARK  status: ('A' for Active; 'I' for Inactive)
REMARK    1  A    between atoms: C_1  and  O_2
REMARK    2  A    between atoms: O_2  and  C_3
REMARK    3  A    between atoms: C_6  and  C_7
REMARK    4  A    between atoms: C_9  and  C_10
REMARK    5  A    between atoms: C_11  and  C_12
REMARK    6  A    between atoms: C_14  and  C_15
REMARK    7  A    between atoms: C_19  and  C_20
REMARK    8  A    between atoms: C_23  and  C_24
REMARK    9  A    between atoms: C_31  and  C_32
REMARK                            x       y       z     vdW  Elec       q    Type
REMARK                         _______ _______ _______ _____ _____    ______ ____
ROOT
ATOM      1  C   UNL     1       0.692  10.767  19.055  0.00  0.00    +0.000 A 
ATOM      2  C   UNL     1       1.425  11.874  19.532  0.00  0.00    +0.000 A 
ATOM      3  C   UNL     1       0.923  13.173  19.468  0.00  0.00    +0.000 A 
ATOM      4  C   UNL     1      -0.309  13.395  18.850  0.00  0.00    +0.000 A 
ATOM      5  C   UNL     1      -1.043  12.322  18.345  0.00  0.00    +0.000 A 
ATOM      6  C   UNL     1      -0.571  11.004  18.455  0.00  0.00    +0.000 A 
ATOM      7  C   UNL     1      -1.454   9.914  17.904  0.00  0.00    +0.000 C 
ENDROOT
BRANCH   1  12
ATOM      8  C   UNL     1       2.201   7.468  18.675  0.00  0.00    +0.000 A 
ATOM      9  N   UNL     1       1.994   7.403  19.971  0.00  0.00    +0.000 NA
ATOM     10  C   UNL     1       1.441   8.608  20.333  0.00  0.00    +0.000 A 
ATOM     11  C   UNL     1       1.128   8.839  21.762  0.00  0.00    +0.000 C 
ATOM     12  C   UNL     1       1.265   9.426  19.223  0.00  0.00    +0.000 A 
ATOM     13  N   UNL     1       1.833   8.698  18.201  0.00  0.00    +0.000 N 
ATOM     14  H   UNL     1       1.953   9.005  17.249  0.00  0.00    +0.000 HD
BRANCH   8  18
ATOM     15  C   UNL     1       3.613   4.107  19.520  0.00  0.00    +0.000 C 
ATOM     16  C   UNL     1       4.412   5.416  19.481  0.00  0.00    +0.000 C 
ATOM     17  C   UNL     1       4.257   6.141  18.144  0.00  0.00    +0.000 C 
ATOM     18  C   UNL     1       2.789   6.404  17.789  0.00  0.00    +0.000 C 
ATOM     19  C   UNL     1       1.970   5.107  17.837  0.00  0.00    +0.000 C 
ATOM     20  C   UNL     1       2.141   4.328  19.145  0.00  0.00    +0.000 C 
BRANCH  15  22
ATOM     21  C   UNL     1       3.454   1.907  18.608  0.00  0.00    +0.000 C 
ATOM     22  O   UNL     1       4.148   3.149  18.596  0.00  0.00    +0.000 OA
ENDBRANCH  15  22
ENDBRANCH   8  18
ENDBRANCH   1  12
BRANCH   3  23
ATOM     23  C   UNL     1       1.682  14.359  19.953  0.00  0.00    +0.000 C 
ATOM     24  O   UNL     1       1.506  14.735  21.111  0.00  0.00    +0.000 OA
ATOM     25  N   UNL     1       2.557  15.003  19.111  0.00  0.00    +0.000 N 
ATOM     26  C   UNL     1       3.485  16.058  19.490  0.00  0.00    +0.000 C 
ATOM     27  C   UNL     1       4.395  15.601  18.332  0.00  0.00    +0.000 C 
ATOM     28  C   UNL     1       3.295  14.598  17.929  0.00  0.00    +0.000 C 
BRANCH  27  29
ATOM     29  C   UNL     1       5.853  15.059  18.698  0.00  0.00    +0.000 A 
ATOM     30  C   UNL     1       6.400  15.192  19.991  0.00  0.00    +0.000 A 
ATOM     31  C   UNL     1       7.722  14.838  20.278  0.00  0.00    +0.000 A 
ATOM     32  C   UNL     1       8.540  14.320  19.274  0.00  0.00    +0.000 A 
ATOM     33  C   UNL     1       8.010  14.110  18.001  0.00  0.00    +0.000 A 
ATOM     34  C   UNL     1       6.685  14.472  17.725  0.00  0.00    +0.000 A 
BRANCH  32  35
ATOM     35  C   UNL     1       9.922  14.049  19.537  0.00  0.00    +0.000 C 
ATOM     36  N   UNL     1      11.043  13.815  19.730  0.00  0.00    +0.000 NA
ENDBRANCH  32  35
ENDBRANCH  27  29
ENDBRANCH   3  23
TORSDOF 6
ENDMDL
MODEL 4
REMARK VINA RESULT:      -8.2      0.896      1.441
REMARK  Name = 
REMARK  9 active torsions:
REMARK  status: ('A' for Active; 'I' for Inactive)
REMARK    1  A    between atoms: C_1  and  O_2
REMARK    2  A    between atoms: O_2  and  C_3
REMARK    3  A    between atoms: C_6  and  C_7
REMARK    4  A    between atoms: C_9  and  C_10
REMARK    5  A    between atoms: C_11  and  C_12
REMARK    6  A    between atoms: C_14  and  C_15
REMARK    7  A    between atoms: C_19  and  C_20
REMARK    8  A    between atoms: C_23  and  C_24
REMARK    9  A    between atoms: C_31  and  C_32
REMARK                            x       y       z     vdW  Elec       q    Type
REMARK                         _______ _______ _______ _____ _____    ______ ____
ROOT
ATOM      1  C   UNL     1       0.786  10.592  19.090  0.00  0.00    +0.000 A 
ATOM      2  C   UNL     1       1.422  11.666  19.748  0.00  0.00    +0.000 A 
ATOM      3  C   UNL     1       0.877  12.949  19.757  0.00  0.00    +0.000 A 
ATOM      4  C   UNL     1      -0.293  13.195  19.037  0.00  0.00    +0.000 A 
ATOM      5  C   UNL     1      -0.928  12.157  18.356  0.00  0.00    +0.000 A 
ATOM      6  C   UNL     1      -0.417  10.849  18.387  0.00  0.00    +0.000 A 
ATOM      7  C   UNL     1      -1.194   9.794  17.643  0.00  0.00    +0.000 C 
ENDROOT
BRANCH   1  12
ATOM      8  C   UNL     1       2.386   7.360  18.539  0.00  0.00    +0.000 A 
ATOM      9  N   UNL     1       2.167   7.215  19.826  0.00  0.00    +0.000 NA
ATOM     10  C   UNL     1       1.580   8.382  20.251  0.00  0.00    +0.000 A 
ATOM     11  C   UNL     1       1.246   8.522  21.687  0.00  0.00    +0.000 C 
ATOM     12  C   UNL     1       1.393   9.258  19.187  0.00  0.00    +0.000 A 
ATOM     13  N   UNL     1       1.991   8.605  18.132  0.00  0.00    +0.000 N 
ATOM     14  H   UNL     1       2.112   8.970  17.201  0.00  0.00    +0.000 HD
BRANCH   8  18
ATOM     15  C   UNL     1       5.526   5.351  18.862  0.00  0.00    +0.000 C 
ATOM     16  C   UNL     1       5.437   6.757  18.258  0.00  0.00    +0.000 C 
ATOM     17  C   UNL     1       4.395   6.834  17.140  0.00  0.00    +0.000 C 
ATOM     18  C   UNL     1       3.010   6.365  17.599  0.00  0.00    +0.000 C 
ATOM     19  C   UNL     1       3.083   4.963  18.221  0.00  0.00    +0.000 C 
ATOM     20  C   UNL     1       4.151   4.836  19.311  0.00  0.00    +0.000 C 
BRANCH  15  22
ATOM     21  C   UNL     1       7.400   4.647  17.561  0.00  0.00    +0.000 C 
ATOM     22  O   UNL     1       6.041   4.411  17.908  0.00  0.00    +0.000 OA
ENDBRANCH  15  22
ENDBRANCH   8  18
ENDBRANCH   1  12
BRANCH   3  23
ATOM     23  C   UNL     1       1.535  14.103  20.432  0.00  0.00    +0.000 C 
ATOM     24  O   UNL     1       1.634  14.087  21.659  0.00  0.00    +0.000 OA
ATOM     25  N   UNL     1       2.017  15.151  19.684  0.00  0.00    +0.000 N 
ATOM     26  C   UNL     1       2.825  16.253  20.181  0.00  0.00    +0.000 C 
ATOM     27  C   UNL     1       3.434  16.374  18.769  0.00  0.00    +0.000 C 
ATOM     28  C   UNL     1       2.447  15.284  18.304  0.00  0.00    +0.000 C 
BRANCH  27  29
ATOM     29  C   UNL     1       5.005  16.128  18.611  0.00  0.00    +0.000 A 
ATOM     30  C   UNL     1       5.959  17.087  19.008  0.00  0.00    +0.000 A 
ATOM     31  C   UNL     1       7.324  16.928  18.749  0.00  0.00    +0.000 A 
ATOM     32  C   UNL     1       7.781  15.787  18.092  0.00  0.00    +0.000 A 
ATOM     33  C   UNL     1       6.873  14.786  17.747  0.00  0.00    +0.000 A 
ATOM     34  C   UNL     1       5.508  14.958  18.009  0.00  0.00    +0.000 A 
BRANCH  32  35
ATOM     35  C   UNL     1       9.164  15.664  17.736  0.00  0.00    +0.000 C 
ATOM     36  N   UNL     1      10.290  15.573  17.469  0.00  0.00    +0.000 NA
ENDBRANCH  32  35
ENDBRANCH  27  29
ENDBRANCH   3  23
TORSDOF 6
ENDMDL
MODEL 5
REMARK VINA RESULT:      -8.1      1.248      1.516
REMARK  Name = 
REMARK  9 active torsions:
REMARK  status: ('A' for Active; 'I' for Inactive)
REMARK    1  A    between atoms: C_1  and  O_2
REMARK    2  A    between atoms: O_2  and  C_3
REMARK    3  A    between atoms: C_6  and  C_7
REMARK    4  A    between atoms: C_9  and  C_10
REMARK    5  A    between atoms: C_11  and  C_12
REMARK    6  A    between atoms: C_14  and  C_15
REMARK    7  A    between atoms: C_19  and  C_20
REMARK    8  A    between atoms: C_23  and  C_24
REMARK    9  A    between atoms: C_31  and  C_32
REMARK                            x       y       z     vdW  Elec       q    Type
REMARK                         _______ _______ _______ _____ _____    ______ ____
ROOT
ATOM      1  C   UNL     1       0.789  10.639  18.993  0.00  0.00    +0.000 A 
ATOM      2  C   UNL     1       1.493  11.735  19.537  0.00  0.00    +0.000 A 
ATOM      3  C   UNL     1       0.981  13.031  19.497  0.00  0.00    +0.000 A 
ATOM      4  C   UNL     1      -0.228  13.264  18.839  0.00  0.00    +0.000 A 
ATOM      5  C   UNL     1      -0.931  12.203  18.268  0.00  0.00    +0.000 A 
ATOM      6  C   UNL     1      -0.451  10.885  18.352  0.00  0.00    +0.000 A 
ATOM      7  C   UNL     1      -1.300   9.807  17.730  0.00  0.00    +0.000 C 
ENDROOT
BRANCH   1  12
ATOM      8  C   UNL     1       2.318   7.356  18.557  0.00  0.00    +0.000 A 
ATOM      9  N   UNL     1       2.104   7.265  19.850  0.00  0.00    +0.000 NA
ATOM     10  C   UNL     1       1.544   8.459  20.233  0.00  0.00    +0.000 A 
ATOM     11  C   UNL     1       1.222   8.661  21.665  0.00  0.00    +0.000 C 
ATOM     12  C   UNL     1       1.369   9.298  19.138  0.00  0.00    +0.000 A 
ATOM     13  N   UNL     1       1.946   8.593  18.105  0.00  0.00    +0.000 N 
ATOM     14  H   UNL     1       2.070   8.919  17.160  0.00  0.00    +0.000 HD
BRANCH   8  18
ATOM     15  C   UNL     1       5.502   5.413  18.861  0.00  0.00    +0.000 C 
ATOM     16  C   UNL     1       5.363   6.778  18.176  0.00  0.00    +0.000 C 
ATOM     17  C   UNL     1       4.272   6.771  17.104  0.00  0.00    +0.000 C 
ATOM     18  C   UNL     1       2.916   6.313  17.654  0.00  0.00    +0.000 C 
ATOM     19  C   UNL     1       3.039   4.954  18.356  0.00  0.00    +0.000 C 
ATOM     20  C   UNL     1       4.157   4.909  19.403  0.00  0.00    +0.000 C 
BRANCH  15  22
ATOM     21  C   UNL     1       7.326   4.655  17.522  0.00  0.00    +0.000 C 
ATOM     22  O   UNL     1       5.989   4.422  17.945  0.00  0.00    +0.000 OA
ENDBRANCH  15  22
ENDBRANCH   8  18
ENDBRANCH   1  12
BRANCH   3  23
ATOM     23  C   UNL     1       1.709  14.206  20.052  0.00  0.00    +0.000 C 
ATOM     24  O   UNL     1       1.565  14.477  21.244  0.00  0.00    +0.000 OA
ATOM     25  N   UNL     1       2.520  14.957  19.235  0.00  0.00    +0.000 N 
ATOM     26  C   UNL     1       3.417  16.018  19.667  0.00  0.00    +0.000 C 
ATOM     27  C   UNL     1       4.298  15.700  18.441  0.00  0.00    +0.000 C 
ATOM     28  C   UNL     1       3.225  14.685  17.996  0.00  0.00    +0.000 C 
BRANCH  27  29
ATOM     29  C   UNL     1       5.791  15.196  18.706  0.00  0.00    +0.000 A 
ATOM     30  C   UNL     1       6.572  14.599  17.695  0.00  0.00    +0.000 A 
ATOM     31  C   UNL     1       7.827  14.040  17.959  0.00  0.00    +0.000 A 
ATOM     32  C   UNL     1       8.349  14.077  19.251  0.00  0.00    +0.000 A 
ATOM     33  C   UNL     1       7.635  14.722  20.260  0.00  0.00    +0.000 A 
ATOM     34  C   UNL     1       6.378  15.275  19.985  0.00  0.00    +0.000 A 
BRANCH  32  35
ATOM     35  C   UNL     1       9.588  13.419  19.548  0.00  0.00    +0.000 C 
ATOM     36  N   UNL     1      10.597  12.889  19.765  0.00  0.00    +0.000 NA
ENDBRANCH  32  35
ENDBRANCH  27  29
ENDBRANCH   3  23
TORSDOF 6
ENDMDL
MODEL 6
REMARK VINA RESULT:      -8.1      0.814      1.005
REMARK  Name = 
REMARK  9 active torsions:
REMARK  status: ('A' for Active; 'I' for Inactive)
REMARK    1  A    between atoms: C_1  and  O_2
REMARK    2  A    between atoms: O_2  and  C_3
REMARK    3  A    between atoms: C_6  and  C_7
REMARK    4  A    between atoms: C_9  and  C_10
REMARK    5  A    between atoms: C_11  and  C_12
REMARK    6  A    between atoms: C_14  and  C_15
REMARK    7  A    between atoms: C_19  and  C_20
REMARK    8  A    between atoms: C_23  and  C_24
REMARK    9  A    between atoms: C_31  and  C_32
REMARK                            x       y       z     vdW  Elec       q    Type
REMARK                         _______ _______ _______ _____ _____    ______ ____
ROOT
ATOM      1  C   UNL     1       1.198  10.737  19.184  0.00  0.00    +0.000 A 
ATOM      2  C   UNL     1       2.075  11.698  19.729  0.00  0.00    +0.000 A 
ATOM      3  C   UNL     1       1.774  13.059  19.717  0.00  0.00    +0.000 A 
ATOM      4  C   UNL     1       0.606  13.491  19.086  0.00  0.00    +0.000 A 
ATOM      5  C   UNL     1      -0.265  12.564  18.516  0.00  0.00    +0.000 A 
ATOM      6  C   UNL     1       0.001  11.186  18.572  0.00  0.00    +0.000 A 
ATOM      7  C   UNL     1      -1.019  10.267  17.952  0.00  0.00    +0.000 C 
ENDROOT
BRANCH   1  12
ATOM      8  C   UNL     1       2.282   7.288  18.693  0.00  0.00    +0.000 A 
ATOM      9  N   UNL     1       1.913   7.165  19.948  0.00  0.00    +0.000 NA
ATOM     10  C   UNL     1       1.488   8.409  20.349  0.00  0.00    +0.000 A 
ATOM     11  C   UNL     1       1.038   8.583  21.749  0.00  0.00    +0.000 C 
ATOM     12  C   UNL     1       1.560   9.319  19.299  0.00  0.00    +0.000 A 
ATOM     13  N   UNL     1       2.144   8.588  18.288  0.00  0.00    +0.000 N 
ATOM     14  H   UNL     1       2.420   8.939  17.385  0.00  0.00    +0.000 HD
BRANCH   8  18
ATOM     15  C   UNL     1       3.697   3.918  19.498  0.00  0.00    +0.000 C 
ATOM     16  C   UNL     1       4.505   5.219  19.420  0.00  0.00    +0.000 C 
ATOM     17  C   UNL     1       4.303   5.939  18.086  0.00  0.00    +0.000 C 
ATOM     18  C   UNL     1       2.824   6.215  17.790  0.00  0.00    +0.000 C 
ATOM     19  C   UNL     1       1.996   4.926  17.877  0.00  0.00    +0.000 C 
ATOM     20  C   UNL     1       2.213   4.152  19.182  0.00  0.00    +0.000 C 
BRANCH  15  22
ATOM     21  C   UNL     1       3.672   1.642  18.780  0.00  0.00    +0.000 C 
ATOM     22  O   UNL     1       4.184   2.950  18.558  0.00  0.00    +0.000 OA
ENDBRANCH  15  22
ENDBRANCH   8  18
ENDBRANCH   1  12
BRANCH   3  23
ATOM     23  C   UNL     1       2.689  14.095  20.273  0.00  0.00    +0.000 C 
ATOM     24  O   UNL     1       2.867  14.129  21.490  0.00  0.00    +0.000 OA
ATOM     25  N   UNL     1       3.312  14.983  19.428  0.00  0.00    +0.000 N 
ATOM     26  C   UNL     1       4.353  15.929  19.803  0.00  0.00    +0.000 C 
ATOM     27  C   UNL     1       4.874  15.848  18.354  0.00  0.00    +0.000 C 
ATOM     28  C   UNL     1       3.664  14.951  18.021  0.00  0.00    +0.000 C 
BRANCH  27  29
ATOM     29  C   UNL     1       6.352  15.286  18.124  0.00  0.00    +0.000 A 
ATOM     30  C   UNL     1       6.594  13.977  17.659  0.00  0.00    +0.000 A 
ATOM     31  C   UNL     1       7.884  13.442  17.583  0.00  0.00    +0.000 A 
ATOM     32  C   UNL     1       8.983  14.214  17.959  0.00  0.00    +0.000 A 
ATOM     33  C   UNL     1       8.786  15.536  18.356  0.00  0.00    +0.000 A 
ATOM     34  C   UNL     1       7.489  16.060  18.431  0.00  0.00    +0.000 A 
BRANCH  32  35
ATOM     35  C   UNL     1      10.296  13.640  17.978  0.00  0.00    +0.000 C 
ATOM     36  N   UNL     1      11.361  13.178  17.969  0.00  0.00    +0.000 NA
ENDBRANCH  32  35
ENDBRANCH  27  29
ENDBRANCH   3  23
TORSDOF 6
ENDMDL
MODEL 7
REMARK VINA RESULT:      -7.9      0.551      1.117
REMARK  Name = 
REMARK  9 active torsions:
REMARK  status: ('A' for Active; 'I' for Inactive)
REMARK    1  A    between atoms: C_1  and  O_2
REMARK    2  A    between atoms: O_2  and  C_3
REMARK    3  A    between atoms: C_6  and  C_7
REMARK    4  A    between atoms: C_9  and  C_10
REMARK    5  A    between atoms: C_11  and  C_12
REMARK    6  A    between atoms: C_14  and  C_15
REMARK    7  A    between atoms: C_19  and  C_20
REMARK    8  A    between atoms: C_23  and  C_24
REMARK    9  A    between atoms: C_31  and  C_32
REMARK                            x       y       z     vdW  Elec       q    Type
REMARK                         _______ _______ _______ _____ _____    ______ ____
ROOT
ATOM      1  C   UNL     1       0.615  10.699  19.388  0.00  0.00    +0.000 A 
ATOM      2  C   UNL     1       1.250  11.796  20.007  0.00  0.00    +0.000 A 
ATOM      3  C   UNL     1       0.775  13.099  19.860  0.00  0.00    +0.000 A 
ATOM      4  C   UNL     1      -0.316  13.335  19.021  0.00  0.00    +0.000 A 
ATOM      5  C   UNL     1      -0.944  12.271  18.375  0.00  0.00    +0.000 A 
ATOM      6  C   UNL     1      -0.509  10.948  18.561  0.00  0.00    +0.000 A 
ATOM      7  C   UNL     1      -1.276   9.869  17.842  0.00  0.00    +0.000 C 
ENDROOT
BRANCH   1  12
ATOM      8  C   UNL     1       2.326   7.477  19.361  0.00  0.00    +0.000 A 
ATOM      9  N   UNL     1       1.598   7.264  20.433  0.00  0.00    +0.000 NA
ATOM     10  C   UNL     1       0.878   8.415  20.644  0.00  0.00    +0.000 A 
ATOM     11  C   UNL     1      -0.020   8.480  21.821  0.00  0.00    +0.000 C 
ATOM     12  C   UNL     1       1.139   9.352  19.650  0.00  0.00    +0.000 A 
ATOM     13  N   UNL     1       2.123   8.750  18.900  0.00  0.00    +0.000 N 
ATOM     14  H   UNL     1       2.615   9.163  18.124  0.00  0.00    +0.000 HD
BRANCH   8  18
ATOM     15  C   UNL     1       2.174   3.761  18.949  0.00  0.00    +0.000 C 
ATOM     16  C   UNL     1       2.787   4.491  20.150  0.00  0.00    +0.000 C 
ATOM     17  C   UNL     1       3.840   5.515  19.720  0.00  0.00    +0.000 C 
ATOM     18  C   UNL     1       3.291   6.526  18.707  0.00  0.00    +0.000 C 
ATOM     19  C   UNL     1       2.660   5.813  17.504  0.00  0.00    +0.000 C 
ATOM     20  C   UNL     1       1.636   4.744  17.900  0.00  0.00    +0.000 C 
BRANCH  15  22
ATOM     21  C   UNL     1       2.988   1.548  18.577  0.00  0.00    +0.000 C 
ATOM     22  O   UNL     1       3.148   2.933  18.296  0.00  0.00    +0.000 OA
ENDBRANCH  15  22
ENDBRANCH   8  18
ENDBRANCH   1  12
BRANCH   3  23
ATOM     23  C   UNL     1       1.435  14.276  20.492  0.00  0.00    +0.000 C 
ATOM     24  O   UNL     1       1.513  14.317  21.719  0.00  0.00    +0.000 OA
ATOM     25  N   UNL     1       1.940  15.283  19.704  0.00  0.00    +0.000 N 
ATOM     26  C   UNL     1       2.753  16.398  20.163  0.00  0.00    +0.000 C 
ATOM     27  C   UNL     1       3.386  16.447  18.758  0.00  0.00    +0.000 C 
ATOM     28  C   UNL     1       2.395  15.347  18.327  0.00  0.00    +0.000 C 
BRANCH  27  29
ATOM     29  C   UNL     1       4.957  16.177  18.638  0.00  0.00    +0.000 A 
ATOM     30  C   UNL     1       5.914  17.168  18.941  0.00  0.00    +0.000 A 
ATOM     31  C   UNL     1       7.280  16.975  18.710  0.00  0.00    +0.000 A 
ATOM     32  C   UNL     1       7.735  15.769  18.179  0.00  0.00    +0.000 A 
ATOM     33  C   UNL     1       6.823  14.742  17.934  0.00  0.00    +0.000 A 
ATOM     34  C   UNL     1       5.458  14.948  18.166  0.00  0.00    +0.000 A 
BRANCH  32  35
ATOM     35  C   UNL     1       9.119  15.603  17.849  0.00  0.00    +0.000 C 
ATOM     36  N   UNL     1      10.237  15.481  17.561  0.00  0.00    +0.000 NA
ENDBRANCH  32  35
ENDBRANCH  27  29
ENDBRANCH   3  23
TORSDOF 6
ENDMDL
MODEL 8
REMARK VINA RESULT:      -7.8      4.956      7.955
REMARK  Name = 
REMARK  9 active torsions:
REMARK  status: ('A' for Active; 'I' for Inactive)
REMARK    1  A    between atoms: C_1  and  O_2
REMARK    2  A    between atoms: O_2  and  C_3
REMARK    3  A    between atoms: C_6  and  C_7
REMARK    4  A    between atoms: C_9  and  C_10
REMARK    5  A    between atoms: C_11  and  C_12
REMARK    6  A    between atoms: C_14  and  C_15
REMARK    7  A    between atoms: C_19  and  C_20
REMARK    8  A    between atoms: C_23  and  C_24
REMARK    9  A    between atoms: C_31  and  C_32
REMARK                            x       y       z     vdW  Elec       q    Type
REMARK                         _______ _______ _______ _____ _____    ______ ____
ROOT
ATOM      1  C   UNL     1       2.382   6.204  19.271  0.00  0.00    +0.000 A 
ATOM      2  C   UNL     1       2.167   7.479  18.705  0.00  0.00    +0.000 A 
ATOM      3  C   UNL     1       1.613   8.526  19.441  0.00  0.00    +0.000 A 
ATOM      4  C   UNL     1       1.194   8.289  20.751  0.00  0.00    +0.000 A 
ATOM      5  C   UNL     1       1.370   7.031  21.325  0.00  0.00    +0.000 A 
ATOM      6  C   UNL     1       1.978   5.985  20.612  0.00  0.00    +0.000 A 
ATOM      7  C   UNL     1       2.148   4.673  21.334  0.00  0.00    +0.000 C 
ENDROOT
BRANCH   1  12
ATOM      8  C   UNL     1       4.654   4.101  17.343  0.00  0.00    +0.000 A 
ATOM      9  N   UNL     1       3.558   3.416  17.105  0.00  0.00    +0.000 NA
ATOM     10  C   UNL     1       2.552   4.047  17.796  0.00  0.00    +0.000 A 
ATOM     11  C   UNL     1       1.189   3.470  17.741  0.00  0.00    +0.000 C 
ATOM     12  C   UNL     1       3.032   5.178  18.448  0.00  0.00    +0.000 A 
ATOM     13  N   UNL     1       4.387   5.132  18.201  0.00  0.00    +0.000 N 
ATOM     14  H   UNL     1       5.079   5.760  18.576  0.00  0.00    +0.000 HD
BRANCH   8  18
ATOM     15  C   UNL     1       6.666   5.880  14.737  0.00  0.00    +0.000 C 
ATOM     16  C   UNL     1       5.691   4.729  14.465  0.00  0.00    +0.000 C 
ATOM     17  C   UNL     1       6.003   3.500  15.321  0.00  0.00    +0.000 C 
ATOM     18  C   UNL     1       6.036   3.825  16.818  0.00  0.00    +0.000 C 
ATOM     19  C   UNL     1       6.997   4.986  17.108  0.00  0.00    +0.000 C 
ATOM     20  C   UNL     1       6.745   6.217  16.233  0.00  0.00    +0.000 C 
BRANCH  15  22
ATOM     21  C   UNL     1       8.111   5.416  12.895  0.00  0.00    +0.000 C 
ATOM     22  O   UNL     1       7.993   5.546  14.306  0.00  0.00    +0.000 OA
ENDBRANCH  15  22
ENDBRANCH   8  18
ENDBRANCH   1  12
BRANCH   3  23
ATOM     23  C   UNL     1       1.364   9.877  18.864  0.00  0.00    +0.000 C 
ATOM     24  O   UNL     1       2.296  10.460  18.310  0.00  0.00    +0.000 OA
ATOM     25  N   UNL     1       0.114  10.441  18.956  0.00  0.00    +0.000 N 
ATOM     26  C   UNL     1      -0.320  11.664  18.298  0.00  0.00    +0.000 C 
ATOM     27  C   UNL     1      -1.755  11.100  18.311  0.00  0.00    +0.000 C 
ATOM     28  C   UNL     1      -1.222   9.899  19.119  0.00  0.00    +0.000 C 
BRANCH  27  29
ATOM     29  C   UNL     1      -2.469  10.842  16.905  0.00  0.00    +0.000 A 
ATOM     30  C   UNL     1      -3.668  11.489  16.542  0.00  0.00    +0.000 A 
ATOM     31  C   UNL     1      -4.361  11.166  15.371  0.00  0.00    +0.000 A 
ATOM     32  C   UNL     1      -3.861  10.189  14.511  0.00  0.00    +0.000 A 
ATOM     33  C   UNL     1      -2.641   9.579  14.804  0.00  0.00    +0.000 A 
ATOM     34  C   UNL     1      -1.958   9.908  15.982  0.00  0.00    +0.000 A 
BRANCH  32  35
ATOM     35  C   UNL     1      -4.616   9.784  13.362  0.00  0.00    +0.000 C 
ATOM     36  N   UNL     1      -5.231   9.479  12.426  0.00  0.00    +0.000 NA
ENDBRANCH  32  35
ENDBRANCH  27  29
ENDBRANCH   3  23
TORSDOF 6
ENDMDL
MODEL 9
REMARK VINA RESULT:      -7.8      1.548      2.412
REMARK  Name = 
REMARK  9 active torsions:
REMARK  status: ('A' for Active; 'I' for Inactive)
REMARK    1  A    between atoms: C_1  and  O_2
REMARK    2  A    between atoms: O_2  and  C_3
REMARK    3  A    between atoms: C_6  and  C_7
REMARK    4  A    between atoms: C_9  and  C_10
REMARK    5  A    between atoms: C_11  and  C_12
REMARK    6  A    between atoms: C_14  and  C_15
REMARK    7  A    between atoms: C_19  and  C_20
REMARK    8  A    between atoms: C_23  and  C_24
REMARK    9  A    between atoms: C_31  and  C_32
REMARK                            x       y       z     vdW  Elec       q    Type
REMARK                         _______ _______ _______ _____ _____    ______ ____
ROOT
ATOM      1  C   UNL     1       0.682  10.031  20.886  0.00  0.00    +0.000 A 
ATOM      2  C   UNL     1       1.014  11.358  20.543  0.00  0.00    +0.000 A 
ATOM      3  C   UNL     1       0.490  12.450  21.235  0.00  0.00    +0.000 A 
ATOM      4  C   UNL     1      -0.444  12.227  22.249  0.00  0.00    +0.000 A 
ATOM      5  C   UNL     1      -0.811  10.926  22.589  0.00  0.00    +0.000 A 
ATOM      6  C   UNL     1      -0.246   9.817  21.936  0.00  0.00    +0.000 A 
ATOM      7  C   UNL     1      -0.687   8.453  22.400  0.00  0.00    +0.000 C 
ENDROOT
BRANCH   1  12
ATOM      8  C   UNL     1       2.402   7.006  19.791  0.00  0.00    +0.000 A 
ATOM      9  N   UNL     1       2.279   7.559  18.606  0.00  0.00    +0.000 NA
ATOM     10  C   UNL     1       1.600   8.738  18.801  0.00  0.00    +0.000 A 
ATOM     11  C   UNL     1       1.281   9.572  17.619  0.00  0.00    +0.000 C 
ATOM     12  C   UNL     1       1.331   8.938  20.151  0.00  0.00    +0.000 A 
ATOM     13  N   UNL     1       1.786   7.778  20.738  0.00  0.00    +0.000 N 
ATOM     14  H   UNL     1       1.697   7.531  21.710  0.00  0.00    +0.000 HD
BRANCH   8  18
ATOM     15  C   UNL     1       1.466   3.494  18.899  0.00  0.00    +0.000 C 
ATOM     16  C   UNL     1       0.984   4.247  20.145  0.00  0.00    +0.000 C 
ATOM     17  C   UNL     1       2.150   4.806  20.961  0.00  0.00    +0.000 C 
ATOM     18  C   UNL     1       3.072   5.701  20.125  0.00  0.00    +0.000 C 
ATOM     19  C   UNL     1       3.553   4.969  18.865  0.00  0.00    +0.000 C 
ATOM     20  C   UNL     1       2.413   4.352  18.048  0.00  0.00    +0.000 C 
BRANCH  15  22
ATOM     21  C   UNL     1       2.872   1.710  18.167  0.00  0.00    +0.000 C 
ATOM     22  O   UNL     1       2.179   2.303  19.259  0.00  0.00    +0.000 OA
ENDBRANCH  15  22
ENDBRANCH   8  18
ENDBRANCH   1  12
BRANCH   3  23
ATOM     23  C   UNL     1       0.814  13.861  20.885  0.00  0.00    +0.000 C 
ATOM     24  O   UNL     1       0.507  14.749  21.680  0.00  0.00    +0.000 OA
ATOM     25  N   UNL     1       1.445  14.145  19.697  0.00  0.00    +0.000 N 
ATOM     26  C   UNL     1       1.973  15.441  19.301  0.00  0.00    +0.000 C 
ATOM     27  C   UNL     1       3.001  14.696  18.426  0.00  0.00    +0.000 C 
ATOM     28  C   UNL     1       2.294  13.379  18.804  0.00  0.00    +0.000 C 
BRANCH  27  29
ATOM     29  C   UNL     1       4.550  14.882  18.773  0.00  0.00    +0.000 A 
ATOM     30  C   UNL     1       4.990  15.273  20.054  0.00  0.00    +0.000 A 
ATOM     31  C   UNL     1       6.332  15.563  20.322  0.00  0.00    +0.000 A 
ATOM     32  C   UNL     1       7.285  15.453  19.309  0.00  0.00    +0.000 A 
ATOM     33  C   UNL     1       6.895  15.001  18.049  0.00  0.00    +0.000 A 
ATOM     34  C   UNL     1       5.548  14.717  17.792  0.00  0.00    +0.000 A 
BRANCH  32  35
ATOM     35  C   UNL     1       8.643  15.843  19.551  0.00  0.00    +0.000 C 
ATOM     36  N   UNL     1       9.738  16.160  19.770  0.00  0.00    +0.000 NA
ENDBRANCH  32  35
ENDBRANCH  27  29
ENDBRANCH   3  23
TORSDOF 6
ENDMDL
