MODEL 1
REMARK VINA RESULT:      -8.6      0.000      0.000
REMARK  Name = 
REMARK  3 active torsions:
REMARK  status: ('A' for Active; 'I' for Inactive)
REMARK    1  A    between atoms: N_5  and  C_6
REMARK    2  A    between atoms: C_6  and  C_7
REMARK    3  A    between atoms: C_15  and  C_16
REMARK                            x       y       z     vdW  Elec       q    Type
REMARK                         _______ _______ _______ _____ _____    ______ ____
ROOT
ATOM      1  C   UNL     1       5.469   5.143  16.951  0.00  0.00    +0.000 A 
ATOM      2  C   UNL     1       5.332   6.541  17.037  0.00  0.00    +0.000 A 
ATOM      3  C   UNL     1       4.132   7.132  17.465  0.00  0.00    +0.000 A 
ATOM      4  C   UNL     1       3.036   6.346  17.813  0.00  0.00    +0.000 A 
ATOM      5  C   UNL     1       3.163   4.969  17.722  0.00  0.00    +0.000 A 
ATOM      6  C   UNL     1       4.361   4.372  17.292  0.00  0.00    +0.000 A 
ATOM      7  C   UNL     1       4.233   2.875  17.338  0.00  0.00    +0.000 C 
ATOM      8  C   UNL     1       2.707   2.701  17.338  0.00  0.00    +0.000 C 
ATOM      9  C   UNL     1       2.125   3.928  18.068  0.00  0.00    +0.000 C 
ENDROOT
BRANCH   9  10
ATOM     10  C   UNL     1       1.967   3.679  19.539  0.00  0.00    +0.000 A 
ATOM     11  N   UNL     1       2.630   4.286  20.506  0.00  0.00    +0.000 NA
ATOM     12  C   UNL     1       2.157   3.755  21.677  0.00  0.00    +0.000 A 
ATOM     13  C   UNL     1       1.191   2.812  21.429  0.00  0.00    +0.000 A 
ATOM     14  N   UNL     1       1.077   2.773  20.068  0.00  0.00    +0.000 N 
ATOM     15  H   UNL     1       0.457   2.181  19.531  0.00  0.00    +0.000 HD
ENDBRANCH   9  10
BRANCH   1  16
ATOM     16  C   UNL     1       6.767   4.528  16.495  0.00  0.00    +0.000 C 
BRANCH  16  21
ATOM     17  F   UNL     1       8.066   5.771  12.155  0.00  0.00    +0.000 F 
ATOM     18  C   UNL     1       7.470   5.129  13.121  0.00  0.00    +0.000 A 
ATOM     19  C   UNL     1       6.511   4.128  12.911  0.00  0.00    +0.000 A 
ATOM     20  C   UNL     1       6.143   3.735  14.178  0.00  0.00    +0.000 A 
ATOM     21  N   UNL     1       6.886   4.499  15.042  0.00  0.00    +0.000 N 
ATOM     22  N   UNL     1       7.694   5.378  14.410  0.00  0.00    +0.000 NA
ENDBRANCH  16  21
ENDBRANCH   1  16
TORSDOF 3
ENDMDL
MODEL 2
REMARK VINA RESULT:      -8.4      2.575      3.213
REMARK  Name = 
REMARK  3 active torsions:
REMARK  status: ('A' for Active; 'I' for Inactive)
REMARK    1  A    between atoms: N_5  and  C_6
REMARK    2  A    between atoms: C_6  and  C_7
REMARK    3  A    between atoms: C_15  and  C_16
REMARK                            x       y       z     vdW  Elec       q    Type
REMARK                         _______ _______ _______ _____ _____    ______ ____
ROOT
ATOM      1  C   UNL     1       4.290   6.242  17.095  0.00  0.00    +0.000 A 
ATOM      2  C   UNL     1       3.732   7.483  17.451  0.00  0.00    +0.000 A 
ATOM      3  C   UNL     1       2.483   7.565  18.090  0.00  0.00    +0.000 A 
ATOM      4  C   UNL     1       1.757   6.414  18.384  0.00  0.00    +0.000 A 
ATOM      5  C   UNL     1       2.299   5.189  18.027  0.00  0.00    +0.000 A 
ATOM      6  C   UNL     1       3.547   5.101  17.386  0.00  0.00    +0.000 A 
ATOM      7  C   UNL     1       3.908   3.658  17.165  0.00  0.00    +0.000 C 
ATOM      8  C   UNL     1       2.534   2.982  17.271  0.00  0.00    +0.000 C 
ATOM      9  C   UNL     1       1.707   3.821  18.266  0.00  0.00    +0.000 C 
ENDROOT
BRANCH   9  10
ATOM     10  C   UNL     1       1.855   3.322  19.674  0.00  0.00    +0.000 A 
ATOM     11  N   UNL     1       2.989   3.001  20.269  0.00  0.00    +0.000 NA
ATOM     12  C   UNL     1       2.650   2.612  21.539  0.00  0.00    +0.000 A 
ATOM     13  C   UNL     1       1.293   2.695  21.727  0.00  0.00    +0.000 A 
ATOM     14  N   UNL     1       0.798   3.148  20.537  0.00  0.00    +0.000 N 
ATOM     15  H   UNL     1      -0.173   3.322  20.314  0.00  0.00    +0.000 HD
ENDBRANCH   9  10
BRANCH   1  16
ATOM     16  C   UNL     1       5.634   6.174  16.416  0.00  0.00    +0.000 C 
BRANCH  16  21
ATOM     17  F   UNL     1       8.595   5.406  19.981  0.00  0.00    +0.000 F 
ATOM     18  C   UNL     1       8.007   6.002  18.981  0.00  0.00    +0.000 A 
ATOM     19  C   UNL     1       8.298   7.314  18.579  0.00  0.00    +0.000 A 
ATOM     20  C   UNL     1       7.454   7.540  17.515  0.00  0.00    +0.000 A 
ATOM     21  N   UNL     1       6.736   6.383  17.347  0.00  0.00    +0.000 N 
ATOM     22  N   UNL     1       7.047   5.432  18.254  0.00  0.00    +0.000 NA
ENDBRANCH  16  21
ENDBRANCH   1  16
TORSDOF 3
ENDMDL
MODEL 3
REMARK VINA RESULT:      -8.1      2.493      3.164
REMARK  Name = 
REMARK  3 active torsions:
REMARK  status: ('A' for Active; 'I' for Inactive)
REMARK    1  A    between atoms: N_5  and  C_6
REMARK    2  A    between atoms: C_6  and  C_7
REMARK    3  A    between atoms: C_15  and  C_16
REMARK                            x       y       z     vdW  Elec       q    Type
REMARK                         _______ _______ _______ _____ _____    ______ ____
ROOT
ATOM      1  C   UNL     1       4.343   6.245  17.139  0.00  0.00    +0.000 A 
ATOM      2  C   UNL     1       3.743   7.476  17.460  0.00  0.00    +0.000 A 
ATOM      3  C   UNL     1       2.469   7.537  18.050  0.00  0.00    +0.000 A 
ATOM      4  C   UNL     1       1.758   6.372  18.328  0.00  0.00    +0.000 A 
ATOM      5  C   UNL     1       2.341   5.156  18.006  0.00  0.00    +0.000 A 
ATOM      6  C   UNL     1       3.615   5.090  17.415  0.00  0.00    +0.000 A 
ATOM      7  C   UNL     1       4.017   3.655  17.223  0.00  0.00    +0.000 C 
ATOM      8  C   UNL     1       2.655   2.948  17.284  0.00  0.00    +0.000 C 
ATOM      9  C   UNL     1       1.772   3.777  18.237  0.00  0.00    +0.000 C 
ENDROOT
BRANCH   9  10
ATOM     10  C   UNL     1       1.877   3.296  19.655  0.00  0.00    +0.000 A 
ATOM     11  N   UNL     1       0.897   3.262  20.538  0.00  0.00    +0.000 NA
ATOM     12  C   UNL     1       1.441   2.742  21.684  0.00  0.00    +0.000 A 
ATOM     13  C   UNL     1       2.770   2.453  21.503  0.00  0.00    +0.000 A 
ATOM     14  N   UNL     1       3.036   2.806  20.210  0.00  0.00    +0.000 N 
ATOM     15  H   UNL     1       3.927   2.733  19.735  0.00  0.00    +0.000 HD
ENDBRANCH   9  10
BRANCH   1  16
ATOM     16  C   UNL     1       5.713   6.201  16.514  0.00  0.00    +0.000 C 
BRANCH  16  21
ATOM     17  F   UNL     1       8.836   9.361  18.044  0.00  0.00    +0.000 F 
ATOM     18  C   UNL     1       8.139   8.260  17.969  0.00  0.00    +0.000 A 
ATOM     19  C   UNL     1       8.352   7.149  18.797  0.00  0.00    +0.000 A 
ATOM     20  C   UNL     1       7.422   6.226  18.376  0.00  0.00    +0.000 A 
ATOM     21  N   UNL     1       6.727   6.825  17.356  0.00  0.00    +0.000 N 
ATOM     22  N   UNL     1       7.169   8.070  17.076  0.00  0.00    +0.000 NA
ENDBRANCH  16  21
ENDBRANCH   1  16
TORSDOF 3
ENDMDL
MODEL 4
REMARK VINA RESULT:      -8.0      0.954      1.186
REMARK  Name = 
REMARK  3 active torsions:
REMARK  status: ('A' for Active; 'I' for Inactive)
REMARK    1  A    between atoms: N_5  and  C_6
REMARK    2  A    between atoms: C_6  and  C_7
REMARK    3  A    between atoms: C_15  and  C_16
REMARK                            x       y       z     vdW  Elec       q    Type
REMARK                         _______ _______ _______ _____ _____    ______ ____
ROOT
ATOM      1  C   UNL     1       5.349   5.125  16.822  0.00  0.00    +0.000 A 
ATOM      2  C   UNL     1       5.258   6.523  16.944  0.00  0.00    +0.000 A 
ATOM      3  C   UNL     1       4.105   7.139  17.457  0.00  0.00    +0.000 A 
ATOM      4  C   UNL     1       3.009   6.377  17.857  0.00  0.00    +0.000 A 
ATOM      5  C   UNL     1       3.090   4.999  17.731  0.00  0.00    +0.000 A 
ATOM      6  C   UNL     1       4.241   4.378  17.216  0.00  0.00    +0.000 A 
ATOM      7  C   UNL     1       4.073   2.884  17.241  0.00  0.00    +0.000 C 
ATOM      8  C   UNL     1       2.546   2.753  17.332  0.00  0.00    +0.000 C 
ATOM      9  C   UNL     1       2.046   3.980  18.120  0.00  0.00    +0.000 C 
ENDROOT
BRANCH   9  10
ATOM     10  C   UNL     1       1.971   3.704  19.593  0.00  0.00    +0.000 A 
ATOM     11  N   UNL     1       2.656   4.324  20.536  0.00  0.00    +0.000 NA
ATOM     12  C   UNL     1       2.263   3.758  21.721  0.00  0.00    +0.000 A 
ATOM     13  C   UNL     1       1.325   2.780  21.504  0.00  0.00    +0.000 A 
ATOM     14  N   UNL     1       1.145   2.755  20.150  0.00  0.00    +0.000 N 
ATOM     15  H   UNL     1       0.523   2.146  19.635  0.00  0.00    +0.000 HD
ENDBRANCH   9  10
BRANCH   1  16
ATOM     16  C   UNL     1       6.598   4.483  16.275  0.00  0.00    +0.000 C 
BRANCH  16  21
ATOM     17  F   UNL     1       5.593   2.995  11.934  0.00  0.00    +0.000 F 
ATOM     18  C   UNL     1       6.138   3.680  12.901  0.00  0.00    +0.000 A 
ATOM     19  C   UNL     1       7.152   4.628  12.705  0.00  0.00    +0.000 A 
ATOM     20  C   UNL     1       7.435   5.092  13.970  0.00  0.00    +0.000 A 
ATOM     21  N   UNL     1       6.595   4.418  14.819  0.00  0.00    +0.000 N 
ATOM     22  N   UNL     1       5.803   3.528  14.182  0.00  0.00    +0.000 NA
ENDBRANCH  16  21
ENDBRANCH   1  16
TORSDOF 3
ENDMDL
MODEL 5
REMARK VINA RESULT:      -7.6      2.839      6.364
REMARK  Name = 
REMARK  3 active torsions:
REMARK  status: ('A' for Active; 'I' for Inactive)
REMARK    1  A    between atoms: N_5  and  C_6
REMARK    2  A    between atoms: C_6  and  C_7
REMARK    3  A    between atoms: C_15  and  C_16
REMARK                            x       y       z     vdW  Elec       q    Type
REMARK                         _______ _______ _______ _____ _____    ______ ____
ROOT
ATOM      1  C   UNL     1       3.334   6.026  19.219  0.00  0.00    +0.000 A 
ATOM      2  C   UNL     1       2.522   7.056  18.712  0.00  0.00    +0.000 A 
ATOM      3  C   UNL     1       2.958   7.882  17.662  0.00  0.00    +0.000 A 
ATOM      4  C   UNL     1       4.218   7.706  17.096  0.00  0.00    +0.000 A 
ATOM      5  C   UNL     1       5.026   6.698  17.597  0.00  0.00    +0.000 A 
ATOM      6  C   UNL     1       4.595   5.870  18.648  0.00  0.00    +0.000 A 
ATOM      7  C   UNL     1       5.646   4.839  18.952  0.00  0.00    +0.000 C 
ATOM      8  C   UNL     1       6.894   5.487  18.334  0.00  0.00    +0.000 C 
ATOM      9  C   UNL     1       6.408   6.311  17.126  0.00  0.00    +0.000 C 
ENDROOT
BRANCH   9  10
ATOM     10  C   UNL     1       6.425   5.507  15.859  0.00  0.00    +0.000 A 
ATOM     11  N   UNL     1       7.448   5.376  15.036  0.00  0.00    +0.000 NA
ATOM     12  C   UNL     1       7.019   4.551  14.030  0.00  0.00    +0.000 A 
ATOM     13  C   UNL     1       5.717   4.169  14.237  0.00  0.00    +0.000 A 
ATOM     14  N   UNL     1       5.350   4.780  15.402  0.00  0.00    +0.000 N 
ATOM     15  H   UNL     1       4.447   4.723  15.856  0.00  0.00    +0.000 HD
ENDBRANCH   9  10
BRANCH   1  16
ATOM     16  C   UNL     1       2.845   5.146  20.340  0.00  0.00    +0.000 C 
BRANCH  16  21
ATOM     17  F   UNL     1       0.024   1.929  18.403  0.00  0.00    +0.000 F 
ATOM     18  C   UNL     1       1.047   2.452  19.020  0.00  0.00    +0.000 A 
ATOM     19  C   UNL     1       2.082   1.694  19.586  0.00  0.00    +0.000 A 
ATOM     20  C   UNL     1       2.931   2.629  20.133  0.00  0.00    +0.000 A 
ATOM     21  N   UNL     1       2.372   3.852  19.864  0.00  0.00    +0.000 N 
ATOM     22  N   UNL     1       1.200   3.763  19.198  0.00  0.00    +0.000 NA
ENDBRANCH  16  21
ENDBRANCH   1  16
TORSDOF 3
ENDMDL
MODEL 6
REMARK VINA RESULT:      -7.5      2.680      6.602
REMARK  Name = 
REMARK  3 active torsions:
REMARK  status: ('A' for Active; 'I' for Inactive)
REMARK    1  A    between atoms: N_5  and  C_6
REMARK    2  A    between atoms: C_6  and  C_7
REMARK    3  A    between atoms: C_15  and  C_16
REMARK                            x       y       z     vdW  Elec       q    Type
REMARK                         _______ _______ _______ _____ _____    ______ ____
ROOT
ATOM      1  C   UNL     1       4.062   5.538  19.097  0.00  0.00    +0.000 A 
ATOM      2  C   UNL     1       3.122   6.517  18.728  0.00  0.00    +0.000 A 
ATOM      3  C   UNL     1       3.350   7.376  17.639  0.00  0.00    +0.000 A 
ATOM      4  C   UNL     1       4.525   7.285  16.896  0.00  0.00    +0.000 A 
ATOM      5  C   UNL     1       5.458   6.328  17.262  0.00  0.00    +0.000 A 
ATOM      6  C   UNL     1       5.235   5.467  18.351  0.00  0.00    +0.000 A 
ATOM      7  C   UNL     1       6.382   4.504  18.486  0.00  0.00    +0.000 C 
ATOM      8  C   UNL     1       7.484   5.234  17.706  0.00  0.00    +0.000 C 
ATOM      9  C   UNL     1       6.779   6.033  16.592  0.00  0.00    +0.000 C 
ENDROOT
BRANCH   9  10
ATOM     10  C   UNL     1       6.665   5.239  15.324  0.00  0.00    +0.000 A 
ATOM     11  N   UNL     1       5.716   4.368  15.035  0.00  0.00    +0.000 NA
ATOM     12  C   UNL     1       6.005   3.899  13.780  0.00  0.00    +0.000 A 
ATOM     13  C   UNL     1       7.143   4.490  13.291  0.00  0.00    +0.000 A 
ATOM     14  N   UNL     1       7.553   5.341  14.278  0.00  0.00    +0.000 N 
ATOM     15  H   UNL     1       8.369   5.939  14.260  0.00  0.00    +0.000 HD
ENDBRANCH   9  10
BRANCH   1  16
ATOM     16  C   UNL     1       3.795   4.622  20.264  0.00  0.00    +0.000 C 
BRANCH  16  21
ATOM     17  F   UNL     1       0.617   1.733  18.361  0.00  0.00    +0.000 F 
ATOM     18  C   UNL     1       1.162   2.590  19.179  0.00  0.00    +0.000 A 
ATOM     19  C   UNL     1       0.477   3.185  20.249  0.00  0.00    +0.000 A 
ATOM     20  C   UNL     1       1.409   4.014  20.832  0.00  0.00    +0.000 A 
ATOM     21  N   UNL     1       2.560   3.864  20.102  0.00  0.00    +0.000 N 
ATOM     22  N   UNL     1       2.421   3.007  19.067  0.00  0.00    +0.000 NA
ENDBRANCH  16  21
ENDBRANCH   1  16
TORSDOF 3
ENDMDL
MODEL 7
REMARK VINA RESULT:      -7.3      2.564      6.192
REMARK  Name = 
REMARK  3 active torsions:
REMARK  status: ('A' for Active; 'I' for Inactive)
REMARK    1  A    between atoms: N_5  and  C_6
REMARK    2  A    between atoms: C_6  and  C_7
REMARK    3  A    between atoms: C_15  and  C_16
REMARK                            x       y       z     vdW  Elec       q    Type
REMARK                         _______ _______ _______ _____ _____    ______ ____
ROOT
ATOM      1  C   UNL     1       3.360   5.977  19.207  0.00  0.00    +0.000 A 
ATOM      2  C   UNL     1       2.513   6.982  18.704  0.00  0.00    +0.000 A 
ATOM      3  C   UNL     1       2.922   7.825  17.658  0.00  0.00    +0.000 A 
ATOM      4  C   UNL     1       4.187   7.694  17.090  0.00  0.00    +0.000 A 
ATOM      5  C   UNL     1       5.028   6.711  17.588  0.00  0.00    +0.000 A 
ATOM      6  C   UNL     1       4.625   5.866  18.636  0.00  0.00    +0.000 A 
ATOM      7  C   UNL     1       5.710   4.869  18.936  0.00  0.00    +0.000 C 
ATOM      8  C   UNL     1       6.935   5.560  18.320  0.00  0.00    +0.000 C 
ATOM      9  C   UNL     1       6.421   6.372  17.114  0.00  0.00    +0.000 C 
ENDROOT
BRANCH   9  10
ATOM     10  C   UNL     1       6.465   5.573  15.845  0.00  0.00    +0.000 A 
ATOM     11  N   UNL     1       7.472   5.522  14.993  0.00  0.00    +0.000 NA
ATOM     12  C   UNL     1       7.079   4.667  13.996  0.00  0.00    +0.000 A 
ATOM     13  C   UNL     1       5.817   4.187  14.238  0.00  0.00    +0.000 A 
ATOM     14  N   UNL     1       5.436   4.766  15.415  0.00  0.00    +0.000 N 
ATOM     15  H   UNL     1       4.554   4.640  15.894  0.00  0.00    +0.000 HD
ENDBRANCH   9  10
BRANCH   1  16
ATOM     16  C   UNL     1       2.901   5.078  20.326  0.00  0.00    +0.000 C 
BRANCH  16  21
ATOM     17  F   UNL     1       3.063   0.693  18.648  0.00  0.00    +0.000 F 
ATOM     18  C   UNL     1       2.580   1.835  19.054  0.00  0.00    +0.000 A 
ATOM     19  C   UNL     1       1.221   2.173  18.979  0.00  0.00    +0.000 A 
ATOM     20  C   UNL     1       1.158   3.447  19.496  0.00  0.00    +0.000 A 
ATOM     21  N   UNL     1       2.442   3.781  19.842  0.00  0.00    +0.000 N 
ATOM     22  N   UNL     1       3.336   2.809  19.557  0.00  0.00    +0.000 NA
ENDBRANCH  16  21
ENDBRANCH   1  16
TORSDOF 3
ENDMDL
MODEL 8
REMARK VINA RESULT:      -7.2      1.329      1.614
REMARK  Name = 
REMARK  3 active torsions:
REMARK  status: ('A' for Active; 'I' for Inactive)
REMARK    1  A    between atoms: N_5  and  C_6
REMARK    2  A    between atoms: C_6  and  C_7
REMARK    3  A    between atoms: C_15  and  C_16
REMARK                            x       y       z     vdW  Elec       q    Type
REMARK                         _______ _______ _______ _____ _____    ______ ____
ROOT
ATOM      1  C   UNL     1       4.470   6.222  17.332  0.00  0.00    +0.000 A 
ATOM      2  C   UNL     1       3.789   7.430  17.564  0.00  0.00    +0.000 A 
ATOM      3  C   UNL     1       2.469   7.444  18.045  0.00  0.00    +0.000 A 
ATOM      4  C   UNL     1       1.792   6.253  18.300  0.00  0.00    +0.000 A 
ATOM      5  C   UNL     1       2.456   5.060  18.065  0.00  0.00    +0.000 A 
ATOM      6  C   UNL     1       3.776   5.040  17.582  0.00  0.00    +0.000 A 
ATOM      7  C   UNL     1       4.259   3.621  17.468  0.00  0.00    +0.000 C 
ATOM      8  C   UNL     1       2.932   2.851  17.439  0.00  0.00    +0.000 C 
ATOM      9  C   UNL     1       1.935   3.661  18.291  0.00  0.00    +0.000 C 
ENDROOT
BRANCH   9  10
ATOM     10  C   UNL     1       1.943   3.223  19.726  0.00  0.00    +0.000 A 
ATOM     11  N   UNL     1       3.003   2.845  20.416  0.00  0.00    +0.000 NA
ATOM     12  C   UNL     1       2.546   2.548  21.674  0.00  0.00    +0.000 A 
ATOM     13  C   UNL     1       1.191   2.748  21.759  0.00  0.00    +0.000 A 
ATOM     14  N   UNL     1       0.818   3.179  20.517  0.00  0.00    +0.000 N 
ATOM     15  H   UNL     1      -0.118   3.418  20.216  0.00  0.00    +0.000 HD
ENDBRANCH   9  10
BRANCH   1  16
ATOM     16  C   UNL     1       5.888   6.229  16.822  0.00  0.00    +0.000 C 
BRANCH  16  21
ATOM     17  F   UNL     1       4.800   3.973  12.847  0.00  0.00    +0.000 F 
ATOM     18  C   UNL     1       5.492   4.392  13.871  0.00  0.00    +0.000 A 
ATOM     19  C   UNL     1       6.791   3.951  14.162  0.00  0.00    +0.000 A 
ATOM     20  C   UNL     1       7.131   4.629  15.312  0.00  0.00    +0.000 A 
ATOM     21  N   UNL     1       6.050   5.413  15.624  0.00  0.00    +0.000 N 
ATOM     22  N   UNL     1       5.022   5.265  14.760  0.00  0.00    +0.000 NA
ENDBRANCH  16  21
ENDBRANCH   1  16
TORSDOF 3
ENDMDL
MODEL 9
REMARK VINA RESULT:      -7.2      2.314      2.936
REMARK  Name = 
REMARK  3 active torsions:
REMARK  status: ('A' for Active; 'I' for Inactive)
REMARK    1  A    between atoms: N_5  and  C_6
REMARK    2  A    between atoms: C_6  and  C_7
REMARK    3  A    between atoms: C_15  and  C_16
REMARK                            x       y       z     vdW  Elec       q    Type
REMARK                         _______ _______ _______ _____ _____    ______ ____
ROOT
ATOM      1  C   UNL     1       4.221   6.356  17.037  0.00  0.00    +0.000 A 
ATOM      2  C   UNL     1       3.676   7.594  17.421  0.00  0.00    +0.000 A 
ATOM      3  C   UNL     1       2.445   7.675  18.093  0.00  0.00    +0.000 A 
ATOM      4  C   UNL     1       1.722   6.523  18.393  0.00  0.00    +0.000 A 
ATOM      5  C   UNL     1       2.250   5.300  18.009  0.00  0.00    +0.000 A 
ATOM      6  C   UNL     1       3.480   5.214  17.335  0.00  0.00    +0.000 A 
ATOM      7  C   UNL     1       3.830   3.773  17.089  0.00  0.00    +0.000 C 
ATOM      8  C   UNL     1       2.457   3.101  17.223  0.00  0.00    +0.000 C 
ATOM      9  C   UNL     1       1.659   3.931  18.248  0.00  0.00    +0.000 C 
ENDROOT
BRANCH   9  10
ATOM     10  C   UNL     1       1.841   3.416  19.646  0.00  0.00    +0.000 A 
ATOM     11  N   UNL     1       0.910   3.355  20.579  0.00  0.00    +0.000 NA
ATOM     12  C   UNL     1       1.516   2.811  21.681  0.00  0.00    +0.000 A 
ATOM     13  C   UNL     1       2.835   2.533  21.422  0.00  0.00    +0.000 A 
ATOM     14  N   UNL     1       3.031   2.919  20.127  0.00  0.00    +0.000 N 
ATOM     15  H   UNL     1       3.895   2.863  19.603  0.00  0.00    +0.000 HD
ENDBRANCH   9  10
BRANCH   1  16
ATOM     16  C   UNL     1       5.547   6.290  16.324  0.00  0.00    +0.000 C 
BRANCH  16  21
ATOM     17  F   UNL     1       9.038   3.770  18.201  0.00  0.00    +0.000 F 
ATOM     18  C   UNL     1       8.166   4.725  18.035  0.00  0.00    +0.000 A 
ATOM     19  C   UNL     1       7.973   5.768  18.953  0.00  0.00    +0.000 A 
ATOM     20  C   UNL     1       6.970   6.530  18.398  0.00  0.00    +0.000 A 
ATOM     21  N   UNL     1       6.638   5.919  17.216  0.00  0.00    +0.000 N 
ATOM     22  N   UNL     1       7.349   4.793  16.985  0.00  0.00    +0.000 NA
ENDBRANCH  16  21
ENDBRANCH   1  16
TORSDOF 3
ENDMDL
