MODEL 1
REMARK VINA RESULT:      -6.5      0.000      0.000
REMARK  Name = 
REMARK  9 active torsions:
REMARK  status: ('A' for Active; 'I' for Inactive)
REMARK    1  A    between atoms: C_1  and  O_2
REMARK    2  A    between atoms: O_2  and  C_3
REMARK    3  A    between atoms: C_6  and  C_7
REMARK    4  A    between atoms: C_7  and  C_8
REMARK    5  A    between atoms: C_8  and  C_9
REMARK    6  A    between atoms: C_9  and  O_11
REMARK    7  A    between atoms: O_11  and  C_12
REMARK    8  A    between atoms: C_12  and  C_13
REMARK    9  A    between atoms: C_12  and  C_14
REMARK                            x       y       z     vdW  Elec       q    Type
REMARK                         _______ _______ _______ _____ _____    ______ ____
ROOT
ATOM      1  C   UNL     1       1.910   2.946  19.244  0.00  0.00    +0.000 A 
ATOM      2  C   UNL     1       1.715   4.173  18.611  0.00  0.00    +0.000 A 
ATOM      3  C   UNL     1       2.589   4.604  17.609  0.00  0.00    +0.000 A 
ATOM      4  C   UNL     1       3.696   3.824  17.247  0.00  0.00    +0.000 A 
ATOM      5  C   UNL     1       3.888   2.596  17.892  0.00  0.00    +0.000 A 
ATOM      6  C   UNL     1       3.003   2.159  18.883  0.00  0.00    +0.000 A 
ENDROOT
BRANCH   1   8
ATOM      7  C   UNL     1       1.475   2.724  21.556  0.00  0.00    +0.000 C 
ATOM      8  O   UNL     1       1.001   2.637  20.218  0.00  0.00    +0.000 OA
ENDBRANCH   1   8
BRANCH   4   9
ATOM      9  C   UNL     1       4.646   4.279  16.167  0.00  0.00    +0.000 C 
BRANCH   9  10
ATOM     10  C   UNL     1       5.484   5.492  16.572  0.00  0.00    +0.000 C 
BRANCH  10  11
ATOM     11  C   UNL     1       6.899   5.361  16.068  0.00  0.00    +0.000 C 
ATOM     12  O   UNL     1       7.331   4.416  15.420  0.00  0.00    +0.000 OA
BRANCH  11  13
ATOM     13  O   UNL     1       7.625   6.452  16.443  0.00  0.00    +0.000 OA
BRANCH  13  14
ATOM     14  C   UNL     1       7.262   7.044  17.706  0.00  0.00    +0.000 C 
ATOM     15  C   UNL     1       7.868   6.238  18.851  0.00  0.00    +0.000 C 
ATOM     16  C   UNL     1       7.804   8.470  17.715  0.00  0.00    +0.000 C 
ENDBRANCH  13  14
ENDBRANCH  11  13
ENDBRANCH  10  11
ENDBRANCH   9  10
ENDBRANCH   4   9
TORSDOF 6
ENDMDL
MODEL 2
REMARK VINA RESULT:      -6.5      1.495      5.979
REMARK  Name = 
REMARK  9 active torsions:
REMARK  status: ('A' for Active; 'I' for Inactive)
REMARK    1  A    between atoms: C_1  and  O_2
REMARK    2  A    between atoms: O_2  and  C_3
REMARK    3  A    between atoms: C_6  and  C_7
REMARK    4  A    between atoms: C_7  and  C_8
REMARK    5  A    between atoms: C_8  and  C_9
REMARK    6  A    between atoms: C_9  and  O_11
REMARK    7  A    between atoms: O_11  and  C_12
REMARK    8  A    between atoms: C_12  and  C_13
REMARK    9  A    between atoms: C_12  and  C_14
REMARK                            x       y       z     vdW  Elec       q    Type
REMARK                         _______ _______ _______ _____ _____    ______ ____
ROOT
ATOM      1  C   UNL     1       6.755   6.211  16.710  0.00  0.00    +0.000 A 
ATOM      2  C   UNL     1       5.521   6.710  17.124  0.00  0.00    +0.000 A 
ATOM      3  C   UNL     1       4.424   5.858  17.278  0.00  0.00    +0.000 A 
ATOM      4  C   UNL     1       4.538   4.492  16.986  0.00  0.00    +0.000 A 
ATOM      5  C   UNL     1       5.779   4.000  16.565  0.00  0.00    +0.000 A 
ATOM      6  C   UNL     1       6.880   4.852  16.428  0.00  0.00    +0.000 A 
ENDROOT
BRANCH   1   8
ATOM      7  C   UNL     1       7.834   8.105  17.624  0.00  0.00    +0.000 C 
ATOM      8  O   UNL     1       7.751   7.140  16.581  0.00  0.00    +0.000 OA
ENDBRANCH   1   8
BRANCH   4   9
ATOM      9  C   UNL     1       3.360   3.562  17.148  0.00  0.00    +0.000 C 
BRANCH   9  10
ATOM     10  C   UNL     1       3.695   2.296  17.937  0.00  0.00    +0.000 C 
BRANCH  10  11
ATOM     11  C   UNL     1       4.021   2.626  19.372  0.00  0.00    +0.000 C 
ATOM     12  O   UNL     1       4.967   2.171  20.001  0.00  0.00    +0.000 OA
BRANCH  11  13
ATOM     13  O   UNL     1       3.105   3.507  19.861  0.00  0.00    +0.000 OA
BRANCH  13  14
ATOM     14  C   UNL     1       1.869   2.933  20.332  0.00  0.00    +0.000 C 
ATOM     15  C   UNL     1       1.989   2.585  21.812  0.00  0.00    +0.000 C 
ATOM     16  C   UNL     1       0.771   3.970  20.117  0.00  0.00    +0.000 C 
ENDBRANCH  13  14
ENDBRANCH  11  13
ENDBRANCH  10  11
ENDBRANCH   9  10
ENDBRANCH   4   9
TORSDOF 6
ENDMDL
MODEL 3
REMARK VINA RESULT:      -6.4      0.813      1.157
REMARK  Name = 
REMARK  9 active torsions:
REMARK  status: ('A' for Active; 'I' for Inactive)
REMARK    1  A    between atoms: C_1  and  O_2
REMARK    2  A    between atoms: O_2  and  C_3
REMARK    3  A    between atoms: C_6  and  C_7
REMARK    4  A    between atoms: C_7  and  C_8
REMARK    5  A    between atoms: C_8  and  C_9
REMARK    6  A    between atoms: C_9  and  O_11
REMARK    7  A    between atoms: O_11  and  C_12
REMARK    8  A    between atoms: C_12  and  C_13
REMARK    9  A    between atoms: C_12  and  C_14
REMARK                            x       y       z     vdW  Elec       q    Type
REMARK                         _______ _______ _______ _____ _____    ______ ____
ROOT
ATOM      1  C   UNL     1       2.224   2.827  19.483  0.00  0.00    +0.000 A 
ATOM      2  C   UNL     1       3.569   3.089  19.741  0.00  0.00    +0.000 A 
ATOM      3  C   UNL     1       4.429   3.473  18.709  0.00  0.00    +0.000 A 
ATOM      4  C   UNL     1       3.961   3.569  17.391  0.00  0.00    +0.000 A 
ATOM      5  C   UNL     1       2.611   3.298  17.141  0.00  0.00    +0.000 A 
ATOM      6  C   UNL     1       1.748   2.930  18.178  0.00  0.00    +0.000 A 
ENDROOT
BRANCH   1   8
ATOM      7  C   UNL     1       1.956   2.898  21.831  0.00  0.00    +0.000 C 
ATOM      8  O   UNL     1       1.482   2.445  20.568  0.00  0.00    +0.000 OA
ENDBRANCH   1   8
BRANCH   4   9
ATOM      9  C   UNL     1       4.880   3.983  16.269  0.00  0.00    +0.000 C 
BRANCH   9  10
ATOM     10  C   UNL     1       5.397   5.416  16.409  0.00  0.00    +0.000 C 
BRANCH  10  11
ATOM     11  C   UNL     1       6.651   5.617  15.596  0.00  0.00    +0.000 C 
ATOM     12  O   UNL     1       6.763   5.369  14.403  0.00  0.00    +0.000 OA
BRANCH  11  13
ATOM     13  O   UNL     1       7.640   6.117  16.389  0.00  0.00    +0.000 OA
BRANCH  13  14
ATOM     14  C   UNL     1       7.209   6.723  17.624  0.00  0.00    +0.000 C 
ATOM     15  C   UNL     1       7.759   5.935  18.809  0.00  0.00    +0.000 C 
ATOM     16  C   UNL     1       7.742   8.152  17.643  0.00  0.00    +0.000 C 
ENDBRANCH  13  14
ENDBRANCH  11  13
ENDBRANCH  10  11
ENDBRANCH   9  10
ENDBRANCH   4   9
TORSDOF 6
ENDMDL
MODEL 4
REMARK VINA RESULT:      -6.3      1.243      1.639
REMARK  Name = 
REMARK  9 active torsions:
REMARK  status: ('A' for Active; 'I' for Inactive)
REMARK    1  A    between atoms: C_1  and  O_2
REMARK    2  A    between atoms: O_2  and  C_3
REMARK    3  A    between atoms: C_6  and  C_7
REMARK    4  A    between atoms: C_7  and  C_8
REMARK    5  A    between atoms: C_8  and  C_9
REMARK    6  A    between atoms: C_9  and  O_11
REMARK    7  A    between atoms: O_11  and  C_12
REMARK    8  A    between atoms: C_12  and  C_13
REMARK    9  A    between atoms: C_12  and  C_14
REMARK                            x       y       z     vdW  Elec       q    Type
REMARK                         _______ _______ _______ _____ _____    ______ ____
ROOT
ATOM      1  C   UNL     1       2.093   3.759  19.348  0.00  0.00    +0.000 A 
ATOM      2  C   UNL     1       3.419   3.876  19.760  0.00  0.00    +0.000 A 
ATOM      3  C   UNL     1       4.455   3.916  18.823  0.00  0.00    +0.000 A 
ATOM      4  C   UNL     1       4.179   3.805  17.453  0.00  0.00    +0.000 A 
ATOM      5  C   UNL     1       2.845   3.681  17.048  0.00  0.00    +0.000 A 
ATOM      6  C   UNL     1       1.809   3.658  17.987  0.00  0.00    +0.000 A 
ENDROOT
BRANCH   1   8
ATOM      7  C   UNL     1       1.463   2.830  21.428  0.00  0.00    +0.000 C 
ATOM      8  O   UNL     1       1.167   3.716  20.354  0.00  0.00    +0.000 OA
ENDBRANCH   1   8
BRANCH   4   9
ATOM      9  C   UNL     1       5.289   3.846  16.431  0.00  0.00    +0.000 C 
BRANCH   9  10
ATOM     10  C   UNL     1       5.178   5.027  15.467  0.00  0.00    +0.000 C 
BRANCH  10  11
ATOM     11  C   UNL     1       5.359   6.336  16.196  0.00  0.00    +0.000 C 
ATOM     12  O   UNL     1       4.454   7.097  16.510  0.00  0.00    +0.000 OA
BRANCH  11  13
ATOM     13  O   UNL     1       6.681   6.541  16.452  0.00  0.00    +0.000 OA
BRANCH  13  14
ATOM     14  C   UNL     1       7.004   6.973  17.789  0.00  0.00    +0.000 C 
ATOM     15  C   UNL     1       7.690   5.841  18.548  0.00  0.00    +0.000 C 
ATOM     16  C   UNL     1       7.935   8.174  17.670  0.00  0.00    +0.000 C 
ENDBRANCH  13  14
ENDBRANCH  11  13
ENDBRANCH  10  11
ENDBRANCH   9  10
ENDBRANCH   4   9
TORSDOF 6
ENDMDL
MODEL 5
REMARK VINA RESULT:      -6.2      0.836      1.117
REMARK  Name = 
REMARK  9 active torsions:
REMARK  status: ('A' for Active; 'I' for Inactive)
REMARK    1  A    between atoms: C_1  and  O_2
REMARK    2  A    between atoms: O_2  and  C_3
REMARK    3  A    between atoms: C_6  and  C_7
REMARK    4  A    between atoms: C_7  and  C_8
REMARK    5  A    between atoms: C_8  and  C_9
REMARK    6  A    between atoms: C_9  and  O_11
REMARK    7  A    between atoms: O_11  and  C_12
REMARK    8  A    between atoms: C_12  and  C_13
REMARK    9  A    between atoms: C_12  and  C_14
REMARK                            x       y       z     vdW  Elec       q    Type
REMARK                         _______ _______ _______ _____ _____    ______ ____
ROOT
ATOM      1  C   UNL     1       2.798   2.811  19.585  0.00  0.00    +0.000 A 
ATOM      2  C   UNL     1       2.593   2.226  18.336  0.00  0.00    +0.000 A 
ATOM      3  C   UNL     1       3.215   2.743  17.197  0.00  0.00    +0.000 A 
ATOM      4  C   UNL     1       4.028   3.882  17.286  0.00  0.00    +0.000 A 
ATOM      5  C   UNL     1       4.223   4.467  18.542  0.00  0.00    +0.000 A 
ATOM      6  C   UNL     1       3.614   3.937  19.684  0.00  0.00    +0.000 A 
ENDROOT
BRANCH   1   8
ATOM      7  C   UNL     1       1.489   3.120  21.528  0.00  0.00    +0.000 C 
ATOM      8  O   UNL     1       2.127   2.226  20.624  0.00  0.00    +0.000 OA
ENDBRANCH   1   8
BRANCH   4   9
ATOM      9  C   UNL     1       4.704   4.450  16.062  0.00  0.00    +0.000 C 
BRANCH   9  10
ATOM     10  C   UNL     1       5.516   5.713  16.354  0.00  0.00    +0.000 C 
BRANCH  10  11
ATOM     11  C   UNL     1       6.962   5.524  15.968  0.00  0.00    +0.000 C 
ATOM     12  O   UNL     1       7.409   4.555  15.369  0.00  0.00    +0.000 OA
BRANCH  11  13
ATOM     13  O   UNL     1       7.694   6.595  16.386  0.00  0.00    +0.000 OA
BRANCH  13  14
ATOM     14  C   UNL     1       7.316   7.157  17.658  0.00  0.00    +0.000 C 
ATOM     15  C   UNL     1       7.913   6.328  18.791  0.00  0.00    +0.000 C 
ATOM     16  C   UNL     1       7.851   8.585  17.705  0.00  0.00    +0.000 C 
ENDBRANCH  13  14
ENDBRANCH  11  13
ENDBRANCH  10  11
ENDBRANCH   9  10
ENDBRANCH   4   9
TORSDOF 6
ENDMDL
MODEL 6
REMARK VINA RESULT:      -6.2      1.596      2.667
REMARK  Name = 
REMARK  9 active torsions:
REMARK  status: ('A' for Active; 'I' for Inactive)
REMARK    1  A    between atoms: C_1  and  O_2
REMARK    2  A    between atoms: O_2  and  C_3
REMARK    3  A    between atoms: C_6  and  C_7
REMARK    4  A    between atoms: C_7  and  C_8
REMARK    5  A    between atoms: C_8  and  C_9
REMARK    6  A    between atoms: C_9  and  O_11
REMARK    7  A    between atoms: O_11  and  C_12
REMARK    8  A    between atoms: C_12  and  C_13
REMARK    9  A    between atoms: C_12  and  C_14
REMARK                            x       y       z     vdW  Elec       q    Type
REMARK                         _______ _______ _______ _____ _____    ______ ____
ROOT
ATOM      1  C   UNL     1       2.115   4.121  19.501  0.00  0.00    +0.000 A 
ATOM      2  C   UNL     1       2.845   5.159  20.078  0.00  0.00    +0.000 A 
ATOM      3  C   UNL     1       3.744   5.908  19.313  0.00  0.00    +0.000 A 
ATOM      4  C   UNL     1       3.951   5.603  17.960  0.00  0.00    +0.000 A 
ATOM      5  C   UNL     1       3.219   4.555  17.392  0.00  0.00    +0.000 A 
ATOM      6  C   UNL     1       2.308   3.818  18.155  0.00  0.00    +0.000 A 
ENDROOT
BRANCH   1   8
ATOM      7  C   UNL     1       1.850   3.039  21.586  0.00  0.00    +0.000 C 
ATOM      8  O   UNL     1       1.277   3.451  20.351  0.00  0.00    +0.000 OA
ENDBRANCH   1   8
BRANCH   4   9
ATOM      9  C   UNL     1       4.920   6.404  17.124  0.00  0.00    +0.000 C 
BRANCH   9  10
ATOM     10  C   UNL     1       6.356   6.347  17.645  0.00  0.00    +0.000 C 
BRANCH  10  11
ATOM     11  C   UNL     1       7.187   5.390  16.828  0.00  0.00    +0.000 C 
ATOM     12  O   UNL     1       7.784   4.419  17.274  0.00  0.00    +0.000 OA
BRANCH  11  13
ATOM     13  O   UNL     1       7.173   5.769  15.519  0.00  0.00    +0.000 OA
BRANCH  13  14
ATOM     14  C   UNL     1       7.118   4.699  14.554  0.00  0.00    +0.000 C 
ATOM     15  C   UNL     1       5.672   4.264  14.343  0.00  0.00    +0.000 C 
ATOM     16  C   UNL     1       7.711   5.226  13.252  0.00  0.00    +0.000 C 
ENDBRANCH  13  14
ENDBRANCH  11  13
ENDBRANCH  10  11
ENDBRANCH   9  10
ENDBRANCH   4   9
TORSDOF 6
ENDMDL
MODEL 7
REMARK VINA RESULT:      -6.2      1.488      6.019
REMARK  Name = 
REMARK  9 active torsions:
REMARK  status: ('A' for Active; 'I' for Inactive)
REMARK    1  A    between atoms: C_1  and  O_2
REMARK    2  A    between atoms: O_2  and  C_3
REMARK    3  A    between atoms: C_6  and  C_7
REMARK    4  A    between atoms: C_7  and  C_8
REMARK    5  A    between atoms: C_8  and  C_9
REMARK    6  A    between atoms: C_9  and  O_11
REMARK    7  A    between atoms: O_11  and  C_12
REMARK    8  A    between atoms: C_12  and  C_13
REMARK    9  A    between atoms: C_12  and  C_14
REMARK                            x       y       z     vdW  Elec       q    Type
REMARK                         _______ _______ _______ _____ _____    ______ ____
ROOT
ATOM      1  C   UNL     1       6.499   5.547  16.877  0.00  0.00    +0.000 A 
ATOM      2  C   UNL     1       6.369   5.330  18.248  0.00  0.00    +0.000 A 
ATOM      3  C   UNL     1       5.498   4.352  18.735  0.00  0.00    +0.000 A 
ATOM      4  C   UNL     1       4.714   3.595  17.852  0.00  0.00    +0.000 A 
ATOM      5  C   UNL     1       4.846   3.824  16.478  0.00  0.00    +0.000 A 
ATOM      6  C   UNL     1       5.731   4.792  15.993  0.00  0.00    +0.000 A 
ENDROOT
BRANCH   1   8
ATOM      7  C   UNL     1       7.612   7.534  17.509  0.00  0.00    +0.000 C 
ATOM      8  O   UNL     1       7.370   6.540  16.521  0.00  0.00    +0.000 OA
ENDBRANCH   1   8
BRANCH   4   9
ATOM      9  C   UNL     1       3.770   2.536  18.365  0.00  0.00    +0.000 C 
BRANCH   9  10
ATOM     10  C   UNL     1       2.428   2.517  17.632  0.00  0.00    +0.000 C 
BRANCH  10  11
ATOM     11  C   UNL     1       1.315   2.989  18.534  0.00  0.00    +0.000 C 
ATOM     12  O   UNL     1       0.277   2.379  18.748  0.00  0.00    +0.000 OA
BRANCH  11  13
ATOM     13  O   UNL     1       1.642   4.196  19.076  0.00  0.00    +0.000 OA
BRANCH  13  14
ATOM     14  C   UNL     1       1.245   4.398  20.447  0.00  0.00    +0.000 C 
ATOM     15  C   UNL     1       2.049   3.481  21.362  0.00  0.00    +0.000 C 
ATOM     16  C   UNL     1       1.513   5.860  20.790  0.00  0.00    +0.000 C 
ENDBRANCH  13  14
ENDBRANCH  11  13
ENDBRANCH  10  11
ENDBRANCH   9  10
ENDBRANCH   4   9
TORSDOF 6
ENDMDL
MODEL 8
REMARK VINA RESULT:      -6.2      1.142      1.895
REMARK  Name = 
REMARK  9 active torsions:
REMARK  status: ('A' for Active; 'I' for Inactive)
REMARK    1  A    between atoms: C_1  and  O_2
REMARK    2  A    between atoms: O_2  and  C_3
REMARK    3  A    between atoms: C_6  and  C_7
REMARK    4  A    between atoms: C_7  and  C_8
REMARK    5  A    between atoms: C_8  and  C_9
REMARK    6  A    between atoms: C_9  and  O_11
REMARK    7  A    between atoms: O_11  and  C_12
REMARK    8  A    between atoms: C_12  and  C_13
REMARK    9  A    between atoms: C_12  and  C_14
REMARK                            x       y       z     vdW  Elec       q    Type
REMARK                         _______ _______ _______ _____ _____    ______ ____
ROOT
ATOM      1  C   UNL     1       1.900   4.345  19.218  0.00  0.00    +0.000 A 
ATOM      2  C   UNL     1       2.221   3.270  18.390  0.00  0.00    +0.000 A 
ATOM      3  C   UNL     1       3.146   3.422  17.353  0.00  0.00    +0.000 A 
ATOM      4  C   UNL     1       3.741   4.667  17.108  0.00  0.00    +0.000 A 
ATOM      5  C   UNL     1       3.408   5.742  17.940  0.00  0.00    +0.000 A 
ATOM      6  C   UNL     1       2.495   5.584  18.987  0.00  0.00    +0.000 A 
ENDROOT
BRANCH   1   8
ATOM      7  C   UNL     1       1.351   3.112  21.158  0.00  0.00    +0.000 C 
ATOM      8  O   UNL     1       0.972   4.081  20.188  0.00  0.00    +0.000 OA
ENDBRANCH   1   8
BRANCH   4   9
ATOM      9  C   UNL     1       4.741   4.844  15.992  0.00  0.00    +0.000 C 
BRANCH   9  10
ATOM     10  C   UNL     1       5.970   3.945  16.135  0.00  0.00    +0.000 C 
BRANCH  10  11
ATOM     11  C   UNL     1       7.234   4.767  16.187  0.00  0.00    +0.000 C 
ATOM     12  O   UNL     1       7.662   5.457  15.271  0.00  0.00    +0.000 OA
BRANCH  11  13
ATOM     13  O   UNL     1       7.826   4.626  17.406  0.00  0.00    +0.000 OA
BRANCH  13  14
ATOM     14  C   UNL     1       7.726   5.762  18.289  0.00  0.00    +0.000 C 
ATOM     15  C   UNL     1       7.283   6.992  17.504  0.00  0.00    +0.000 C 
ATOM     16  C   UNL     1       6.699   5.418  19.363  0.00  0.00    +0.000 C 
ENDBRANCH  13  14
ENDBRANCH  11  13
ENDBRANCH  10  11
ENDBRANCH   9  10
ENDBRANCH   4   9
TORSDOF 6
ENDMDL
MODEL 9
REMARK VINA RESULT:      -6.1      1.313      2.058
REMARK  Name = 
REMARK  9 active torsions:
REMARK  status: ('A' for Active; 'I' for Inactive)
REMARK    1  A    between atoms: C_1  and  O_2
REMARK    2  A    between atoms: O_2  and  C_3
REMARK    3  A    between atoms: C_6  and  C_7
REMARK    4  A    between atoms: C_7  and  C_8
REMARK    5  A    between atoms: C_8  and  C_9
REMARK    6  A    between atoms: C_9  and  O_11
REMARK    7  A    between atoms: O_11  and  C_12
REMARK    8  A    between atoms: C_12  and  C_13
REMARK    9  A    between atoms: C_12  and  C_14
REMARK                            x       y       z     vdW  Elec       q    Type
REMARK                         _______ _______ _______ _____ _____    ______ ____
ROOT
ATOM      1  C   UNL     1       2.164   4.530  20.280  0.00  0.00    +0.000 A 
ATOM      2  C   UNL     1       2.811   3.694  19.372  0.00  0.00    +0.000 A 
ATOM      3  C   UNL     1       3.505   4.227  18.283  0.00  0.00    +0.000 A 
ATOM      4  C   UNL     1       3.533   5.612  18.066  0.00  0.00    +0.000 A 
ATOM      5  C   UNL     1       2.874   6.444  18.979  0.00  0.00    +0.000 A 
ATOM      6  C   UNL     1       2.195   5.909  20.078  0.00  0.00    +0.000 A 
ENDROOT
BRANCH   1   8
ATOM      7  C   UNL     1       1.932   2.565  21.573  0.00  0.00    +0.000 C 
ATOM      8  O   UNL     1       1.506   3.894  21.298  0.00  0.00    +0.000 OA
ENDBRANCH   1   8
BRANCH   4   9
ATOM      9  C   UNL     1       4.278   6.200  16.893  0.00  0.00    +0.000 C 
BRANCH   9  10
ATOM     10  C   UNL     1       5.266   5.223  16.255  0.00  0.00    +0.000 C 
BRANCH  10  11
ATOM     11  C   UNL     1       6.598   5.888  16.010  0.00  0.00    +0.000 C 
ATOM     12  O   UNL     1       7.484   5.443  15.293  0.00  0.00    +0.000 OA
BRANCH  11  13
ATOM     13  O   UNL     1       6.663   7.058  16.706  0.00  0.00    +0.000 OA
BRANCH  13  14
ATOM     14  C   UNL     1       7.857   7.258  17.489  0.00  0.00    +0.000 C 
ATOM     15  C   UNL     1       7.974   8.724  17.892  0.00  0.00    +0.000 C 
ATOM     16  C   UNL     1       7.746   6.374  18.727  0.00  0.00    +0.000 C 
ENDBRANCH  13  14
ENDBRANCH  11  13
ENDBRANCH  10  11
ENDBRANCH   9  10
ENDBRANCH   4   9
TORSDOF 6
ENDMDL
