MODEL 1
REMARK VINA RESULT:      -8.8      0.000      0.000
REMARK  Name = 
REMARK  7 active torsions:
REMARK  status: ('A' for Active; 'I' for Inactive)
REMARK    1  A    between atoms: C_1  and  C_2
REMARK    2  A    between atoms: C_7  and  N_8
REMARK    3  A    between atoms: N_8  and  S_9
REMARK    4  A    between atoms: S_9  and  C_12
REMARK    5  A    between atoms: C_15  and  C_16
REMARK    6  A    between atoms: C_20  and  C_21
REMARK    7  A    between atoms: C_23  and  C_24
REMARK                            x       y       z     vdW  Elec       q    Type
REMARK                         _______ _______ _______ _____ _____    ______ ____
ROOT
ATOM      1  C   UNL     1       1.456   7.929  20.510  0.00  0.00    +0.000 A 
ATOM      2  C   UNL     1       1.927   8.372  19.268  0.00  0.00    +0.000 A 
ATOM      3  C   UNL     1       2.595   7.483  18.420  0.00  0.00    +0.000 A 
ATOM      4  C   UNL     1       2.695   6.127  18.752  0.00  0.00    +0.000 A 
ATOM      5  C   UNL     1       2.306   5.713  20.036  0.00  0.00    +0.000 A 
ATOM      6  C   UNL     1       1.705   6.615  20.921  0.00  0.00    +0.000 A 
ENDROOT
BRANCH   4   7
ATOM      7  C   UNL     1       3.173   5.082  17.796  0.00  0.00    +0.000 C 
ATOM      8  O   UNL     1       2.324   4.346  17.295  0.00  0.00    +0.000 OA
ATOM      9  N   UNL     1       4.519   5.037  17.425  0.00  0.00    +0.000 N 
ATOM     10  C   UNL     1       4.955   4.122  16.358  0.00  0.00    +0.000 C 
ATOM     11  C   UNL     1       5.737   4.901  15.275  0.00  0.00    +0.000 C 
ATOM     12  C   UNL     1       6.306   3.984  14.203  0.00  0.00    +0.000 C 
ATOM     13  O   UNL     1       6.849   5.618  15.860  0.00  0.00    +0.000 OA
ATOM     14  C   UNL     1       6.376   6.568  16.824  0.00  0.00    +0.000 C 
ATOM     15  C   UNL     1       7.556   7.322  17.422  0.00  0.00    +0.000 C 
ATOM     16  C   UNL     1       5.612   5.858  17.945  0.00  0.00    +0.000 C 
ENDBRANCH   4   7
BRANCH   1  17
ATOM     17  S   UNL     1       0.705   9.085  21.642  0.00  0.00    +0.000 S 
ATOM     18  O   UNL     1       1.681   9.350  22.681  0.00  0.00    +0.000 OA
ATOM     19  O   UNL     1      -0.608   8.577  21.971  0.00  0.00    +0.000 OA
BRANCH  17  20
ATOM     20  N   UNL     1       0.561  10.519  20.792  0.00  0.00    +0.000 N 
ATOM     21  H   UNL     1       1.431  10.976  20.527  0.00  0.00    +0.000 HD
BRANCH  20  28
ATOM     22  C   UNL     1      -1.074  12.568  22.189  0.00  0.00    +0.000 C 
ATOM     23  C   UNL     1      -1.443  11.959  20.865  0.00  0.00    +0.000 A 
ATOM     24  C   UNL     1      -2.594  12.420  20.209  0.00  0.00    +0.000 A 
ATOM     25  C   UNL     1      -2.956  11.922  18.958  0.00  0.00    +0.000 A 
ATOM     26  C   UNL     1      -2.166  10.959  18.338  0.00  0.00    +0.000 A 
ATOM     27  C   UNL     1      -1.017  10.492  18.975  0.00  0.00    +0.000 A 
ATOM     28  C   UNL     1      -0.663  10.972  20.239  0.00  0.00    +0.000 A 
ENDBRANCH  20  28
ENDBRANCH  17  20
ENDBRANCH   1  17
TORSDOF 4
ENDMDL
MODEL 2
REMARK VINA RESULT:      -8.7      0.424      1.385
REMARK  Name = 
REMARK  7 active torsions:
REMARK  status: ('A' for Active; 'I' for Inactive)
REMARK    1  A    between atoms: C_1  and  C_2
REMARK    2  A    between atoms: C_7  and  N_8
REMARK    3  A    between atoms: N_8  and  S_9
REMARK    4  A    between atoms: S_9  and  C_12
REMARK    5  A    between atoms: C_15  and  C_16
REMARK    6  A    between atoms: C_20  and  C_21
REMARK    7  A    between atoms: C_23  and  C_24
REMARK                            x       y       z     vdW  Elec       q    Type
REMARK                         _______ _______ _______ _____ _____    ______ ____
ROOT
ATOM      1  C   UNL     1       1.454   7.994  20.492  0.00  0.00    +0.000 A 
ATOM      2  C   UNL     1       1.914   8.423  19.242  0.00  0.00    +0.000 A 
ATOM      3  C   UNL     1       2.576   7.525  18.399  0.00  0.00    +0.000 A 
ATOM      4  C   UNL     1       2.680   6.173  18.746  0.00  0.00    +0.000 A 
ATOM      5  C   UNL     1       2.303   5.773  20.038  0.00  0.00    +0.000 A 
ATOM      6  C   UNL     1       1.708   6.685  20.916  0.00  0.00    +0.000 A 
ENDROOT
BRANCH   4   7
ATOM      7  C   UNL     1       3.152   5.117  17.798  0.00  0.00    +0.000 C 
ATOM      8  O   UNL     1       2.298   4.382  17.303  0.00  0.00    +0.000 OA
ATOM      9  N   UNL     1       4.497   5.061  17.427  0.00  0.00    +0.000 N 
ATOM     10  C   UNL     1       4.928   4.135  16.367  0.00  0.00    +0.000 C 
ATOM     11  C   UNL     1       5.714   4.900  15.278  0.00  0.00    +0.000 C 
ATOM     12  C   UNL     1       6.276   3.971  14.214  0.00  0.00    +0.000 C 
ATOM     13  O   UNL     1       6.830   5.616  15.856  0.00  0.00    +0.000 OA
ATOM     14  C   UNL     1       6.363   6.576  16.813  0.00  0.00    +0.000 C 
ATOM     15  C   UNL     1       7.548   7.328  17.405  0.00  0.00    +0.000 C 
ATOM     16  C   UNL     1       5.596   5.880  17.940  0.00  0.00    +0.000 C 
ENDBRANCH   4   7
BRANCH   1  17
ATOM     17  S   UNL     1       0.710   9.162  21.616  0.00  0.00    +0.000 S 
ATOM     18  O   UNL     1       1.656   9.367  22.697  0.00  0.00    +0.000 OA
ATOM     19  O   UNL     1      -0.635   8.707  21.886  0.00  0.00    +0.000 OA
BRANCH  17  20
ATOM     20  N   UNL     1       0.661  10.616  20.789  0.00  0.00    +0.000 N 
ATOM     21  H   UNL     1       1.478  10.842  20.225  0.00  0.00    +0.000 HD
BRANCH  20  28
ATOM     22  C   UNL     1      -1.000  10.441  18.333  0.00  0.00    +0.000 C 
ATOM     23  C   UNL     1      -1.338  11.307  19.515  0.00  0.00    +0.000 A 
ATOM     24  C   UNL     1      -2.536  12.035  19.496  0.00  0.00    +0.000 A 
ATOM     25  C   UNL     1      -2.919  12.816  20.586  0.00  0.00    +0.000 A 
ATOM     26  C   UNL     1      -2.110  12.876  21.716  0.00  0.00    +0.000 A 
ATOM     27  C   UNL     1      -0.917  12.157  21.752  0.00  0.00    +0.000 A 
ATOM     28  C   UNL     1      -0.519  11.390  20.653  0.00  0.00    +0.000 A 
ENDBRANCH  20  28
ENDBRANCH  17  20
ENDBRANCH   1  17
TORSDOF 4
ENDMDL
MODEL 3
REMARK VINA RESULT:      -8.4      0.613      1.730
REMARK  Name = 
REMARK  7 active torsions:
REMARK  status: ('A' for Active; 'I' for Inactive)
REMARK    1  A    between atoms: C_1  and  C_2
REMARK    2  A    between atoms: C_7  and  N_8
REMARK    3  A    between atoms: N_8  and  S_9
REMARK    4  A    between atoms: S_9  and  C_12
REMARK    5  A    between atoms: C_15  and  C_16
REMARK    6  A    between atoms: C_20  and  C_21
REMARK    7  A    between atoms: C_23  and  C_24
REMARK                            x       y       z     vdW  Elec       q    Type
REMARK                         _______ _______ _______ _____ _____    ______ ____
ROOT
ATOM      1  C   UNL     1       1.664   7.790  20.343  0.00  0.00    +0.000 A 
ATOM      2  C   UNL     1       1.730   6.449  20.737  0.00  0.00    +0.000 A 
ATOM      3  C   UNL     1       2.185   5.481  19.835  0.00  0.00    +0.000 A 
ATOM      4  C   UNL     1       2.681   5.858  18.582  0.00  0.00    +0.000 A 
ATOM      5  C   UNL     1       2.522   7.188  18.161  0.00  0.00    +0.000 A 
ATOM      6  C   UNL     1       1.998   8.149  19.032  0.00  0.00    +0.000 A 
ENDROOT
BRANCH   4   7
ATOM      7  C   UNL     1       3.402   4.918  17.670  0.00  0.00    +0.000 C 
ATOM      8  O   UNL     1       2.730   4.065  17.093  0.00  0.00    +0.000 OA
ATOM      9  N   UNL     1       4.765   5.095  17.420  0.00  0.00    +0.000 N 
ATOM     10  C   UNL     1       5.435   4.279  16.394  0.00  0.00    +0.000 C 
ATOM     11  C   UNL     1       6.174   5.190  15.386  0.00  0.00    +0.000 C 
ATOM     12  C   UNL     1       6.973   4.393  14.368  0.00  0.00    +0.000 C 
ATOM     13  O   UNL     1       7.100   6.065  16.070  0.00  0.00    +0.000 OA
ATOM     14  C   UNL     1       6.399   6.912  16.990  0.00  0.00    +0.000 C 
ATOM     15  C   UNL     1       7.386   7.834  17.693  0.00  0.00    +0.000 C 
ATOM     16  C   UNL     1       5.663   6.071  18.037  0.00  0.00    +0.000 C 
ENDBRANCH   4   7
BRANCH   1  17
ATOM     17  S   UNL     1       0.980   9.011  21.449  0.00  0.00    +0.000 S 
ATOM     18  O   UNL     1       1.953   9.213  22.505  0.00  0.00    +0.000 OA
ATOM     19  O   UNL     1      -0.373   8.607  21.757  0.00  0.00    +0.000 OA
BRANCH  17  20
ATOM     20  N   UNL     1       0.961  10.443  20.584  0.00  0.00    +0.000 N 
ATOM     21  H   UNL     1       1.728  10.585  19.930  0.00  0.00    +0.000 HD
BRANCH  20  28
ATOM     22  C   UNL     1      -1.040  10.253  18.398  0.00  0.00    +0.000 C 
ATOM     23  C   UNL     1      -1.136  11.225  19.541  0.00  0.00    +0.000 A 
ATOM     24  C   UNL     1      -2.262  12.057  19.626  0.00  0.00    +0.000 A 
ATOM     25  C   UNL     1      -2.422  12.942  20.691  0.00  0.00    +0.000 A 
ATOM     26  C   UNL     1      -1.459  13.005  21.694  0.00  0.00    +0.000 A 
ATOM     27  C   UNL     1      -0.334  12.183  21.626  0.00  0.00    +0.000 A 
ATOM     28  C   UNL     1      -0.159  11.310  20.548  0.00  0.00    +0.000 A 
ENDBRANCH  20  28
ENDBRANCH  17  20
ENDBRANCH   1  17
TORSDOF 4
ENDMDL
MODEL 4
REMARK VINA RESULT:      -8.4      1.206      1.889
REMARK  Name = 
REMARK  7 active torsions:
REMARK  status: ('A' for Active; 'I' for Inactive)
REMARK    1  A    between atoms: C_1  and  C_2
REMARK    2  A    between atoms: C_7  and  N_8
REMARK    3  A    between atoms: N_8  and  S_9
REMARK    4  A    between atoms: S_9  and  C_12
REMARK    5  A    between atoms: C_15  and  C_16
REMARK    6  A    between atoms: C_20  and  C_21
REMARK    7  A    between atoms: C_23  and  C_24
REMARK                            x       y       z     vdW  Elec       q    Type
REMARK                         _______ _______ _______ _____ _____    ______ ____
ROOT
ATOM      1  C   UNL     1       1.157   9.198  19.831  0.00  0.00    +0.000 A 
ATOM      2  C   UNL     1       1.528   9.267  18.483  0.00  0.00    +0.000 A 
ATOM      3  C   UNL     1       2.205   8.196  17.892  0.00  0.00    +0.000 A 
ATOM      4  C   UNL     1       2.413   7.009  18.605  0.00  0.00    +0.000 A 
ATOM      5  C   UNL     1       2.124   6.984  19.979  0.00  0.00    +0.000 A 
ATOM      6  C   UNL     1       1.514   8.082  20.595  0.00  0.00    +0.000 A 
ENDROOT
BRANCH   4   7
ATOM      7  C   UNL     1       2.905   5.748  17.972  0.00  0.00    +0.000 C 
ATOM      8  O   UNL     1       2.059   4.943  17.586  0.00  0.00    +0.000 OA
ATOM      9  N   UNL     1       4.271   5.567  17.743  0.00  0.00    +0.000 N 
ATOM     10  C   UNL     1       4.739   4.407  16.968  0.00  0.00    +0.000 C 
ATOM     11  C   UNL     1       5.645   4.873  15.804  0.00  0.00    +0.000 C 
ATOM     12  C   UNL     1       6.243   3.705  15.037  0.00  0.00    +0.000 C 
ATOM     13  O   UNL     1       6.745   5.671  16.299  0.00  0.00    +0.000 OA
ATOM     14  C   UNL     1       6.252   6.842  16.963  0.00  0.00    +0.000 C 
ATOM     15  C   UNL     1       7.421   7.676  17.467  0.00  0.00    +0.000 C 
ATOM     16  C   UNL     1       5.365   6.452  18.148  0.00  0.00    +0.000 C 
ENDBRANCH   4   7
BRANCH   1  17
ATOM     17  S   UNL     1       0.394  10.605  20.618  0.00  0.00    +0.000 S 
ATOM     18  O   UNL     1       1.466  11.415  21.163  0.00  0.00    +0.000 OA
ATOM     19  O   UNL     1      -0.662  10.105  21.470  0.00  0.00    +0.000 OA
BRANCH  17  20
ATOM     20  N   UNL     1      -0.263  11.515  19.377  0.00  0.00    +0.000 N 
ATOM     21  H   UNL     1       0.366  11.756  18.614  0.00  0.00    +0.000 HD
BRANCH  20  28
ATOM     22  C   UNL     1      -1.836  10.072  17.312  0.00  0.00    +0.000 C 
ATOM     23  C   UNL     1      -2.429  11.053  18.286  0.00  0.00    +0.000 A 
ATOM     24  C   UNL     1      -3.815  11.264  18.271  0.00  0.00    +0.000 A 
ATOM     25  C   UNL     1      -4.420  12.127  19.183  0.00  0.00    +0.000 A 
ATOM     26  C   UNL     1      -3.647  12.789  20.132  0.00  0.00    +0.000 A 
ATOM     27  C   UNL     1      -2.268  12.588  20.163  0.00  0.00    +0.000 A 
ATOM     28  C   UNL     1      -1.655  11.741  19.236  0.00  0.00    +0.000 A 
ENDBRANCH  20  28
ENDBRANCH  17  20
ENDBRANCH   1  17
TORSDOF 4
ENDMDL
MODEL 5
REMARK VINA RESULT:      -8.4      1.383      1.916
REMARK  Name = 
REMARK  7 active torsions:
REMARK  status: ('A' for Active; 'I' for Inactive)
REMARK    1  A    between atoms: C_1  and  C_2
REMARK    2  A    between atoms: C_7  and  N_8
REMARK    3  A    between atoms: N_8  and  S_9
REMARK    4  A    between atoms: S_9  and  C_12
REMARK    5  A    between atoms: C_15  and  C_16
REMARK    6  A    between atoms: C_20  and  C_21
REMARK    7  A    between atoms: C_23  and  C_24
REMARK                            x       y       z     vdW  Elec       q    Type
REMARK                         _______ _______ _______ _____ _____    ______ ____
ROOT
ATOM      1  C   UNL     1       1.366   7.833  20.562  0.00  0.00    +0.000 A 
ATOM      2  C   UNL     1       1.857   8.322  19.346  0.00  0.00    +0.000 A 
ATOM      3  C   UNL     1       2.549   7.467  18.482  0.00  0.00    +0.000 A 
ATOM      4  C   UNL     1       2.655   6.101  18.770  0.00  0.00    +0.000 A 
ATOM      5  C   UNL     1       2.245   5.641  20.031  0.00  0.00    +0.000 A 
ATOM      6  C   UNL     1       1.619   6.508  20.933  0.00  0.00    +0.000 A 
ENDROOT
BRANCH   4   7
ATOM      7  C   UNL     1       3.161   5.094  17.789  0.00  0.00    +0.000 C 
ATOM      8  O   UNL     1       2.331   4.358  17.257  0.00  0.00    +0.000 OA
ATOM      9  N   UNL     1       4.511   5.083  17.431  0.00  0.00    +0.000 N 
ATOM     10  C   UNL     1       4.975   4.208  16.342  0.00  0.00    +0.000 C 
ATOM     11  C   UNL     1       5.753   5.032  15.290  0.00  0.00    +0.000 C 
ATOM     12  C   UNL     1       6.349   4.157  14.199  0.00  0.00    +0.000 C 
ATOM     13  O   UNL     1       6.846   5.751  15.908  0.00  0.00    +0.000 OA
ATOM     14  C   UNL     1       6.347   6.664  16.894  0.00  0.00    +0.000 C 
ATOM     15  C   UNL     1       7.507   7.420  17.527  0.00  0.00    +0.000 C 
ATOM     16  C   UNL     1       5.585   5.908  17.986  0.00  0.00    +0.000 C 
ENDBRANCH   4   7
BRANCH   1  17
ATOM     17  S   UNL     1       0.581   8.943  21.717  0.00  0.00    +0.000 S 
ATOM     18  O   UNL     1       1.616   9.410  22.620  0.00  0.00    +0.000 OA
ATOM     19  O   UNL     1      -0.598   8.279  22.223  0.00  0.00    +0.000 OA
BRANCH  17  20
ATOM     20  N   UNL     1       0.136  10.284  20.821  0.00  0.00    +0.000 N 
ATOM     21  H   UNL     1      -0.241  10.102  19.894  0.00  0.00    +0.000 HD
BRANCH  20  28
ATOM     22  C   UNL     1       1.699  12.540  19.686  0.00  0.00    +0.000 C 
ATOM     23  C   UNL     1       0.745  12.677  20.840  0.00  0.00    +0.000 A 
ATOM     24  C   UNL     1       0.524  13.951  21.384  0.00  0.00    +0.000 A 
ATOM     25  C   UNL     1      -0.385  14.139  22.424  0.00  0.00    +0.000 A 
ATOM     26  C   UNL     1      -1.095  13.055  22.932  0.00  0.00    +0.000 A 
ATOM     27  C   UNL     1      -0.889  11.783  22.401  0.00  0.00    +0.000 A 
ATOM     28  C   UNL     1       0.038  11.586  21.374  0.00  0.00    +0.000 A 
ENDBRANCH  20  28
ENDBRANCH  17  20
ENDBRANCH   1  17
TORSDOF 4
ENDMDL
MODEL 6
REMARK VINA RESULT:      -8.3      1.325      1.753
REMARK  Name = 
REMARK  7 active torsions:
REMARK  status: ('A' for Active; 'I' for Inactive)
REMARK    1  A    between atoms: C_1  and  C_2
REMARK    2  A    between atoms: C_7  and  N_8
REMARK    3  A    between atoms: N_8  and  S_9
REMARK    4  A    between atoms: S_9  and  C_12
REMARK    5  A    between atoms: C_15  and  C_16
REMARK    6  A    between atoms: C_20  and  C_21
REMARK    7  A    between atoms: C_23  and  C_24
REMARK                            x       y       z     vdW  Elec       q    Type
REMARK                         _______ _______ _______ _____ _____    ______ ____
ROOT
ATOM      1  C   UNL     1       1.325   7.910  20.550  0.00  0.00    +0.000 A 
ATOM      2  C   UNL     1       1.808   8.375  19.321  0.00  0.00    +0.000 A 
ATOM      3  C   UNL     1       2.507   7.507  18.476  0.00  0.00    +0.000 A 
ATOM      4  C   UNL     1       2.629   6.150  18.798  0.00  0.00    +0.000 A 
ATOM      5  C   UNL     1       2.227   5.716  20.071  0.00  0.00    +0.000 A 
ATOM      6  C   UNL     1       1.594   6.598  20.953  0.00  0.00    +0.000 A 
ENDROOT
BRANCH   4   7
ATOM      7  C   UNL     1       3.144   5.124  17.840  0.00  0.00    +0.000 C 
ATOM      8  O   UNL     1       2.321   4.365  17.331  0.00  0.00    +0.000 OA
ATOM      9  N   UNL     1       4.493   5.121  17.477  0.00  0.00    +0.000 N 
ATOM     10  C   UNL     1       4.963   4.224  16.409  0.00  0.00    +0.000 C 
ATOM     11  C   UNL     1       5.727   5.030  15.334  0.00  0.00    +0.000 C 
ATOM     12  C   UNL     1       6.329   4.136  14.262  0.00  0.00    +0.000 C 
ATOM     13  O   UNL     1       6.813   5.778  15.928  0.00  0.00    +0.000 OA
ATOM     14  C   UNL     1       6.307   6.709  16.893  0.00  0.00    +0.000 C 
ATOM     15  C   UNL     1       7.460   7.496  17.502  0.00  0.00    +0.000 C 
ATOM     16  C   UNL     1       5.558   5.973  18.007  0.00  0.00    +0.000 C 
ENDBRANCH   4   7
BRANCH   1  17
ATOM     17  S   UNL     1       0.531   9.040  21.679  0.00  0.00    +0.000 S 
ATOM     18  O   UNL     1       1.580   9.636  22.485  0.00  0.00    +0.000 OA
ATOM     19  O   UNL     1      -0.567   8.333  22.299  0.00  0.00    +0.000 OA
BRANCH  17  20
ATOM     20  N   UNL     1      -0.059  10.285  20.731  0.00  0.00    +0.000 N 
ATOM     21  H   UNL     1      -0.785  10.037  20.062  0.00  0.00    +0.000 HD
BRANCH  20  28
ATOM     22  C   UNL     1      -1.624  11.817  22.738  0.00  0.00    +0.000 C 
ATOM     23  C   UNL     1      -0.482  12.392  21.946  0.00  0.00    +0.000 A 
ATOM     24  C   UNL     1      -0.082  13.712  22.202  0.00  0.00    +0.000 A 
ATOM     25  C   UNL     1       1.000  14.278  21.529  0.00  0.00    +0.000 A 
ATOM     26  C   UNL     1       1.704  13.529  20.591  0.00  0.00    +0.000 A 
ATOM     27  C   UNL     1       1.321  12.215  20.326  0.00  0.00    +0.000 A 
ATOM     28  C   UNL     1       0.223  11.651  20.983  0.00  0.00    +0.000 A 
ENDBRANCH  20  28
ENDBRANCH  17  20
ENDBRANCH   1  17
TORSDOF 4
ENDMDL
MODEL 7
REMARK VINA RESULT:      -8.1      1.501      1.923
REMARK  Name = 
REMARK  7 active torsions:
REMARK  status: ('A' for Active; 'I' for Inactive)
REMARK    1  A    between atoms: C_1  and  C_2
REMARK    2  A    between atoms: C_7  and  N_8
REMARK    3  A    between atoms: N_8  and  S_9
REMARK    4  A    between atoms: S_9  and  C_12
REMARK    5  A    between atoms: C_15  and  C_16
REMARK    6  A    between atoms: C_20  and  C_21
REMARK    7  A    between atoms: C_23  and  C_24
REMARK                            x       y       z     vdW  Elec       q    Type
REMARK                         _______ _______ _______ _____ _____    ______ ____
ROOT
ATOM      1  C   UNL     1       1.302   9.523  19.481  0.00  0.00    +0.000 A 
ATOM      2  C   UNL     1       1.813   9.498  18.178  0.00  0.00    +0.000 A 
ATOM      3  C   UNL     1       2.467   8.355  17.710  0.00  0.00    +0.000 A 
ATOM      4  C   UNL     1       2.516   7.195  18.492  0.00  0.00    +0.000 A 
ATOM      5  C   UNL     1       2.087   7.259  19.827  0.00  0.00    +0.000 A 
ATOM      6  C   UNL     1       1.499   8.426  20.327  0.00  0.00    +0.000 A 
ENDROOT
BRANCH   4   7
ATOM      7  C   UNL     1       2.978   5.873  17.969  0.00  0.00    +0.000 C 
ATOM      8  O   UNL     1       2.113   5.068  17.627  0.00  0.00    +0.000 OA
ATOM      9  N   UNL     1       4.342   5.630  17.788  0.00  0.00    +0.000 N 
ATOM     10  C   UNL     1       4.785   4.399  17.116  0.00  0.00    +0.000 C 
ATOM     11  C   UNL     1       5.731   4.743  15.942  0.00  0.00    +0.000 C 
ATOM     12  C   UNL     1       6.305   3.499  15.282  0.00  0.00    +0.000 C 
ATOM     13  O   UNL     1       6.847   5.540  16.399  0.00  0.00    +0.000 OA
ATOM     14  C   UNL     1       6.381   6.775  16.959  0.00  0.00    +0.000 C 
ATOM     15  C   UNL     1       7.567   7.607  17.426  0.00  0.00    +0.000 C 
ATOM     16  C   UNL     1       5.456   6.507  18.150  0.00  0.00    +0.000 C 
ENDBRANCH   4   7
BRANCH   1  17
ATOM     17  S   UNL     1       0.566  11.016  20.122  0.00  0.00    +0.000 S 
ATOM     18  O   UNL     1       0.760  12.045  19.117  0.00  0.00    +0.000 OA
ATOM     19  O   UNL     1       1.056  11.197  21.469  0.00  0.00    +0.000 OA
BRANCH  17  20
ATOM     20  N   UNL     1      -1.082  10.730  20.150  0.00  0.00    +0.000 N 
ATOM     21  H   UNL     1      -1.518  10.697  21.070  0.00  0.00    +0.000 HD
BRANCH  20  28
ATOM     22  C   UNL     1      -3.357  12.631  19.964  0.00  0.00    +0.000 C 
ATOM     23  C   UNL     1      -2.961  11.684  18.864  0.00  0.00    +0.000 A 
ATOM     24  C   UNL     1      -3.661  11.731  17.649  0.00  0.00    +0.000 A 
ATOM     25  C   UNL     1      -3.304  10.908  16.583  0.00  0.00    +0.000 A 
ATOM     26  C   UNL     1      -2.235  10.027  16.712  0.00  0.00    +0.000 A 
ATOM     27  C   UNL     1      -1.527   9.969  17.911  0.00  0.00    +0.000 A 
ATOM     28  C   UNL     1      -1.896  10.776  18.991  0.00  0.00    +0.000 A 
ENDBRANCH  20  28
ENDBRANCH  17  20
ENDBRANCH   1  17
TORSDOF 4
ENDMDL
MODEL 8
REMARK VINA RESULT:      -7.9      2.217      3.344
REMARK  Name = 
REMARK  7 active torsions:
REMARK  status: ('A' for Active; 'I' for Inactive)
REMARK    1  A    between atoms: C_1  and  C_2
REMARK    2  A    between atoms: C_7  and  N_8
REMARK    3  A    between atoms: N_8  and  S_9
REMARK    4  A    between atoms: S_9  and  C_12
REMARK    5  A    between atoms: C_15  and  C_16
REMARK    6  A    between atoms: C_20  and  C_21
REMARK    7  A    between atoms: C_23  and  C_24
REMARK                            x       y       z     vdW  Elec       q    Type
REMARK                         _______ _______ _______ _____ _____    ______ ____
ROOT
ATOM      1  C   UNL     1       1.245   9.203  19.701  0.00  0.00    +0.000 A 
ATOM      2  C   UNL     1       1.635   9.329  18.362  0.00  0.00    +0.000 A 
ATOM      3  C   UNL     1       2.381   8.312  17.758  0.00  0.00    +0.000 A 
ATOM      4  C   UNL     1       2.642   7.121  18.444  0.00  0.00    +0.000 A 
ATOM      5  C   UNL     1       2.332   7.043  19.810  0.00  0.00    +0.000 A 
ATOM      6  C   UNL     1       1.651   8.090  20.443  0.00  0.00    +0.000 A 
ENDROOT
BRANCH   4   7
ATOM      7  C   UNL     1       3.215   5.906  17.788  0.00  0.00    +0.000 C 
ATOM      8  O   UNL     1       4.176   6.070  17.038  0.00  0.00    +0.000 OA
ATOM      9  N   UNL     1       2.728   4.638  18.116  0.00  0.00    +0.000 N 
ATOM     10  C   UNL     1       3.404   3.436  17.602  0.00  0.00    +0.000 C 
ATOM     11  C   UNL     1       3.755   2.483  18.768  0.00  0.00    +0.000 C 
ATOM     12  C   UNL     1       4.358   1.175  18.280  0.00  0.00    +0.000 C 
ATOM     13  O   UNL     1       2.575   2.152  19.534  0.00  0.00    +0.000 OA
ATOM     14  C   UNL     1       2.000   3.338  20.100  0.00  0.00    +0.000 C 
ATOM     15  C   UNL     1       0.765   2.972  20.912  0.00  0.00    +0.000 C 
ATOM     16  C   UNL     1       1.601   4.319  18.994  0.00  0.00    +0.000 C 
ENDBRANCH   4   7
BRANCH   1  17
ATOM     17  S   UNL     1       0.391  10.545  20.509  0.00  0.00    +0.000 S 
ATOM     18  O   UNL     1       1.409  11.411  21.074  0.00  0.00    +0.000 OA
ATOM     19  O   UNL     1      -0.634   9.964  21.347  0.00  0.00    +0.000 OA
BRANCH  17  20
ATOM     20  N   UNL     1      -0.316  11.434  19.281  0.00  0.00    +0.000 N 
ATOM     21  H   UNL     1       0.301  12.053  18.759  0.00  0.00    +0.000 HD
BRANCH  20  28
ATOM     22  C   UNL     1      -2.617  13.044  20.249  0.00  0.00    +0.000 C 
ATOM     23  C   UNL     1      -2.730  11.951  19.223  0.00  0.00    +0.000 A 
ATOM     24  C   UNL     1      -3.979  11.705  18.634  0.00  0.00    +0.000 A 
ATOM     25  C   UNL     1      -4.128  10.734  17.645  0.00  0.00    +0.000 A 
ATOM     26  C   UNL     1      -3.026   9.997  17.222  0.00  0.00    +0.000 A 
ATOM     27  C   UNL     1      -1.777  10.231  17.795  0.00  0.00    +0.000 A 
ATOM     28  C   UNL     1      -1.627  11.187  18.803  0.00  0.00    +0.000 A 
ENDBRANCH  20  28
ENDBRANCH  17  20
ENDBRANCH   1  17
TORSDOF 4
ENDMDL
MODEL 9
REMARK VINA RESULT:      -7.8      1.021      1.679
REMARK  Name = 
REMARK  7 active torsions:
REMARK  status: ('A' for Active; 'I' for Inactive)
REMARK    1  A    between atoms: C_1  and  C_2
REMARK    2  A    between atoms: C_7  and  N_8
REMARK    3  A    between atoms: N_8  and  S_9
REMARK    4  A    between atoms: S_9  and  C_12
REMARK    5  A    between atoms: C_15  and  C_16
REMARK    6  A    between atoms: C_20  and  C_21
REMARK    7  A    between atoms: C_23  and  C_24
REMARK                            x       y       z     vdW  Elec       q    Type
REMARK                         _______ _______ _______ _____ _____    ______ ____
ROOT
ATOM      1  C   UNL     1       1.321   8.234  20.484  0.00  0.00    +0.000 A 
ATOM      2  C   UNL     1       1.764   8.620  19.214  0.00  0.00    +0.000 A 
ATOM      3  C   UNL     1       2.424   7.695  18.398  0.00  0.00    +0.000 A 
ATOM      4  C   UNL     1       2.543   6.358  18.794  0.00  0.00    +0.000 A 
ATOM      5  C   UNL     1       2.182   6.004  20.104  0.00  0.00    +0.000 A 
ATOM      6  C   UNL     1       1.589   6.944  20.954  0.00  0.00    +0.000 A 
ENDROOT
BRANCH   4   7
ATOM      7  C   UNL     1       3.012   5.271  17.882  0.00  0.00    +0.000 C 
ATOM      8  O   UNL     1       2.156   4.531  17.399  0.00  0.00    +0.000 OA
ATOM      9  N   UNL     1       4.360   5.191  17.525  0.00  0.00    +0.000 N 
ATOM     10  C   UNL     1       4.791   4.231  16.496  0.00  0.00    +0.000 C 
ATOM     11  C   UNL     1       5.596   4.957  15.393  0.00  0.00    +0.000 C 
ATOM     12  C   UNL     1       6.159   3.992  14.361  0.00  0.00    +0.000 C 
ATOM     13  O   UNL     1       6.713   5.677  15.962  0.00  0.00    +0.000 OA
ATOM     14  C   UNL     1       6.248   6.669  16.887  0.00  0.00    +0.000 C 
ATOM     15  C   UNL     1       7.434   7.425  17.469  0.00  0.00    +0.000 C 
ATOM     16  C   UNL     1       5.462   6.013  18.026  0.00  0.00    +0.000 C 
ENDBRANCH   4   7
BRANCH   1  17
ATOM     17  S   UNL     1       0.580   9.438  21.573  0.00  0.00    +0.000 S 
ATOM     18  O   UNL     1       1.541  10.513  21.728  0.00  0.00    +0.000 OA
ATOM     19  O   UNL     1       0.073   8.727  22.724  0.00  0.00    +0.000 OA
BRANCH  17  20
ATOM     20  N   UNL     1      -0.692  10.102  20.711  0.00  0.00    +0.000 N 
ATOM     21  H   UNL     1      -1.601   9.662  20.838  0.00  0.00    +0.000 HD
BRANCH  20  28
ATOM     22  C   UNL     1      -1.138  10.277  17.780  0.00  0.00    +0.000 C 
ATOM     23  C   UNL     1      -0.837  11.462  18.656  0.00  0.00    +0.000 A 
ATOM     24  C   UNL     1      -0.822  12.740  18.079  0.00  0.00    +0.000 A 
ATOM     25  C   UNL     1      -0.594  13.876  18.855  0.00  0.00    +0.000 A 
ATOM     26  C   UNL     1      -0.384  13.751  20.225  0.00  0.00    +0.000 A 
ATOM     27  C   UNL     1      -0.398  12.488  20.815  0.00  0.00    +0.000 A 
ATOM     28  C   UNL     1      -0.604  11.345  20.037  0.00  0.00    +0.000 A 
ENDBRANCH  20  28
ENDBRANCH  17  20
ENDBRANCH   1  17
TORSDOF 4
ENDMDL
