MODEL 1
REMARK VINA RESULT:      -8.4      0.000      0.000
REMARK  Name = 
REMARK  3 active torsions:
REMARK  status: ('A' for Active; 'I' for Inactive)
REMARK    1  A    between atoms: C_6  and  O_7
REMARK    2  A    between atoms: O_7  and  C_8
REMARK    3  A    between atoms: C_17  and  C_18
REMARK                            x       y       z     vdW  Elec       q    Type
REMARK                         _______ _______ _______ _____ _____    ______ ____
ROOT
ATOM      1  C   UNL     1      -4.036  11.663  17.931  0.00  0.00    +0.000 A 
ATOM      2  C   UNL     1      -3.811  10.650  16.987  0.00  0.00    +0.000 A 
ATOM      3  C   UNL     1      -2.603   9.939  17.000  0.00  0.00    +0.000 A 
ATOM      4  C   UNL     1      -1.622  10.376  17.858  0.00  0.00    +0.000 A 
ATOM      5  C   UNL     1      -1.727  11.573  18.564  0.00  0.00    +0.000 A 
ATOM      6  C   UNL     1      -2.955  12.215  18.631  0.00  0.00    +0.000 A 
ATOM      7  C   UNL     1      -0.516  11.739  19.389  0.00  0.00    +0.000 C 
ATOM      8  C   UNL     1       0.171  10.478  19.301  0.00  0.00    +0.000 C 
ATOM      9  O   UNL     1      -0.521   9.635  18.282  0.00  0.00    +0.000 OA
ATOM     10  C   UNL     1      -0.521  10.782  20.658  0.00  0.00    +0.000 C 
ENDROOT
BRANCH  10  11
ATOM     11  C   UNL     1      -1.091  11.850  21.637  0.00  0.00    +0.000 A 
ATOM     12  N   UNL     1      -2.327  11.832  22.092  0.00  0.00    +0.000 NA
ATOM     13  C   UNL     1      -2.472  12.964  22.828  0.00  0.00    +0.000 A 
ATOM     14  C   UNL     1      -3.643  13.519  23.351  0.00  0.00    +0.000 A 
ATOM     15  C   UNL     1      -3.536  14.735  24.027  0.00  0.00    +0.000 A 
ATOM     16 CL   UNL     1      -4.981  15.579  24.437  0.00  0.00    +0.000 Cl
ATOM     17  C   UNL     1      -2.284  15.291  24.301  0.00  0.00    +0.000 A 
ATOM     18  F   UNL     1      -2.196  16.424  25.014  0.00  0.00    +0.000 F 
ATOM     19  C   UNL     1      -1.100  14.732  23.804  0.00  0.00    +0.000 A 
ATOM     20  C   UNL     1      -1.252  13.612  22.986  0.00  0.00    +0.000 A 
ATOM     21  N   UNL     1      -0.409  12.937  22.130  0.00  0.00    +0.000 N 
ATOM     22  H   UNL     1       0.535  13.205  21.888  0.00  0.00    +0.000 HD
ENDBRANCH  10  11
BRANCH   1  23
ATOM     23  O   UNL     1      -5.264  12.147  18.299  0.00  0.00    +0.000 OA
BRANCH  23  29
ATOM     24  O   UNL     1      -7.916  12.763  24.213  0.00  0.00    +0.000 OA
ATOM     25  C   UNL     1      -7.653  12.569  23.030  0.00  0.00    +0.000 C 
ATOM     26  C   UNL     1      -7.391  13.698  22.065  0.00  0.00    +0.000 C 
ATOM     27  C   UNL     1      -6.356  13.308  21.020  0.00  0.00    +0.000 C 
ATOM     28  C   UNL     1      -6.581  11.947  20.424  0.00  0.00    +0.000 A 
ATOM     29  C   UNL     1      -6.062  11.476  19.200  0.00  0.00    +0.000 A 
ATOM     30  C   UNL     1      -6.421  10.208  18.740  0.00  0.00    +0.000 A 
ATOM     31  C   UNL     1      -7.183   9.395  19.557  0.00  0.00    +0.000 A 
ATOM     32  N   UNL     1      -7.590   9.755  20.789  0.00  0.00    +0.000 NA
ATOM     33  C   UNL     1      -7.278  11.016  21.186  0.00  0.00    +0.000 A 
ATOM     34  N   UNL     1      -7.706  11.328  22.473  0.00  0.00    +0.000 N 
ATOM     35  H   UNL     1      -8.038  10.562  23.041  0.00  0.00    +0.000 HD
ENDBRANCH  23  29
ENDBRANCH   1  23
TORSDOF 3
ENDMDL
MODEL 2
REMARK VINA RESULT:      -8.3      1.023      1.448
REMARK  Name = 
REMARK  3 active torsions:
REMARK  status: ('A' for Active; 'I' for Inactive)
REMARK    1  A    between atoms: C_6  and  O_7
REMARK    2  A    between atoms: O_7  and  C_8
REMARK    3  A    between atoms: C_17  and  C_18
REMARK                            x       y       z     vdW  Elec       q    Type
REMARK                         _______ _______ _______ _____ _____    ______ ____
ROOT
ATOM      1  C   UNL     1      -3.492  11.668  18.297  0.00  0.00    +0.000 A 
ATOM      2  C   UNL     1      -3.170  10.551  17.511  0.00  0.00    +0.000 A 
ATOM      3  C   UNL     1      -1.986   9.843  17.755  0.00  0.00    +0.000 A 
ATOM      4  C   UNL     1      -1.111  10.372  18.672  0.00  0.00    +0.000 A 
ATOM      5  C   UNL     1      -1.280  11.643  19.218  0.00  0.00    +0.000 A 
ATOM      6  C   UNL     1      -2.495  12.293  19.058  0.00  0.00    +0.000 A 
ATOM      7  C   UNL     1      -0.176  11.900  20.163  0.00  0.00    +0.000 C 
ATOM      8  C   UNL     1       0.493  10.634  20.305  0.00  0.00    +0.000 C 
ATOM      9  O   UNL     1      -0.083   9.681  19.311  0.00  0.00    +0.000 OA
ATOM     10  C   UNL     1      -0.354  11.095  21.522  0.00  0.00    +0.000 C 
ENDROOT
BRANCH  10  11
ATOM     11  C   UNL     1      -1.021  12.272  22.294  0.00  0.00    +0.000 A 
ATOM     12  N   UNL     1      -0.370  13.352  22.675  0.00  0.00    +0.000 NA
ATOM     13  C   UNL     1      -1.255  14.089  23.396  0.00  0.00    +0.000 A 
ATOM     14  C   UNL     1      -1.010  15.212  24.189  0.00  0.00    +0.000 A 
ATOM     15  C   UNL     1      -2.089  15.759  24.884  0.00  0.00    +0.000 A 
ATOM     16 CL   UNL     1      -1.775  16.962  26.078  0.00  0.00    +0.000 Cl
ATOM     17  C   UNL     1      -3.387  15.291  24.669  0.00  0.00    +0.000 A 
ATOM     18  F   UNL     1      -4.422  15.875  25.292  0.00  0.00    +0.000 F 
ATOM     19  C   UNL     1      -3.651  14.180  23.858  0.00  0.00    +0.000 A 
ATOM     20  C   UNL     1      -2.532  13.547  23.312  0.00  0.00    +0.000 A 
ATOM     21  N   UNL     1      -2.335  12.333  22.690  0.00  0.00    +0.000 N 
ATOM     22  H   UNL     1      -3.027  11.606  22.569  0.00  0.00    +0.000 HD
ENDBRANCH  10  11
BRANCH   1  23
ATOM     23  O   UNL     1      -4.747  12.195  18.452  0.00  0.00    +0.000 OA
BRANCH  23  29
ATOM     24  O   UNL     1      -7.597  12.900  24.263  0.00  0.00    +0.000 OA
ATOM     25  C   UNL     1      -7.301  12.728  23.084  0.00  0.00    +0.000 C 
ATOM     26  C   UNL     1      -6.830  13.853  22.197  0.00  0.00    +0.000 C 
ATOM     27  C   UNL     1      -5.807  13.367  21.181  0.00  0.00    +0.000 C 
ATOM     28  C   UNL     1      -6.191  12.085  20.500  0.00  0.00    +0.000 A 
ATOM     29  C   UNL     1      -5.679  11.604  19.277  0.00  0.00    +0.000 A 
ATOM     30  C   UNL     1      -6.191  10.426  18.729  0.00  0.00    +0.000 A 
ATOM     31  C   UNL     1      -7.104   9.693  19.464  0.00  0.00    +0.000 A 
ATOM     32  N   UNL     1      -7.521  10.048  20.694  0.00  0.00    +0.000 NA
ATOM     33  C   UNL     1      -7.054  11.229  21.176  0.00  0.00    +0.000 A 
ATOM     34  N   UNL     1      -7.501  11.537  22.457  0.00  0.00    +0.000 N 
ATOM     35  H   UNL     1      -7.970  10.800  22.964  0.00  0.00    +0.000 HD
ENDBRANCH  23  29
ENDBRANCH   1  23
TORSDOF 3
ENDMDL
MODEL 3
REMARK VINA RESULT:      -8.1      7.789     10.842
REMARK  Name = 
REMARK  3 active torsions:
REMARK  status: ('A' for Active; 'I' for Inactive)
REMARK    1  A    between atoms: C_6  and  O_7
REMARK    2  A    between atoms: O_7  and  C_8
REMARK    3  A    between atoms: C_17  and  C_18
REMARK                            x       y       z     vdW  Elec       q    Type
REMARK                         _______ _______ _______ _____ _____    ______ ____
ROOT
ATOM      1  C   UNL     1       1.918   8.040  18.885  0.00  0.00    +0.000 A 
ATOM      2  C   UNL     1       1.355   8.141  20.166  0.00  0.00    +0.000 A 
ATOM      3  C   UNL     1       1.413   7.049  21.042  0.00  0.00    +0.000 A 
ATOM      4  C   UNL     1       1.895   5.863  20.543  0.00  0.00    +0.000 A 
ATOM      5  C   UNL     1       2.155   5.675  19.187  0.00  0.00    +0.000 A 
ATOM      6  C   UNL     1       2.197   6.777  18.346  0.00  0.00    +0.000 A 
ATOM      7  C   UNL     1       2.662   4.303  18.991  0.00  0.00    +0.000 C 
ATOM      8  C   UNL     1       2.900   3.802  20.319  0.00  0.00    +0.000 C 
ATOM      9  O   UNL     1       2.361   4.789  21.300  0.00  0.00    +0.000 OA
ATOM     10  C   UNL     1       4.164   4.146  19.484  0.00  0.00    +0.000 C 
ENDROOT
BRANCH  10  11
ATOM     11  C   UNL     1       4.797   4.365  18.078  0.00  0.00    +0.000 A 
ATOM     12  N   UNL     1       4.253   3.927  16.962  0.00  0.00    +0.000 NA
ATOM     13  C   UNL     1       5.137   4.221  15.973  0.00  0.00    +0.000 A 
ATOM     14  C   UNL     1       5.133   3.790  14.644  0.00  0.00    +0.000 A 
ATOM     15  C   UNL     1       6.197   4.187  13.834  0.00  0.00    +0.000 A 
ATOM     16 CL   UNL     1       6.370   3.453  12.284  0.00  0.00    +0.000 Cl
ATOM     17  C   UNL     1       7.142   5.106  14.296  0.00  0.00    +0.000 A 
ATOM     18  F   UNL     1       8.118   5.531  13.480  0.00  0.00    +0.000 F 
ATOM     19  C   UNL     1       7.144   5.566  15.619  0.00  0.00    +0.000 A 
ATOM     20  C   UNL     1       6.169   5.018  16.455  0.00  0.00    +0.000 A 
ATOM     21  N   UNL     1       5.984   5.007  17.820  0.00  0.00    +0.000 N 
ATOM     22  H   UNL     1       6.618   5.383  18.511  0.00  0.00    +0.000 HD
ENDBRANCH  10  11
BRANCH   1  23
ATOM     23  O   UNL     1       2.293   9.096  18.097  0.00  0.00    +0.000 OA
BRANCH  23  29
ATOM     24  O   UNL     1      -3.566  11.766  17.127  0.00  0.00    +0.000 OA
ATOM     25  C   UNL     1      -2.466  11.398  17.530  0.00  0.00    +0.000 C 
ATOM     26  C   UNL     1      -2.213   9.994  18.020  0.00  0.00    +0.000 C 
ATOM     27  C   UNL     1      -0.803   9.534  17.682  0.00  0.00    +0.000 C 
ATOM     28  C   UNL     1       0.257  10.557  17.982  0.00  0.00    +0.000 A 
ATOM     29  C   UNL     1       1.634  10.305  18.152  0.00  0.00    +0.000 A 
ATOM     30  C   UNL     1       2.489  11.352  18.502  0.00  0.00    +0.000 A 
ATOM     31  C   UNL     1       1.981  12.636  18.552  0.00  0.00    +0.000 A 
ATOM     32  N   UNL     1       0.700  12.939  18.267  0.00  0.00    +0.000 NA
ATOM     33  C   UNL     1      -0.122  11.894  17.991  0.00  0.00    +0.000 A 
ATOM     34  N   UNL     1      -1.428  12.265  17.685  0.00  0.00    +0.000 N 
ATOM     35  H   UNL     1      -1.597  13.248  17.527  0.00  0.00    +0.000 HD
ENDBRANCH  23  29
ENDBRANCH   1  23
TORSDOF 3
ENDMDL
MODEL 4
REMARK VINA RESULT:      -8.0      2.492      5.620
REMARK  Name = 
REMARK  3 active torsions:
REMARK  status: ('A' for Active; 'I' for Inactive)
REMARK    1  A    between atoms: C_6  and  O_7
REMARK    2  A    between atoms: O_7  and  C_8
REMARK    3  A    between atoms: C_17  and  C_18
REMARK                            x       y       z     vdW  Elec       q    Type
REMARK                         _______ _______ _______ _____ _____    ______ ____
ROOT
ATOM      1  C   UNL     1      -2.035  11.180  17.678  0.00  0.00    +0.000 A 
ATOM      2  C   UNL     1      -2.325  10.992  16.319  0.00  0.00    +0.000 A 
ATOM      3  C   UNL     1      -3.642  11.126  15.861  0.00  0.00    +0.000 A 
ATOM      4  C   UNL     1      -4.626  11.293  16.806  0.00  0.00    +0.000 A 
ATOM      5  C   UNL     1      -4.379  11.160  18.171  0.00  0.00    +0.000 A 
ATOM      6  C   UNL     1      -3.068  11.133  18.623  0.00  0.00    +0.000 A 
ATOM      7  C   UNL     1      -5.637  11.405  18.902  0.00  0.00    +0.000 C 
ATOM      8  C   UNL     1      -6.550  11.911  17.912  0.00  0.00    +0.000 C 
ATOM      9  O   UNL     1      -5.907  11.788  16.571  0.00  0.00    +0.000 OA
ATOM     10  C   UNL     1      -6.017  12.947  18.938  0.00  0.00    +0.000 C 
ENDROOT
BRANCH  10  11
ATOM     11  C   UNL     1      -5.387  13.214  20.337  0.00  0.00    +0.000 A 
ATOM     12  N   UNL     1      -4.470  14.133  20.557  0.00  0.00    +0.000 NA
ATOM     13  C   UNL     1      -4.105  13.995  21.858  0.00  0.00    +0.000 A 
ATOM     14  C   UNL     1      -3.029  14.583  22.529  0.00  0.00    +0.000 A 
ATOM     15  C   UNL     1      -2.829  14.231  23.863  0.00  0.00    +0.000 A 
ATOM     16 CL   UNL     1      -1.365  14.715  24.633  0.00  0.00    +0.000 Cl
ATOM     17  C   UNL     1      -3.762  13.441  24.540  0.00  0.00    +0.000 A 
ATOM     18  F   UNL     1      -3.591  13.171  25.843  0.00  0.00    +0.000 F 
ATOM     19  C   UNL     1      -4.859  12.864  23.887  0.00  0.00    +0.000 A 
ATOM     20  C   UNL     1      -4.937  13.094  22.512  0.00  0.00    +0.000 A 
ATOM     21  N   UNL     1      -5.679  12.534  21.495  0.00  0.00    +0.000 N 
ATOM     22  H   UNL     1      -6.307  11.747  21.579  0.00  0.00    +0.000 HD
ENDBRANCH  10  11
BRANCH   1  23
ATOM     23  O   UNL     1      -0.800  11.478  18.193  0.00  0.00    +0.000 OA
BRANCH  23  29
ATOM     24  O   UNL     1       0.777   9.483  24.187  0.00  0.00    +0.000 OA
ATOM     25  C   UNL     1       0.440   9.608  23.013  0.00  0.00    +0.000 C 
ATOM     26  C   UNL     1      -0.879  10.221  22.612  0.00  0.00    +0.000 C 
ATOM     27  C   UNL     1      -0.757  10.998  21.310  0.00  0.00    +0.000 C 
ATOM     28  C   UNL     1       0.005  10.269  20.239  0.00  0.00    +0.000 A 
ATOM     29  C   UNL     1      -0.049  10.530  18.853  0.00  0.00    +0.000 A 
ATOM     30  C   UNL     1       0.662   9.716  17.969  0.00  0.00    +0.000 A 
ATOM     31  C   UNL     1       1.500   8.746  18.487  0.00  0.00    +0.000 A 
ATOM     32  N   UNL     1       1.682   8.550  19.806  0.00  0.00    +0.000 NA
ATOM     33  C   UNL     1       0.932   9.314  20.642  0.00  0.00    +0.000 A 
ATOM     34  N   UNL     1       1.173   9.084  21.993  0.00  0.00    +0.000 N 
ATOM     35  H   UNL     1       1.979   8.520  22.221  0.00  0.00    +0.000 HD
ENDBRANCH  23  29
ENDBRANCH   1  23
TORSDOF 3
ENDMDL
MODEL 5
REMARK VINA RESULT:      -7.9      7.813     11.689
REMARK  Name = 
REMARK  3 active torsions:
REMARK  status: ('A' for Active; 'I' for Inactive)
REMARK    1  A    between atoms: C_6  and  O_7
REMARK    2  A    between atoms: O_7  and  C_8
REMARK    3  A    between atoms: C_17  and  C_18
REMARK                            x       y       z     vdW  Elec       q    Type
REMARK                         _______ _______ _______ _____ _____    ______ ____
ROOT
ATOM      1  C   UNL     1       3.794   3.295  17.408  0.00  0.00    +0.000 A 
ATOM      2  C   UNL     1       3.625   1.915  17.594  0.00  0.00    +0.000 A 
ATOM      3  C   UNL     1       3.038   1.435  18.772  0.00  0.00    +0.000 A 
ATOM      4  C   UNL     1       2.788   2.347  19.770  0.00  0.00    +0.000 A 
ATOM      5  C   UNL     1       3.248   3.661  19.712  0.00  0.00    +0.000 A 
ATOM      6  C   UNL     1       3.731   4.158  18.511  0.00  0.00    +0.000 A 
ATOM      7  C   UNL     1       2.806   4.368  20.929  0.00  0.00    +0.000 C 
ATOM      8  C   UNL     1       1.880   3.468  21.566  0.00  0.00    +0.000 C 
ATOM      9  O   UNL     1       1.916   2.164  20.841  0.00  0.00    +0.000 OA
ATOM     10  C   UNL     1       1.256   4.718  20.887  0.00  0.00    +0.000 C 
ENDROOT
BRANCH  10  11
ATOM     11  C   UNL     1       1.455   6.170  20.360  0.00  0.00    +0.000 A 
ATOM     12  N   UNL     1       1.176   7.244  21.069  0.00  0.00    +0.000 NA
ATOM     13  C   UNL     1       1.385   8.303  20.243  0.00  0.00    +0.000 A 
ATOM     14  C   UNL     1       1.040   9.642  20.440  0.00  0.00    +0.000 A 
ATOM     15  C   UNL     1       1.311  10.537  19.405  0.00  0.00    +0.000 A 
ATOM     16 CL   UNL     1       0.652  12.127  19.498  0.00  0.00    +0.000 Cl
ATOM     17  C   UNL     1       2.039  10.133  18.284  0.00  0.00    +0.000 A 
ATOM     18  F   UNL     1       2.352  11.024  17.331  0.00  0.00    +0.000 F 
ATOM     19  C   UNL     1       2.414   8.798  18.085  0.00  0.00    +0.000 A 
ATOM     20  C   UNL     1       1.978   7.893  19.055  0.00  0.00    +0.000 A 
ATOM     21  N   UNL     1       1.916   6.518  19.113  0.00  0.00    +0.000 N 
ATOM     22  H   UNL     1       2.144   5.878  18.364  0.00  0.00    +0.000 HD
ENDBRANCH  10  11
BRANCH   1  23
ATOM     23  O   UNL     1       3.963   3.919  16.200  0.00  0.00    +0.000 OA
BRANCH  23  29
ATOM     24  O   UNL     1       8.350   8.291  18.210  0.00  0.00    +0.000 OA
ATOM     25  C   UNL     1       7.730   7.317  17.793  0.00  0.00    +0.000 C 
ATOM     26  C   UNL     1       6.873   6.459  18.689  0.00  0.00    +0.000 C 
ATOM     27  C   UNL     1       5.656   5.925  17.949  0.00  0.00    +0.000 C 
ATOM     28  C   UNL     1       5.969   5.376  16.586  0.00  0.00    +0.000 A 
ATOM     29  C   UNL     1       5.169   4.482  15.843  0.00  0.00    +0.000 A 
ATOM     30  C   UNL     1       5.630   3.999  14.617  0.00  0.00    +0.000 A 
ATOM     31  C   UNL     1       6.808   4.508  14.103  0.00  0.00    +0.000 A 
ATOM     32  N   UNL     1       7.535   5.460  14.717  0.00  0.00    +0.000 NA
ATOM     33  C   UNL     1       7.096   5.865  15.936  0.00  0.00    +0.000 A 
ATOM     34  N   UNL     1       7.874   6.863  16.517  0.00  0.00    +0.000 N 
ATOM     35  H   UNL     1       8.563   7.305  15.926  0.00  0.00    +0.000 HD
ENDBRANCH  23  29
ENDBRANCH   1  23
TORSDOF 3
ENDMDL
MODEL 6
REMARK VINA RESULT:      -7.8      2.442      6.333
REMARK  Name = 
REMARK  3 active torsions:
REMARK  status: ('A' for Active; 'I' for Inactive)
REMARK    1  A    between atoms: C_6  and  O_7
REMARK    2  A    between atoms: O_7  and  C_8
REMARK    3  A    between atoms: C_17  and  C_18
REMARK                            x       y       z     vdW  Elec       q    Type
REMARK                         _______ _______ _______ _____ _____    ______ ____
ROOT
ATOM      1  C   UNL     1      -2.020  11.335  17.791  0.00  0.00    +0.000 A 
ATOM      2  C   UNL     1      -2.304  11.145  16.430  0.00  0.00    +0.000 A 
ATOM      3  C   UNL     1      -3.627  11.227  15.976  0.00  0.00    +0.000 A 
ATOM      4  C   UNL     1      -4.615  11.345  16.924  0.00  0.00    +0.000 A 
ATOM      5  C   UNL     1      -4.360  11.213  18.287  0.00  0.00    +0.000 A 
ATOM      6  C   UNL     1      -3.049  11.237  18.737  0.00  0.00    +0.000 A 
ATOM      7  C   UNL     1      -5.626  11.399  19.022  0.00  0.00    +0.000 C 
ATOM      8  C   UNL     1      -6.562  11.873  18.037  0.00  0.00    +0.000 C 
ATOM      9  O   UNL     1      -5.917  11.787  16.694  0.00  0.00    +0.000 OA
ATOM     10  C   UNL     1      -6.071  12.924  19.070  0.00  0.00    +0.000 C 
ENDROOT
BRANCH  10  11
ATOM     11  C   UNL     1      -5.450  13.206  20.470  0.00  0.00    +0.000 A 
ATOM     12  N   UNL     1      -4.582  14.170  20.698  0.00  0.00    +0.000 NA
ATOM     13  C   UNL     1      -4.205  14.036  21.996  0.00  0.00    +0.000 A 
ATOM     14  C   UNL     1      -3.159  14.672  22.670  0.00  0.00    +0.000 A 
ATOM     15  C   UNL     1      -2.935  14.315  23.999  0.00  0.00    +0.000 A 
ATOM     16 CL   UNL     1      -1.496  14.867  24.769  0.00  0.00    +0.000 Cl
ATOM     17  C   UNL     1      -3.821  13.469  24.670  0.00  0.00    +0.000 A 
ATOM     18  F   UNL     1      -3.631  13.192  25.968  0.00  0.00    +0.000 F 
ATOM     19  C   UNL     1      -4.889  12.842  24.013  0.00  0.00    +0.000 A 
ATOM     20  C   UNL     1      -4.985  13.084  22.641  0.00  0.00    +0.000 A 
ATOM     21  N   UNL     1      -5.700  12.497  21.620  0.00  0.00    +0.000 N 
ATOM     22  H   UNL     1      -6.286  11.677  21.697  0.00  0.00    +0.000 HD
ENDBRANCH  10  11
BRANCH   1  23
ATOM     23  O   UNL     1      -0.798  11.681  18.306  0.00  0.00    +0.000 OA
BRANCH  23  29
ATOM     24  O   UNL     1       2.842   6.347  19.136  0.00  0.00    +0.000 OA
ATOM     25  C   UNL     1       2.327   7.461  19.140  0.00  0.00    +0.000 C 
ATOM     26  C   UNL     1       2.376   8.378  17.944  0.00  0.00    +0.000 C 
ATOM     27  C   UNL     1       1.111   9.215  17.833  0.00  0.00    +0.000 C 
ATOM     28  C   UNL     1       0.671   9.824  19.135  0.00  0.00    +0.000 A 
ATOM     29  C   UNL     1      -0.193  10.928  19.289  0.00  0.00    +0.000 A 
ATOM     30  C   UNL     1      -0.451  11.429  20.567  0.00  0.00    +0.000 A 
ATOM     31  C   UNL     1       0.051  10.750  21.660  0.00  0.00    +0.000 A 
ATOM     32  N   UNL     1       0.771   9.617  21.564  0.00  0.00    +0.000 NA
ATOM     33  C   UNL     1       1.059   9.187  20.308  0.00  0.00    +0.000 A 
ATOM     34  N   UNL     1       1.787   8.002  20.266  0.00  0.00    +0.000 N 
ATOM     35  H   UNL     1       1.879   7.493  21.134  0.00  0.00    +0.000 HD
ENDBRANCH  23  29
ENDBRANCH   1  23
TORSDOF 3
ENDMDL
MODEL 7
REMARK VINA RESULT:      -7.8      8.450     11.345
REMARK  Name = 
REMARK  3 active torsions:
REMARK  status: ('A' for Active; 'I' for Inactive)
REMARK    1  A    between atoms: C_6  and  O_7
REMARK    2  A    between atoms: O_7  and  C_8
REMARK    3  A    between atoms: C_17  and  C_18
REMARK                            x       y       z     vdW  Elec       q    Type
REMARK                         _______ _______ _______ _____ _____    ______ ____
ROOT
ATOM      1  C   UNL     1       2.012   6.131  19.479  0.00  0.00    +0.000 A 
ATOM      2  C   UNL     1       1.286   5.651  20.580  0.00  0.00    +0.000 A 
ATOM      3  C   UNL     1       1.136   4.270  20.768  0.00  0.00    +0.000 A 
ATOM      4  C   UNL     1       1.589   3.443  19.769  0.00  0.00    +0.000 A 
ATOM      5  C   UNL     1       2.019   3.929  18.536  0.00  0.00    +0.000 A 
ATOM      6  C   UNL     1       2.264   5.286  18.390  0.00  0.00    +0.000 A 
ATOM      7  C   UNL     1       2.439   2.787  17.701  0.00  0.00    +0.000 C 
ATOM      8  C   UNL     1       2.450   1.658  18.594  0.00  0.00    +0.000 C 
ATOM      9  O   UNL     1       1.859   2.082  19.897  0.00  0.00    +0.000 OA
ATOM     10  C   UNL     1       3.841   2.196  18.160  0.00  0.00    +0.000 C 
ENDROOT
BRANCH  10  11
ATOM     11  C   UNL     1       4.678   3.002  17.123  0.00  0.00    +0.000 A 
ATOM     12  N   UNL     1       4.378   3.069  15.842  0.00  0.00    +0.000 NA
ATOM     13  C   UNL     1       5.383   3.771  15.258  0.00  0.00    +0.000 A 
ATOM     14  C   UNL     1       5.649   3.944  13.897  0.00  0.00    +0.000 A 
ATOM     15  C   UNL     1       6.789   4.667  13.548  0.00  0.00    +0.000 A 
ATOM     16 CL   UNL     1       7.296   4.663  11.901  0.00  0.00    +0.000 Cl
ATOM     17  C   UNL     1       7.546   5.321  14.524  0.00  0.00    +0.000 A 
ATOM     18  F   UNL     1       8.598   6.071  14.164  0.00  0.00    +0.000 F 
ATOM     19  C   UNL     1       7.277   5.177  15.891  0.00  0.00    +0.000 A 
ATOM     20  C   UNL     1       6.234   4.308  16.217  0.00  0.00    +0.000 A 
ATOM     21  N   UNL     1       5.821   3.716  17.391  0.00  0.00    +0.000 N 
ATOM     22  H   UNL     1       6.289   3.775  18.285  0.00  0.00    +0.000 HD
ENDBRANCH  10  11
BRANCH   1  23
ATOM     23  O   UNL     1       2.575   7.376  19.381  0.00  0.00    +0.000 OA
BRANCH  23  29
ATOM     24  O   UNL     1      -1.423  10.866  23.153  0.00  0.00    +0.000 OA
ATOM     25  C   UNL     1      -0.563  10.437  22.390  0.00  0.00    +0.000 C 
ATOM     26  C   UNL     1       0.618   9.632  22.873  0.00  0.00    +0.000 C 
ATOM     27  C   UNL     1       1.029   8.583  21.851  0.00  0.00    +0.000 C 
ATOM     28  C   UNL     1       1.096   9.102  20.443  0.00  0.00    +0.000 A 
ATOM     29  C   UNL     1       1.801   8.517  19.371  0.00  0.00    +0.000 A 
ATOM     30  C   UNL     1       1.830   9.159  18.131  0.00  0.00    +0.000 A 
ATOM     31  C   UNL     1       1.062  10.294  17.952  0.00  0.00    +0.000 A 
ATOM     32  N   UNL     1       0.271  10.812  18.910  0.00  0.00    +0.000 NA
ATOM     33  C   UNL     1       0.310  10.204  20.123  0.00  0.00    +0.000 A 
ATOM     34  N   UNL     1      -0.541  10.768  21.069  0.00  0.00    +0.000 N 
ATOM     35  H   UNL     1      -1.215  11.439  20.732  0.00  0.00    +0.000 HD
ENDBRANCH  23  29
ENDBRANCH   1  23
TORSDOF 3
ENDMDL
MODEL 8
REMARK VINA RESULT:      -7.7      7.540     10.233
REMARK  Name = 
REMARK  3 active torsions:
REMARK  status: ('A' for Active; 'I' for Inactive)
REMARK    1  A    between atoms: C_6  and  O_7
REMARK    2  A    between atoms: O_7  and  C_8
REMARK    3  A    between atoms: C_17  and  C_18
REMARK                            x       y       z     vdW  Elec       q    Type
REMARK                         _______ _______ _______ _____ _____    ______ ____
ROOT
ATOM      1  C   UNL     1       2.961   6.205  18.641  0.00  0.00    +0.000 A 
ATOM      2  C   UNL     1       2.371   4.958  18.389  0.00  0.00    +0.000 A 
ATOM      3  C   UNL     1       3.027   4.027  17.573  0.00  0.00    +0.000 A 
ATOM      4  C   UNL     1       4.167   4.444  16.929  0.00  0.00    +0.000 A 
ATOM      5  C   UNL     1       4.577   5.776  16.925  0.00  0.00    +0.000 A 
ATOM      6  C   UNL     1       3.991   6.668  17.811  0.00  0.00    +0.000 A 
ATOM      7  C   UNL     1       5.830   5.880  16.153  0.00  0.00    +0.000 C 
ATOM      8  C   UNL     1       6.236   4.520  15.919  0.00  0.00    +0.000 C 
ATOM      9  O   UNL     1       5.141   3.615  16.376  0.00  0.00    +0.000 OA
ATOM     10  C   UNL     1       7.077   5.311  16.958  0.00  0.00    +0.000 C 
ENDROOT
BRANCH  10  11
ATOM     11  C   UNL     1       7.534   6.696  17.505  0.00  0.00    +0.000 A 
ATOM     12  N   UNL     1       7.264   7.838  16.906  0.00  0.00    +0.000 NA
ATOM     13  C   UNL     1       7.906   8.797  17.621  0.00  0.00    +0.000 A 
ATOM     14  C   UNL     1       8.110  10.140  17.291  0.00  0.00    +0.000 A 
ATOM     15  C   UNL     1       8.862  10.915  18.174  0.00  0.00    +0.000 A 
ATOM     16 CL   UNL     1       9.365  12.484  17.670  0.00  0.00    +0.000 Cl
ATOM     17  C   UNL     1       9.260  10.403  19.412  0.00  0.00    +0.000 A 
ATOM     18  F   UNL     1       9.921  11.184  20.279  0.00  0.00    +0.000 F 
ATOM     19  C   UNL     1       9.041   9.065  19.766  0.00  0.00    +0.000 A 
ATOM     20  C   UNL     1       8.439   8.269  18.791  0.00  0.00    +0.000 A 
ATOM     21  N   UNL     1       8.277   6.909  18.641  0.00  0.00    +0.000 N 
ATOM     22  H   UNL     1       8.657   6.192  19.244  0.00  0.00    +0.000 HD
ENDBRANCH  10  11
BRANCH   1  23
ATOM     23  O   UNL     1       2.661   7.027  19.696  0.00  0.00    +0.000 OA
BRANCH  23  29
ATOM     24  O   UNL     1      -1.469  10.855  22.963  0.00  0.00    +0.000 OA
ATOM     25  C   UNL     1      -0.587  10.357  22.270  0.00  0.00    +0.000 C 
ATOM     26  C   UNL     1       0.602   9.643  22.862  0.00  0.00    +0.000 C 
ATOM     27  C   UNL     1       1.051   8.488  21.981  0.00  0.00    +0.000 C 
ATOM     28  C   UNL     1       1.130   8.834  20.521  0.00  0.00    +0.000 A 
ATOM     29  C   UNL     1       1.864   8.140  19.537  0.00  0.00    +0.000 A 
ATOM     30  C   UNL     1       1.900   8.628  18.229  0.00  0.00    +0.000 A 
ATOM     31  C   UNL     1       1.112   9.716  17.905  0.00  0.00    +0.000 A 
ATOM     32  N   UNL     1       0.295  10.328  18.782  0.00  0.00    +0.000 NA
ATOM     33  C   UNL     1       0.327   9.871  20.060  0.00  0.00    +0.000 A 
ATOM     34  N   UNL     1      -0.551  10.526  20.919  0.00  0.00    +0.000 N 
ATOM     35  H   UNL     1      -1.234  11.137  20.494  0.00  0.00    +0.000 HD
ENDBRANCH  23  29
ENDBRANCH   1  23
TORSDOF 3
ENDMDL
MODEL 9
REMARK VINA RESULT:      -7.6      4.566      6.929
REMARK  Name = 
REMARK  3 active torsions:
REMARK  status: ('A' for Active; 'I' for Inactive)
REMARK    1  A    between atoms: C_6  and  O_7
REMARK    2  A    between atoms: O_7  and  C_8
REMARK    3  A    between atoms: C_17  and  C_18
REMARK                            x       y       z     vdW  Elec       q    Type
REMARK                         _______ _______ _______ _____ _____    ______ ____
ROOT
ATOM      1  C   UNL     1       0.843  12.540  18.780  0.00  0.00    +0.000 A 
ATOM      2  C   UNL     1       2.076  12.549  18.111  0.00  0.00    +0.000 A 
ATOM      3  C   UNL     1       2.948  13.635  18.269  0.00  0.00    +0.000 A 
ATOM      4  C   UNL     1       2.481  14.724  18.965  0.00  0.00    +0.000 A 
ATOM      5  C   UNL     1       1.149  14.845  19.355  0.00  0.00    +0.000 A 
ATOM      6  C   UNL     1       0.320  13.735  19.292  0.00  0.00    +0.000 A 
ATOM      7  C   UNL     1       0.986  16.119  20.081  0.00  0.00    +0.000 C 
ATOM      8  C   UNL     1       2.325  16.602  20.290  0.00  0.00    +0.000 C 
ATOM      9  O   UNL     1       3.266  15.727  19.530  0.00  0.00    +0.000 OA
ATOM     10  C   UNL     1       1.596  16.054  21.547  0.00  0.00    +0.000 C 
ENDROOT
BRANCH  10  11
ATOM     11  C   UNL     1       0.246  15.715  22.245  0.00  0.00    +0.000 A 
ATOM     12  N   UNL     1       0.029  14.594  22.901  0.00  0.00    +0.000 NA
ATOM     13  C   UNL     1      -1.276  14.624  23.275  0.00  0.00    +0.000 A 
ATOM     14  C   UNL     1      -2.054  13.594  23.810  0.00  0.00    +0.000 A 
ATOM     15  C   UNL     1      -3.400  13.863  24.057  0.00  0.00    +0.000 A 
ATOM     16 CL   UNL     1      -4.444  12.548  24.449  0.00  0.00    +0.000 Cl
ATOM     17  C   UNL     1      -3.907  15.157  23.919  0.00  0.00    +0.000 A 
ATOM     18  F   UNL     1      -5.186  15.413  24.229  0.00  0.00    +0.000 F 
ATOM     19  C   UNL     1      -3.132  16.206  23.407  0.00  0.00    +0.000 A 
ATOM     20  C   UNL     1      -1.838  15.867  23.006  0.00  0.00    +0.000 A 
ATOM     21  N   UNL     1      -0.877  16.508  22.256  0.00  0.00    +0.000 N 
ATOM     22  H   UNL     1      -0.984  17.391  21.777  0.00  0.00    +0.000 HD
ENDBRANCH  10  11
BRANCH   1  23
ATOM     23  O   UNL     1       0.093  11.425  19.049  0.00  0.00    +0.000 OA
BRANCH  23  29
ATOM     24  O   UNL     1       3.025   5.629  18.590  0.00  0.00    +0.000 OA
ATOM     25  C   UNL     1       2.653   6.769  18.855  0.00  0.00    +0.000 C 
ATOM     26  C   UNL     1       2.836   7.922  17.899  0.00  0.00    +0.000 C 
ATOM     27  C   UNL     1       1.686   8.913  18.000  0.00  0.00    +0.000 C 
ATOM     28  C   UNL     1       1.305   9.258  19.411  0.00  0.00    +0.000 A 
ATOM     29  C   UNL     1       0.584  10.398  19.825  0.00  0.00    +0.000 A 
ATOM     30  C   UNL     1       0.369  10.622  21.187  0.00  0.00    +0.000 A 
ATOM     31  C   UNL     1       0.766   9.654  22.090  0.00  0.00    +0.000 A 
ATOM     32  N   UNL     1       1.339   8.491  21.727  0.00  0.00    +0.000 NA
ATOM     33  C   UNL     1       1.591   8.327  20.403  0.00  0.00    +0.000 A 
ATOM     34  N   UNL     1       2.166   7.101  20.082  0.00  0.00    +0.000 N 
ATOM     35  H   UNL     1       2.180   6.401  20.809  0.00  0.00    +0.000 HD
ENDBRANCH  23  29
ENDBRANCH   1  23
TORSDOF 3
ENDMDL
