MODEL 1
REMARK VINA RESULT:      -7.0      0.000      0.000
REMARK  Name = 
REMARK  9 active torsions:
REMARK  status: ('A' for Active; 'I' for Inactive)
REMARK    1  A    between atoms: C_1  and  O_2
REMARK    2  A    between atoms: O_2  and  C_3
REMARK    3  A    between atoms: C_6  and  N_7
REMARK    4  A    between atoms: C_8  and  C_10
REMARK    5  A    between atoms: C_10  and  N_11
REMARK    6  A    between atoms: C_13  and  C_14
REMARK    7  A    between atoms: C_14  and  C_15
REMARK    8  A    between atoms: C_15  and  C_16
REMARK    9  A    between atoms: C_16  and  C_17
REMARK                            x       y       z     vdW  Elec       q    Type
REMARK                         _______ _______ _______ _____ _____    ______ ____
ROOT
ATOM      1  N   UNL     1       4.868   6.465  18.273  0.00  0.00    +0.000 N 
ATOM      2  C   UNL     1       4.273   5.876  19.343  0.00  0.00    +0.000 A 
ATOM      3  C   UNL     1       2.949   6.218  19.222  0.00  0.00    +0.000 A 
ATOM      4  N   UNL     1       2.786   6.982  18.093  0.00  0.00    +0.000 NA
ATOM      5  N   UNL     1       3.966   7.101  17.503  0.00  0.00    +0.000 NA
ENDROOT
BRANCH   1   6
ATOM      6  C   UNL     1       6.261   6.462  17.926  0.00  0.00    +0.000 C 
BRANCH   6   8
ATOM      7  N   UNL     1       6.156   5.789  15.518  0.00  0.00    +0.000 N 
ATOM      8  C   UNL     1       6.572   5.490  16.808  0.00  0.00    +0.000 C 
ATOM      9  O   UNL     1       7.156   4.429  17.143  0.00  0.00    +0.000 OA
ATOM     10  H   UNL     1       5.630   6.658  15.376  0.00  0.00    +0.000 HD
BRANCH   7  14
ATOM     11  C   UNL     1       6.819   3.409  12.052  0.00  0.00    +0.000 A 
ATOM     12  C   UNL     1       7.673   4.462  12.361  0.00  0.00    +0.000 A 
ATOM     13  C   UNL     1       7.500   5.194  13.535  0.00  0.00    +0.000 A 
ATOM     14  C   UNL     1       6.405   4.974  14.381  0.00  0.00    +0.000 A 
ATOM     15  C   UNL     1       5.560   3.908  14.058  0.00  0.00    +0.000 A 
ATOM     16  C   UNL     1       5.756   3.142  12.904  0.00  0.00    +0.000 A 
BRANCH  11  18
ATOM     17  C   UNL     1       6.644   1.327  10.977  0.00  0.00    +0.000 C 
ATOM     18  O   UNL     1       7.118   2.674  10.937  0.00  0.00    +0.000 OA
ENDBRANCH  11  18
ENDBRANCH   7  14
ENDBRANCH   6   8
ENDBRANCH   1   6
BRANCH   3  19
ATOM     19  C   UNL     1       1.800   5.813  20.072  0.00  0.00    +0.000 C 
BRANCH  19  20
ATOM     20  C   UNL     1       2.202   4.786  21.130  0.00  0.00    +0.000 C 
BRANCH  20  21
ATOM     21  C   UNL     1       1.414   3.481  21.024  0.00  0.00    +0.000 C 
BRANCH  21  22
ATOM     22  C   UNL     1       1.848   2.685  19.843  0.00  0.00    +0.000 A 
ATOM     23  C   UNL     1       1.123   2.382  18.713  0.00  0.00    +0.000 A 
ATOM     24  N   UNL     1       1.968   1.642  17.938  0.00  0.00    +0.000 N 
ATOM     25  C   UNL     1       3.151   1.517  18.611  0.00  0.00    +0.000 A 
ATOM     26  N   UNL     1       4.170   0.841  18.080  0.00  0.00    +0.000 N 
ATOM     27  N   UNL     1       3.106   2.131  19.767  0.00  0.00    +0.000 NA
ATOM     28  H   UNL     1       1.772   1.259  17.027  0.00  0.00    +0.000 HD
ATOM     29  H   UNL     1       4.159   0.367  17.186  0.00  0.00    +0.000 HD
ATOM     30  H   UNL     1       5.025   0.754  18.620  0.00  0.00    +0.000 HD
ENDBRANCH  21  22
ENDBRANCH  20  21
ENDBRANCH  19  20
ENDBRANCH   3  19
TORSDOF 8
ENDMDL
MODEL 2
REMARK VINA RESULT:      -6.9      4.702      7.379
REMARK  Name = 
REMARK  9 active torsions:
REMARK  status: ('A' for Active; 'I' for Inactive)
REMARK    1  A    between atoms: C_1  and  O_2
REMARK    2  A    between atoms: O_2  and  C_3
REMARK    3  A    between atoms: C_6  and  N_7
REMARK    4  A    between atoms: C_8  and  C_10
REMARK    5  A    between atoms: C_10  and  N_11
REMARK    6  A    between atoms: C_13  and  C_14
REMARK    7  A    between atoms: C_14  and  C_15
REMARK    8  A    between atoms: C_15  and  C_16
REMARK    9  A    between atoms: C_16  and  C_17
REMARK                            x       y       z     vdW  Elec       q    Type
REMARK                         _______ _______ _______ _____ _____    ______ ____
ROOT
ATOM      1  N   UNL     1       7.243   6.199  17.544  0.00  0.00    +0.000 N 
ATOM      2  C   UNL     1       6.125   5.445  17.714  0.00  0.00    +0.000 A 
ATOM      3  C   UNL     1       5.685   5.202  16.436  0.00  0.00    +0.000 A 
ATOM      4  N   UNL     1       6.544   5.799  15.546  0.00  0.00    +0.000 NA
ATOM      5  N   UNL     1       7.512   6.382  16.237  0.00  0.00    +0.000 NA
ENDROOT
BRANCH   1   6
ATOM      6  C   UNL     1       8.088   6.767  18.556  0.00  0.00    +0.000 C 
BRANCH   6   8
ATOM      7  N   UNL     1       9.071   8.952  19.275  0.00  0.00    +0.000 N 
ATOM      8  C   UNL     1       8.235   8.266  18.406  0.00  0.00    +0.000 C 
ATOM      9  O   UNL     1       7.535   8.805  17.512  0.00  0.00    +0.000 OA
ATOM     10  H   UNL     1       9.545   8.413  20.008  0.00  0.00    +0.000 HD
BRANCH   7  14
ATOM     11  C   UNL     1       9.914  13.123  19.148  0.00  0.00    +0.000 A 
ATOM     12  C   UNL     1       9.816  12.384  17.973  0.00  0.00    +0.000 A 
ATOM     13  C   UNL     1       9.467  11.035  18.011  0.00  0.00    +0.000 A 
ATOM     14  C   UNL     1       9.314  10.351  19.224  0.00  0.00    +0.000 A 
ATOM     15  C   UNL     1       9.410  11.110  20.394  0.00  0.00    +0.000 A 
ATOM     16  C   UNL     1       9.717  12.475  20.360  0.00  0.00    +0.000 A 
BRANCH  11  18
ATOM     17  C   UNL     1      10.009  15.206  20.231  0.00  0.00    +0.000 C 
ATOM     18  O   UNL     1      10.158  14.463  19.019  0.00  0.00    +0.000 OA
ENDBRANCH  11  18
ENDBRANCH   7  14
ENDBRANCH   6   8
ENDBRANCH   1   6
BRANCH   3  19
ATOM     19  C   UNL     1       4.532   4.379  15.989  0.00  0.00    +0.000 C 
BRANCH  19  20
ATOM     20  C   UNL     1       3.811   3.715  17.161  0.00  0.00    +0.000 C 
BRANCH  20  21
ATOM     21  C   UNL     1       2.560   4.475  17.598  0.00  0.00    +0.000 C 
BRANCH  21  22
ATOM     22  C   UNL     1       2.455   4.529  19.083  0.00  0.00    +0.000 A 
ATOM     23  C   UNL     1       2.450   5.642  19.892  0.00  0.00    +0.000 A 
ATOM     24  N   UNL     1       2.328   5.157  21.161  0.00  0.00    +0.000 N 
ATOM     25  C   UNL     1       2.272   3.793  21.084  0.00  0.00    +0.000 A 
ATOM     26  N   UNL     1       2.145   3.053  22.185  0.00  0.00    +0.000 N 
ATOM     27  N   UNL     1       2.352   3.385  19.843  0.00  0.00    +0.000 NA
ATOM     28  H   UNL     1       2.278   5.695  22.011  0.00  0.00    +0.000 HD
ATOM     29  H   UNL     1       2.101   3.408  23.131  0.00  0.00    +0.000 HD
ATOM     30  H   UNL     1       2.126   2.043  22.088  0.00  0.00    +0.000 HD
ENDBRANCH  21  22
ENDBRANCH  20  21
ENDBRANCH  19  20
ENDBRANCH   3  19
TORSDOF 8
ENDMDL
MODEL 3
REMARK VINA RESULT:      -6.9      3.700      8.135
REMARK  Name = 
REMARK  9 active torsions:
REMARK  status: ('A' for Active; 'I' for Inactive)
REMARK    1  A    between atoms: C_1  and  O_2
REMARK    2  A    between atoms: O_2  and  C_3
REMARK    3  A    between atoms: C_6  and  N_7
REMARK    4  A    between atoms: C_8  and  C_10
REMARK    5  A    between atoms: C_10  and  N_11
REMARK    6  A    between atoms: C_13  and  C_14
REMARK    7  A    between atoms: C_14  and  C_15
REMARK    8  A    between atoms: C_15  and  C_16
REMARK    9  A    between atoms: C_16  and  C_17
REMARK                            x       y       z     vdW  Elec       q    Type
REMARK                         _______ _______ _______ _____ _____    ______ ____
ROOT
ATOM      1  N   UNL     1       3.451   3.728  19.019  0.00  0.00    +0.000 N 
ATOM      2  C   UNL     1       3.695   4.530  17.949  0.00  0.00    +0.000 A 
ATOM      3  C   UNL     1       4.118   3.665  16.970  0.00  0.00    +0.000 A 
ATOM      4  N   UNL     1       4.107   2.386  17.468  0.00  0.00    +0.000 NA
ATOM      5  N   UNL     1       3.667   2.434  18.716  0.00  0.00    +0.000 NA
ENDROOT
BRANCH   1   6
ATOM      6  C   UNL     1       3.018   4.115  20.332  0.00  0.00    +0.000 C 
BRANCH   6   8
ATOM      7  N   UNL     1       2.653   6.584  20.156  0.00  0.00    +0.000 N 
ATOM      8  C   UNL     1       2.101   5.319  20.301  0.00  0.00    +0.000 C 
ATOM      9  O   UNL     1       0.877   5.087  20.463  0.00  0.00    +0.000 OA
ATOM     10  H   UNL     1       3.674   6.655  20.095  0.00  0.00    +0.000 HD
BRANCH   7  14
ATOM     11  C   UNL     1       0.494  10.250  20.000  0.00  0.00    +0.000 A 
ATOM     12  C   UNL     1       1.122   9.750  18.864  0.00  0.00    +0.000 A 
ATOM     13  C   UNL     1       1.765   8.513  18.896  0.00  0.00    +0.000 A 
ATOM     14  C   UNL     1       1.901   7.788  20.088  0.00  0.00    +0.000 A 
ATOM     15  C   UNL     1       1.260   8.303  21.218  0.00  0.00    +0.000 A 
ATOM     16  C   UNL     1       0.575   9.523  21.180  0.00  0.00    +0.000 A 
BRANCH  11  18
ATOM     17  C   UNL     1      -1.197  11.634  20.864  0.00  0.00    +0.000 C 
ATOM     18  O   UNL     1      -0.203  11.419  19.860  0.00  0.00    +0.000 OA
ENDBRANCH  11  18
ENDBRANCH   7  14
ENDBRANCH   6   8
ENDBRANCH   1   6
BRANCH   3  19
ATOM     19  C   UNL     1       4.474   3.959  15.558  0.00  0.00    +0.000 C 
BRANCH  19  20
ATOM     20  C   UNL     1       5.526   5.062  15.448  0.00  0.00    +0.000 C 
BRANCH  20  21
ATOM     21  C   UNL     1       6.912   4.611  15.905  0.00  0.00    +0.000 C 
BRANCH  21  22
ATOM     22  C   UNL     1       7.327   5.321  17.146  0.00  0.00    +0.000 A 
ATOM     23  C   UNL     1       7.495   6.674  17.333  0.00  0.00    +0.000 A 
ATOM     24  N   UNL     1       7.872   6.807  18.637  0.00  0.00    +0.000 N 
ATOM     25  C   UNL     1       7.926   5.557  19.187  0.00  0.00    +0.000 A 
ATOM     26  N   UNL     1       8.266   5.387  20.465  0.00  0.00    +0.000 N 
ATOM     27  N   UNL     1       7.609   4.639  18.309  0.00  0.00    +0.000 NA
ATOM     28  H   UNL     1       8.068   7.667  19.124  0.00  0.00    +0.000 HD
ATOM     29  H   UNL     1       8.519   6.126  21.109  0.00  0.00    +0.000 HD
ATOM     30  H   UNL     1       8.313   4.442  20.831  0.00  0.00    +0.000 HD
ENDBRANCH  21  22
ENDBRANCH  20  21
ENDBRANCH  19  20
ENDBRANCH   3  19
TORSDOF 8
ENDMDL
MODEL 4
REMARK VINA RESULT:      -6.9      3.800      7.982
REMARK  Name = 
REMARK  9 active torsions:
REMARK  status: ('A' for Active; 'I' for Inactive)
REMARK    1  A    between atoms: C_1  and  O_2
REMARK    2  A    between atoms: O_2  and  C_3
REMARK    3  A    between atoms: C_6  and  N_7
REMARK    4  A    between atoms: C_8  and  C_10
REMARK    5  A    between atoms: C_10  and  N_11
REMARK    6  A    between atoms: C_13  and  C_14
REMARK    7  A    between atoms: C_14  and  C_15
REMARK    8  A    between atoms: C_15  and  C_16
REMARK    9  A    between atoms: C_16  and  C_17
REMARK                            x       y       z     vdW  Elec       q    Type
REMARK                         _______ _______ _______ _____ _____    ______ ____
ROOT
ATOM      1  N   UNL     1       3.193   3.541  20.171  0.00  0.00    +0.000 N 
ATOM      2  C   UNL     1       3.307   3.902  18.866  0.00  0.00    +0.000 A 
ATOM      3  C   UNL     1       4.248   3.040  18.359  0.00  0.00    +0.000 A 
ATOM      4  N   UNL     1       4.659   2.191  19.356  0.00  0.00    +0.000 NA
ATOM      5  N   UNL     1       3.983   2.489  20.455  0.00  0.00    +0.000 NA
ENDROOT
BRANCH   1   6
ATOM      6  C   UNL     1       2.369   4.139  21.183  0.00  0.00    +0.000 C 
BRANCH   6   8
ATOM      7  N   UNL     1       2.357   6.572  20.600  0.00  0.00    +0.000 N 
ATOM      8  C   UNL     1       1.656   5.377  20.684  0.00  0.00    +0.000 C 
ATOM      9  O   UNL     1       0.434   5.246  20.421  0.00  0.00    +0.000 OA
ATOM     10  H   UNL     1       3.337   6.572  20.903  0.00  0.00    +0.000 HD
BRANCH   7  14
ATOM     11  C   UNL     1       0.636  10.176  19.128  0.00  0.00    +0.000 A 
ATOM     12  C   UNL     1       0.416   9.772  20.440  0.00  0.00    +0.000 A 
ATOM     13  C   UNL     1       1.040   8.631  20.945  0.00  0.00    +0.000 A 
ATOM     14  C   UNL     1       1.812   7.796  20.127  0.00  0.00    +0.000 A 
ATOM     15  C   UNL     1       2.027   8.221  18.812  0.00  0.00    +0.000 A 
ATOM     16  C   UNL     1       1.439   9.388  18.314  0.00  0.00    +0.000 A 
BRANCH  11  18
ATOM     17  C   UNL     1       0.125  12.389  19.732  0.00  0.00    +0.000 C 
ATOM     18  O   UNL     1       0.072  11.361  18.741  0.00  0.00    +0.000 OA
ENDBRANCH  11  18
ENDBRANCH   7  14
ENDBRANCH   6   8
ENDBRANCH   1   6
BRANCH   3  19
ATOM     19  C   UNL     1       4.744   2.918  16.964  0.00  0.00    +0.000 C 
BRANCH  19  20
ATOM     20  C   UNL     1       4.918   4.280  16.294  0.00  0.00    +0.000 C 
BRANCH  20  21
ATOM     21  C   UNL     1       6.377   4.616  15.996  0.00  0.00    +0.000 C 
BRANCH  21  22
ATOM     22  C   UNL     1       7.017   5.308  17.149  0.00  0.00    +0.000 A 
ATOM     23  C   UNL     1       7.273   6.651  17.296  0.00  0.00    +0.000 A 
ATOM     24  N   UNL     1       7.860   6.768  18.522  0.00  0.00    +0.000 N 
ATOM     25  C   UNL     1       7.946   5.517  19.066  0.00  0.00    +0.000 A 
ATOM     26  N   UNL     1       8.478   5.333  20.274  0.00  0.00    +0.000 N 
ATOM     27  N   UNL     1       7.451   4.614  18.257  0.00  0.00    +0.000 NA
ATOM     28  H   UNL     1       8.170   7.619  18.965  0.00  0.00    +0.000 HD
ATOM     29  H   UNL     1       8.864   6.060  20.863  0.00  0.00    +0.000 HD
ATOM     30  H   UNL     1       8.541   4.387  20.635  0.00  0.00    +0.000 HD
ENDBRANCH  21  22
ENDBRANCH  20  21
ENDBRANCH  19  20
ENDBRANCH   3  19
TORSDOF 8
ENDMDL
MODEL 5
REMARK VINA RESULT:      -6.8      4.020      6.411
REMARK  Name = 
REMARK  9 active torsions:
REMARK  status: ('A' for Active; 'I' for Inactive)
REMARK    1  A    between atoms: C_1  and  O_2
REMARK    2  A    between atoms: O_2  and  C_3
REMARK    3  A    between atoms: C_6  and  N_7
REMARK    4  A    between atoms: C_8  and  C_10
REMARK    5  A    between atoms: C_10  and  N_11
REMARK    6  A    between atoms: C_13  and  C_14
REMARK    7  A    between atoms: C_14  and  C_15
REMARK    8  A    between atoms: C_15  and  C_16
REMARK    9  A    between atoms: C_16  and  C_17
REMARK                            x       y       z     vdW  Elec       q    Type
REMARK                         _______ _______ _______ _____ _____    ______ ____
ROOT
ATOM      1  N   UNL     1       5.812   6.234  17.910  0.00  0.00    +0.000 N 
ATOM      2  C   UNL     1       4.508   6.565  17.720  0.00  0.00    +0.000 A 
ATOM      3  C   UNL     1       3.838   5.858  18.688  0.00  0.00    +0.000 A 
ATOM      4  N   UNL     1       4.746   5.142  19.429  0.00  0.00    +0.000 NA
ATOM      5  N   UNL     1       5.957   5.405  18.961  0.00  0.00    +0.000 NA
ENDROOT
BRANCH   1   6
ATOM      6  C   UNL     1       6.951   6.662  17.147  0.00  0.00    +0.000 C 
BRANCH   6   8
ATOM      7  N   UNL     1       7.719   9.022  17.471  0.00  0.00    +0.000 N 
ATOM      8  C   UNL     1       7.776   7.697  17.882  0.00  0.00    +0.000 C 
ATOM      9  O   UNL     1       8.512   7.266  18.804  0.00  0.00    +0.000 OA
ATOM     10  H   UNL     1       7.128   9.246  16.663  0.00  0.00    +0.000 HD
BRANCH   7  14
ATOM     11  C   UNL     1       9.931  12.180  19.274  0.00  0.00    +0.000 A 
ATOM     12  C   UNL     1       9.165  12.412  18.136  0.00  0.00    +0.000 A 
ATOM     13  C   UNL     1       8.382  11.397  17.590  0.00  0.00    +0.000 A 
ATOM     14  C   UNL     1       8.424  10.089  18.091  0.00  0.00    +0.000 A 
ATOM     15  C   UNL     1       9.195   9.875  19.237  0.00  0.00    +0.000 A 
ATOM     16  C   UNL     1       9.948  10.902  19.816  0.00  0.00    +0.000 A 
BRANCH  11  18
ATOM     17  C   UNL     1       9.772  14.413  19.988  0.00  0.00    +0.000 C 
ATOM     18  O   UNL     1      10.589  13.254  19.809  0.00  0.00    +0.000 OA
ENDBRANCH  11  18
ENDBRANCH   7  14
ENDBRANCH   6   8
ENDBRANCH   1   6
BRANCH   3  19
ATOM     19  C   UNL     1       2.387   5.864  19.010  0.00  0.00    +0.000 C 
BRANCH  19  20
ATOM     20  C   UNL     1       2.116   5.429  20.450  0.00  0.00    +0.000 C 
BRANCH  20  21
ATOM     21  C   UNL     1       1.246   4.177  20.540  0.00  0.00    +0.000 C 
BRANCH  21  22
ATOM     22  C   UNL     1       1.723   3.121  19.605  0.00  0.00    +0.000 A 
ATOM     23  C   UNL     1       1.087   2.624  18.491  0.00  0.00    +0.000 A 
ATOM     24  N   UNL     1       1.939   1.687  17.984  0.00  0.00    +0.000 N 
ATOM     25  C   UNL     1       3.039   1.640  18.794  0.00  0.00    +0.000 A 
ATOM     26  N   UNL     1       4.046   0.807  18.531  0.00  0.00    +0.000 N 
ATOM     27  N   UNL     1       2.935   2.490  19.785  0.00  0.00    +0.000 NA
ATOM     28  H   UNL     1       1.801   1.129  17.157  0.00  0.00    +0.000 HD
ATOM     29  H   UNL     1       4.081   0.153  17.759  0.00  0.00    +0.000 HD
ATOM     30  H   UNL     1       4.836   0.788  19.167  0.00  0.00    +0.000 HD
ENDBRANCH  21  22
ENDBRANCH  20  21
ENDBRANCH  19  20
ENDBRANCH   3  19
TORSDOF 8
ENDMDL
MODEL 6
REMARK VINA RESULT:      -6.8      4.479      7.082
REMARK  Name = 
REMARK  9 active torsions:
REMARK  status: ('A' for Active; 'I' for Inactive)
REMARK    1  A    between atoms: C_1  and  O_2
REMARK    2  A    between atoms: O_2  and  C_3
REMARK    3  A    between atoms: C_6  and  N_7
REMARK    4  A    between atoms: C_8  and  C_10
REMARK    5  A    between atoms: C_10  and  N_11
REMARK    6  A    between atoms: C_13  and  C_14
REMARK    7  A    between atoms: C_14  and  C_15
REMARK    8  A    between atoms: C_15  and  C_16
REMARK    9  A    between atoms: C_16  and  C_17
REMARK                            x       y       z     vdW  Elec       q    Type
REMARK                         _______ _______ _______ _____ _____    ______ ____
ROOT
ATOM      1  N   UNL     1       7.209   5.709  17.985  0.00  0.00    +0.000 N 
ATOM      2  C   UNL     1       5.852   5.661  17.943  0.00  0.00    +0.000 A 
ATOM      3  C   UNL     1       5.578   4.785  16.922  0.00  0.00    +0.000 A 
ATOM      4  N   UNL     1       6.761   4.329  16.394  0.00  0.00    +0.000 NA
ATOM      5  N   UNL     1       7.755   4.879  17.075  0.00  0.00    +0.000 NA
ENDROOT
BRANCH   1   6
ATOM      6  C   UNL     1       8.038   6.501  18.849  0.00  0.00    +0.000 C 
BRANCH   6   8
ATOM      7  N   UNL     1       8.837   8.856  19.133  0.00  0.00    +0.000 N 
ATOM      8  C   UNL     1       8.245   7.903  18.316  0.00  0.00    +0.000 C 
ATOM      9  O   UNL     1       7.810   8.126  17.158  0.00  0.00    +0.000 OA
ATOM     10  H   UNL     1       9.096   8.573  20.085  0.00  0.00    +0.000 HD
BRANCH   7  14
ATOM     11  C   UNL     1       9.719  12.827  17.881  0.00  0.00    +0.000 A 
ATOM     12  C   UNL     1       8.514  12.226  17.532  0.00  0.00    +0.000 A 
ATOM     13  C   UNL     1       8.193  10.954  18.004  0.00  0.00    +0.000 A 
ATOM     14  C   UNL     1       9.109  10.195  18.745  0.00  0.00    +0.000 A 
ATOM     15  C   UNL     1      10.312  10.817  19.091  0.00  0.00    +0.000 A 
ATOM     16  C   UNL     1      10.620  12.111  18.657  0.00  0.00    +0.000 A 
BRANCH  11  18
ATOM     17  C   UNL     1      10.281  15.022  18.506  0.00  0.00    +0.000 C 
ATOM     18  O   UNL     1       9.913  14.116  17.464  0.00  0.00    +0.000 OA
ENDBRANCH  11  18
ENDBRANCH   7  14
ENDBRANCH   6   8
ENDBRANCH   1   6
BRANCH   3  19
ATOM     19  C   UNL     1       4.260   4.290  16.447  0.00  0.00    +0.000 C 
BRANCH  19  20
ATOM     20  C   UNL     1       3.715   3.169  17.330  0.00  0.00    +0.000 C 
BRANCH  20  21
ATOM     21  C   UNL     1       2.293   3.436  17.823  0.00  0.00    +0.000 C 
BRANCH  21  22
ATOM     22  C   UNL     1       2.295   4.336  19.009  0.00  0.00    +0.000 A 
ATOM     23  C   UNL     1       2.425   3.991  20.335  0.00  0.00    +0.000 A 
ATOM     24  N   UNL     1       2.370   5.172  21.016  0.00  0.00    +0.000 N 
ATOM     25  C   UNL     1       2.206   6.175  20.101  0.00  0.00    +0.000 A 
ATOM     26  N   UNL     1       2.126   7.447  20.490  0.00  0.00    +0.000 N 
ATOM     27  N   UNL     1       2.151   5.700  18.882  0.00  0.00    +0.000 NA
ATOM     28  H   UNL     1       2.446   5.299  22.012  0.00  0.00    +0.000 HD
ATOM     29  H   UNL     1       2.159   7.772  21.448  0.00  0.00    +0.000 HD
ATOM     30  H   UNL     1       1.985   8.161  19.783  0.00  0.00    +0.000 HD
ENDBRANCH  21  22
ENDBRANCH  20  21
ENDBRANCH  19  20
ENDBRANCH   3  19
TORSDOF 8
ENDMDL
MODEL 7
REMARK VINA RESULT:      -6.8      5.395      9.255
REMARK  Name = 
REMARK  9 active torsions:
REMARK  status: ('A' for Active; 'I' for Inactive)
REMARK    1  A    between atoms: C_1  and  O_2
REMARK    2  A    between atoms: O_2  and  C_3
REMARK    3  A    between atoms: C_6  and  N_7
REMARK    4  A    between atoms: C_8  and  C_10
REMARK    5  A    between atoms: C_10  and  N_11
REMARK    6  A    between atoms: C_13  and  C_14
REMARK    7  A    between atoms: C_14  and  C_15
REMARK    8  A    between atoms: C_15  and  C_16
REMARK    9  A    between atoms: C_16  and  C_17
REMARK                            x       y       z     vdW  Elec       q    Type
REMARK                         _______ _______ _______ _____ _____    ______ ____
ROOT
ATOM      1  N   UNL     1       2.468   8.198  18.260  0.00  0.00    +0.000 N 
ATOM      2  C   UNL     1       3.341   7.357  17.647  0.00  0.00    +0.000 A 
ATOM      3  C   UNL     1       3.487   6.319  18.533  0.00  0.00    +0.000 A 
ATOM      4  N   UNL     1       2.701   6.556  19.634  0.00  0.00    +0.000 NA
ATOM      5  N   UNL     1       2.058   7.698  19.441  0.00  0.00    +0.000 NA
ENDROOT
BRANCH   1   6
ATOM      6  C   UNL     1       1.987   9.467  17.791  0.00  0.00    +0.000 C 
BRANCH   6   8
ATOM      7  N   UNL     1       1.369  10.595  19.938  0.00  0.00    +0.000 N 
ATOM      8  C   UNL     1       0.956  10.068  18.722  0.00  0.00    +0.000 C 
ATOM      9  O   UNL     1      -0.240  10.003  18.341  0.00  0.00    +0.000 OA
ATOM     10  H   UNL     1       2.366  10.536  20.169  0.00  0.00    +0.000 HD
BRANCH   7  14
ATOM     11  C   UNL     1      -1.134  12.411  22.863  0.00  0.00    +0.000 A 
ATOM     12  C   UNL     1      -0.370  13.192  22.002  0.00  0.00    +0.000 A 
ATOM     13  C   UNL     1       0.391  12.600  20.995  0.00  0.00    +0.000 A 
ATOM     14  C   UNL     1       0.506  11.208  20.886  0.00  0.00    +0.000 A 
ATOM     15  C   UNL     1      -0.272  10.439  21.756  0.00  0.00    +0.000 A 
ATOM     16  C   UNL     1      -1.073  11.030  22.739  0.00  0.00    +0.000 A 
BRANCH  11  18
ATOM     17  C   UNL     1      -1.591  14.446  23.946  0.00  0.00    +0.000 C 
ATOM     18  O   UNL     1      -1.934  13.072  23.755  0.00  0.00    +0.000 OA
ENDBRANCH  11  18
ENDBRANCH   7  14
ENDBRANCH   6   8
ENDBRANCH   1   6
BRANCH   3  19
ATOM     19  C   UNL     1       4.277   5.069  18.383  0.00  0.00    +0.000 C 
BRANCH  19  20
ATOM     20  C   UNL     1       3.747   4.188  17.252  0.00  0.00    +0.000 C 
BRANCH  20  21
ATOM     21  C   UNL     1       3.343   2.792  17.723  0.00  0.00    +0.000 C 
BRANCH  21  22
ATOM     22  C   UNL     1       2.383   2.865  18.860  0.00  0.00    +0.000 A 
ATOM     23  C   UNL     1       1.051   3.205  18.823  0.00  0.00    +0.000 A 
ATOM     24  N   UNL     1       0.626   3.113  20.116  0.00  0.00    +0.000 N 
ATOM     25  C   UNL     1       1.694   2.734  20.881  0.00  0.00    +0.000 A 
ATOM     26  N   UNL     1       1.563   2.559  22.196  0.00  0.00    +0.000 N 
ATOM     27  N   UNL     1       2.770   2.582  20.151  0.00  0.00    +0.000 NA
ATOM     28  H   UNL     1      -0.306   3.281  20.459  0.00  0.00    +0.000 HD
ATOM     29  H   UNL     1       0.713   2.701  22.727  0.00  0.00    +0.000 HD
ATOM     30  H   UNL     1       2.383   2.296  22.732  0.00  0.00    +0.000 HD
ENDBRANCH  21  22
ENDBRANCH  20  21
ENDBRANCH  19  20
ENDBRANCH   3  19
TORSDOF 8
ENDMDL
MODEL 8
REMARK VINA RESULT:      -6.8      4.554      9.259
REMARK  Name = 
REMARK  9 active torsions:
REMARK  status: ('A' for Active; 'I' for Inactive)
REMARK    1  A    between atoms: C_1  and  O_2
REMARK    2  A    between atoms: O_2  and  C_3
REMARK    3  A    between atoms: C_6  and  N_7
REMARK    4  A    between atoms: C_8  and  C_10
REMARK    5  A    between atoms: C_10  and  N_11
REMARK    6  A    between atoms: C_13  and  C_14
REMARK    7  A    between atoms: C_14  and  C_15
REMARK    8  A    between atoms: C_15  and  C_16
REMARK    9  A    between atoms: C_16  and  C_17
REMARK                            x       y       z     vdW  Elec       q    Type
REMARK                         _______ _______ _______ _____ _____    ______ ____
ROOT
ATOM      1  N   UNL     1       5.114   4.897  19.117  0.00  0.00    +0.000 N 
ATOM      2  C   UNL     1       5.382   5.689  18.046  0.00  0.00    +0.000 A 
ATOM      3  C   UNL     1       6.717   5.983  18.171  0.00  0.00    +0.000 A 
ATOM      4  N   UNL     1       7.210   5.360  19.291  0.00  0.00    +0.000 NA
ATOM      5  N   UNL     1       6.223   4.672  19.846  0.00  0.00    +0.000 NA
ENDROOT
BRANCH   1   6
ATOM      6  C   UNL     1       3.853   4.328  19.501  0.00  0.00    +0.000 C 
BRANCH   6   8
ATOM      7  N   UNL     1       2.969   6.631  19.925  0.00  0.00    +0.000 N 
ATOM      8  C   UNL     1       2.731   5.344  19.463  0.00  0.00    +0.000 C 
ATOM      9  O   UNL     1       1.619   4.927  19.050  0.00  0.00    +0.000 OA
ATOM     10  H   UNL     1       3.902   6.838  20.297  0.00  0.00    +0.000 HD
BRANCH   7  14
ATOM     11  C   UNL     1       0.176   9.843  19.968  0.00  0.00    +0.000 A 
ATOM     12  C   UNL     1       0.925   9.571  18.828  0.00  0.00    +0.000 A 
ATOM     13  C   UNL     1       1.784   8.474  18.788  0.00  0.00    +0.000 A 
ATOM     14  C   UNL     1       2.011   7.680  19.920  0.00  0.00    +0.000 A 
ATOM     15  C   UNL     1       1.246   7.963  21.055  0.00  0.00    +0.000 A 
ATOM     16  C   UNL     1       0.348   9.036  21.085  0.00  0.00    +0.000 A 
BRANCH  11  18
ATOM     17  C   UNL     1      -0.307  11.950  19.048  0.00  0.00    +0.000 C 
ATOM     18  O   UNL     1      -0.720  10.873  19.891  0.00  0.00    +0.000 OA
ENDBRANCH  11  18
ENDBRANCH   7  14
ENDBRANCH   6   8
ENDBRANCH   1   6
BRANCH   3  19
ATOM     19  C   UNL     1       7.588   6.767  17.258  0.00  0.00    +0.000 C 
BRANCH  19  20
ATOM     20  C   UNL     1       7.607   8.252  17.617  0.00  0.00    +0.000 C 
BRANCH  20  21
ATOM     21  C   UNL     1       8.635   8.593  18.694  0.00  0.00    +0.000 C 
BRANCH  21  22
ATOM     22  C   UNL     1       8.925  10.053  18.718  0.00  0.00    +0.000 A 
ATOM     23  C   UNL     1       9.574  10.772  19.695  0.00  0.00    +0.000 A 
ATOM     24  N   UNL     1       9.587  12.058  19.240  0.00  0.00    +0.000 N 
ATOM     25  C   UNL     1       8.952  12.079  18.030  0.00  0.00    +0.000 A 
ATOM     26  N   UNL     1       8.823  13.217  17.347  0.00  0.00    +0.000 N 
ATOM     27  N   UNL     1       8.537  10.885  17.692  0.00  0.00    +0.000 NA
ATOM     28  H   UNL     1       9.996  12.857  19.698  0.00  0.00    +0.000 HD
ATOM     29  H   UNL     1       9.147  14.126  17.652  0.00  0.00    +0.000 HD
ATOM     30  H   UNL     1       8.328  13.195  16.461  0.00  0.00    +0.000 HD
ENDBRANCH  21  22
ENDBRANCH  20  21
ENDBRANCH  19  20
ENDBRANCH   3  19
TORSDOF 8
ENDMDL
MODEL 9
REMARK VINA RESULT:      -6.7      4.341      6.646
REMARK  Name = 
REMARK  9 active torsions:
REMARK  status: ('A' for Active; 'I' for Inactive)
REMARK    1  A    between atoms: C_1  and  O_2
REMARK    2  A    between atoms: O_2  and  C_3
REMARK    3  A    between atoms: C_6  and  N_7
REMARK    4  A    between atoms: C_8  and  C_10
REMARK    5  A    between atoms: C_10  and  N_11
REMARK    6  A    between atoms: C_13  and  C_14
REMARK    7  A    between atoms: C_14  and  C_15
REMARK    8  A    between atoms: C_15  and  C_16
REMARK    9  A    between atoms: C_16  and  C_17
REMARK                            x       y       z     vdW  Elec       q    Type
REMARK                         _______ _______ _______ _____ _____    ______ ____
ROOT
ATOM      1  N   UNL     1       6.414   6.147  17.743  0.00  0.00    +0.000 N 
ATOM      2  C   UNL     1       5.239   6.281  18.412  0.00  0.00    +0.000 A 
ATOM      3  C   UNL     1       4.293   5.834  17.523  0.00  0.00    +0.000 A 
ATOM      4  N   UNL     1       4.917   5.438  16.366  0.00  0.00    +0.000 NA
ATOM      5  N   UNL     1       6.221   5.607  16.525  0.00  0.00    +0.000 NA
ENDROOT
BRANCH   1   6
ATOM      6  C   UNL     1       7.731   6.501  18.192  0.00  0.00    +0.000 C 
BRANCH   6   8
ATOM      7  N   UNL     1       8.816   8.584  19.056  0.00  0.00    +0.000 N 
ATOM      8  C   UNL     1       7.978   7.993  18.120  0.00  0.00    +0.000 C 
ATOM      9  O   UNL     1       7.353   8.617  17.226  0.00  0.00    +0.000 OA
ATOM     10  H   UNL     1       9.223   7.981  19.780  0.00  0.00    +0.000 HD
BRANCH   7  14
ATOM     11  C   UNL     1       9.926  12.692  19.154  0.00  0.00    +0.000 A 
ATOM     12  C   UNL     1       9.714  12.045  17.941  0.00  0.00    +0.000 A 
ATOM     13  C   UNL     1       9.278  10.721  17.910  0.00  0.00    +0.000 A 
ATOM     14  C   UNL     1       9.148   9.965  19.083  0.00  0.00    +0.000 A 
ATOM     15  C   UNL     1       9.359  10.633  20.293  0.00  0.00    +0.000 A 
ATOM     16  C   UNL     1       9.754  11.975  20.330  0.00  0.00    +0.000 A 
BRANCH  11  18
ATOM     17  C   UNL     1      10.979  14.400  17.930  0.00  0.00    +0.000 C 
ATOM     18  O   UNL     1      10.251  14.020  19.100  0.00  0.00    +0.000 OA
ENDBRANCH  11  18
ENDBRANCH   7  14
ENDBRANCH   6   8
ENDBRANCH   1   6
BRANCH   3  19
ATOM     19  C   UNL     1       2.827   5.689  17.717  0.00  0.00    +0.000 C 
BRANCH  19  20
ATOM     20  C   UNL     1       2.424   5.836  19.184  0.00  0.00    +0.000 C 
BRANCH  20  21
ATOM     21  C   UNL     1       1.676   4.618  19.722  0.00  0.00    +0.000 C 
BRANCH  21  22
ATOM     22  C   UNL     1       2.429   3.361  19.453  0.00  0.00    +0.000 A 
ATOM     23  C   UNL     1       2.088   2.333  18.605  0.00  0.00    +0.000 A 
ATOM     24  N   UNL     1       3.105   1.431  18.715  0.00  0.00    +0.000 N 
ATOM     25  C   UNL     1       4.009   1.926  19.613  0.00  0.00    +0.000 A 
ATOM     26  N   UNL     1       5.116   1.248  19.912  0.00  0.00    +0.000 N 
ATOM     27  N   UNL     1       3.625   3.087  20.080  0.00  0.00    +0.000 NA
ATOM     28  H   UNL     1       3.193   0.557  18.221  0.00  0.00    +0.000 HD
ATOM     29  H   UNL     1       5.370   0.342  19.537  0.00  0.00    +0.000 HD
ATOM     30  H   UNL     1       5.753   1.640  20.597  0.00  0.00    +0.000 HD
ENDBRANCH  21  22
ENDBRANCH  20  21
ENDBRANCH  19  20
ENDBRANCH   3  19
TORSDOF 8
ENDMDL
