MODEL 1
REMARK VINA RESULT:      -8.4      0.000      0.000
REMARK  Name = 
REMARK  7 active torsions:
REMARK  status: ('A' for Active; 'I' for Inactive)
REMARK    1  A    between atoms: C_1  and  C_2
REMARK    2  A    between atoms: C_13  and  C_14
REMARK    3  A    between atoms: C_17  and  O_18
REMARK    4  A    between atoms: O_18  and  C_19
REMARK    5  A    between atoms: C_19  and  C_20
REMARK    6  A    between atoms: N_25  and  C_26
REMARK    7  A    between atoms: C_26  and  C_27
REMARK                            x       y       z     vdW  Elec       q    Type
REMARK                         _______ _______ _______ _____ _____    ______ ____
ROOT
ATOM      1  C   UNL     1       2.866   4.227  17.311  0.00  0.00    +0.000 C 
ATOM      2  C   UNL     1       2.471   5.199  18.386  0.00  0.00    +0.000 A 
ATOM      3  C   UNL     1       2.294   4.796  19.718  0.00  0.00    +0.000 A 
ATOM      4  C   UNL     1       1.959   5.727  20.712  0.00  0.00    +0.000 A 
ATOM      5  C   UNL     1       1.794   7.070  20.378  0.00  0.00    +0.000 A 
ATOM      6  O   UNL     1       1.469   7.958  21.385  0.00  0.00    +0.000 OA
ATOM      7  C   UNL     1       1.110   9.217  20.970  0.00  0.00    +0.000 A 
ATOM      8  C   UNL     1       1.171   9.706  19.734  0.00  0.00    +0.000 A 
ATOM      9  C   UNL     1       1.750   8.881  18.687  0.00  0.00    +0.000 A 
ATOM     10  O   UNL     1       2.038   9.326  17.587  0.00  0.00    +0.000 OA
ATOM     11  C   UNL     1       1.960   7.468  19.046  0.00  0.00    +0.000 A 
ATOM     12  C   UNL     1       2.300   6.546  18.054  0.00  0.00    +0.000 A 
ATOM     13  C   UNL     1       0.542  11.041  19.565  0.00  0.00    +0.000 C 
ATOM     14  N   UNL     1       0.196  11.324  20.953  0.00  0.00    +0.000 N 
ATOM     15  C   UNL     1       0.545  10.289  21.811  0.00  0.00    +0.000 C 
ATOM     16  O   UNL     1       0.428  10.256  23.021  0.00  0.00    +0.000 OA
ENDROOT
BRANCH  13  17
ATOM     17  C   UNL     1      -0.664  10.949  18.639  0.00  0.00    +0.000 A 
ATOM     18  C   UNL     1      -1.023  11.998  17.778  0.00  0.00    +0.000 A 
ATOM     19  C   UNL     1      -2.205  11.949  17.036  0.00  0.00    +0.000 A 
ATOM     20  C   UNL     1      -3.059  10.853  17.147  0.00  0.00    +0.000 A 
ATOM     21  C   UNL     1      -2.728   9.815  18.014  0.00  0.00    +0.000 A 
ATOM     22  C   UNL     1      -1.534   9.851  18.739  0.00  0.00    +0.000 A 
BRANCH  20  23
ATOM     23  O   UNL     1      -4.242  10.705  16.474  0.00  0.00    +0.000 OA
BRANCH  23  24
ATOM     24  C   UNL     1      -5.020  11.894  16.345  0.00  0.00    +0.000 C 
BRANCH  24  25
ATOM     25  C   UNL     1      -5.925  12.111  17.558  0.00  0.00    +0.000 C 
ATOM     26  N   UNL     1      -5.960  13.372  18.063  0.00  0.00    +0.000 N 
ATOM     27  O   UNL     1      -6.599  11.215  18.052  0.00  0.00    +0.000 OA
ATOM     28  H   UNL     1      -5.338  14.088  17.696  0.00  0.00    +0.000 HD
ATOM     29  H   UNL     1      -6.509  13.562  18.893  0.00  0.00    +0.000 HD
ENDBRANCH  24  25
ENDBRANCH  23  24
ENDBRANCH  20  23
ENDBRANCH  13  17
BRANCH  14  30
ATOM     30  C   UNL     1      -0.356  12.596  21.394  0.00  0.00    +0.000 C 
BRANCH  30  31
ATOM     31  C   UNL     1      -1.780  12.464  21.864  0.00  0.00    +0.000 A 
ATOM     32  C   UNL     1      -2.066  12.159  23.218  0.00  0.00    +0.000 A 
ATOM     33  C   UNL     1      -3.378  12.178  23.699  0.00  0.00    +0.000 A 
ATOM     34  C   UNL     1      -4.372  12.528  22.813  0.00  0.00    +0.000 A 
ATOM     35  C   UNL     1      -4.107  12.773  21.484  0.00  0.00    +0.000 A 
ATOM     36  C   UNL     1      -2.831  12.727  20.973  0.00  0.00    +0.000 A 
ATOM     37  O   UNL     1      -5.222  13.136  20.794  0.00  0.00    +0.000 OA
ATOM     38  C   UNL     1      -6.110  13.390  21.898  0.00  0.00    +0.000 C 
ATOM     39  O   UNL     1      -5.683  12.741  23.114  0.00  0.00    +0.000 OA
ENDBRANCH  30  31
ENDBRANCH  14  30
TORSDOF 6
ENDMDL
MODEL 2
REMARK VINA RESULT:      -8.1      1.559      1.960
REMARK  Name = 
REMARK  7 active torsions:
REMARK  status: ('A' for Active; 'I' for Inactive)
REMARK    1  A    between atoms: C_1  and  C_2
REMARK    2  A    between atoms: C_13  and  C_14
REMARK    3  A    between atoms: C_17  and  O_18
REMARK    4  A    between atoms: O_18  and  C_19
REMARK    5  A    between atoms: C_19  and  C_20
REMARK    6  A    between atoms: N_25  and  C_26
REMARK    7  A    between atoms: C_26  and  C_27
REMARK                            x       y       z     vdW  Elec       q    Type
REMARK                         _______ _______ _______ _____ _____    ______ ____
ROOT
ATOM      1  C   UNL     1       2.793   4.135  17.396  0.00  0.00    +0.000 C 
ATOM      2  C   UNL     1       2.366   5.076  18.485  0.00  0.00    +0.000 A 
ATOM      3  C   UNL     1       2.048   4.619  19.773  0.00  0.00    +0.000 A 
ATOM      4  C   UNL     1       1.685   5.520  20.785  0.00  0.00    +0.000 A 
ATOM      5  C   UNL     1       1.634   6.886  20.513  0.00  0.00    +0.000 A 
ATOM      6  O   UNL     1       1.278   7.742  21.537  0.00  0.00    +0.000 OA
ATOM      7  C   UNL     1       1.037   9.042  21.164  0.00  0.00    +0.000 A 
ATOM      8  C   UNL     1       1.237   9.587  19.967  0.00  0.00    +0.000 A 
ATOM      9  C   UNL     1       1.854   8.778  18.929  0.00  0.00    +0.000 A 
ATOM     10  O   UNL     1       2.264   9.257  17.884  0.00  0.00    +0.000 OA
ATOM     11  C   UNL     1       1.943   7.338  19.224  0.00  0.00    +0.000 A 
ATOM     12  C   UNL     1       2.310   6.446  18.216  0.00  0.00    +0.000 A 
ATOM     13  C   UNL     1       0.710  10.968  19.820  0.00  0.00    +0.000 C 
ATOM     14  N   UNL     1       0.261  11.204  21.187  0.00  0.00    +0.000 N 
ATOM     15  C   UNL     1       0.468  10.106  22.012  0.00  0.00    +0.000 C 
ATOM     16  O   UNL     1       0.242  10.020  23.204  0.00  0.00    +0.000 OA
ENDROOT
BRANCH  13  17
ATOM     17  C   UNL     1      -0.413  11.003  18.791  0.00  0.00    +0.000 A 
ATOM     18  C   UNL     1      -1.160   9.860  18.466  0.00  0.00    +0.000 A 
ATOM     19  C   UNL     1      -2.094   9.881  17.427  0.00  0.00    +0.000 A 
ATOM     20  C   UNL     1      -2.293  11.044  16.685  0.00  0.00    +0.000 A 
ATOM     21  C   UNL     1      -1.543  12.179  16.981  0.00  0.00    +0.000 A 
ATOM     22  C   UNL     1      -0.626  12.167  18.036  0.00  0.00    +0.000 A 
BRANCH  20  23
ATOM     23  O   UNL     1      -3.174  11.173  15.645  0.00  0.00    +0.000 OA
BRANCH  23  24
ATOM     24  C   UNL     1      -3.764   9.955  15.193  0.00  0.00    +0.000 C 
BRANCH  24  25
ATOM     25  C   UNL     1      -3.741   9.847  13.669  0.00  0.00    +0.000 C 
ATOM     26  N   UNL     1      -2.518   9.729  13.092  0.00  0.00    +0.000 N 
ATOM     27  O   UNL     1      -4.761   9.849  12.989  0.00  0.00    +0.000 OA
ATOM     28  H   UNL     1      -1.676   9.807  13.657  0.00  0.00    +0.000 HD
ATOM     29  H   UNL     1      -2.442   9.698  12.082  0.00  0.00    +0.000 HD
ENDBRANCH  24  25
ENDBRANCH  23  24
ENDBRANCH  20  23
ENDBRANCH  13  17
BRANCH  14  30
ATOM     30  C   UNL     1      -0.246  12.487  21.650  0.00  0.00    +0.000 C 
BRANCH  30  31
ATOM     31  C   UNL     1      -1.721  12.437  21.950  0.00  0.00    +0.000 A 
ATOM     32  C   UNL     1      -2.180  12.309  23.284  0.00  0.00    +0.000 A 
ATOM     33  C   UNL     1      -3.540  12.410  23.591  0.00  0.00    +0.000 A 
ATOM     34  C   UNL     1      -4.406  12.662  22.551  0.00  0.00    +0.000 A 
ATOM     35  C   UNL     1      -3.973  12.735  21.246  0.00  0.00    +0.000 A 
ATOM     36  C   UNL     1      -2.646  12.604  20.909  0.00  0.00    +0.000 A 
ATOM     37  O   UNL     1      -4.983  13.027  20.382  0.00  0.00    +0.000 OA
ATOM     38  C   UNL     1      -5.991  13.432  21.327  0.00  0.00    +0.000 C 
ATOM     39  O   UNL     1      -5.736  12.933  22.658  0.00  0.00    +0.000 OA
ENDBRANCH  30  31
ENDBRANCH  14  30
TORSDOF 6
ENDMDL
MODEL 3
REMARK VINA RESULT:      -8.1      1.306      1.623
REMARK  Name = 
REMARK  7 active torsions:
REMARK  status: ('A' for Active; 'I' for Inactive)
REMARK    1  A    between atoms: C_1  and  C_2
REMARK    2  A    between atoms: C_13  and  C_14
REMARK    3  A    between atoms: C_17  and  O_18
REMARK    4  A    between atoms: O_18  and  C_19
REMARK    5  A    between atoms: C_19  and  C_20
REMARK    6  A    between atoms: N_25  and  C_26
REMARK    7  A    between atoms: C_26  and  C_27
REMARK                            x       y       z     vdW  Elec       q    Type
REMARK                         _______ _______ _______ _____ _____    ______ ____
ROOT
ATOM      1  C   UNL     1       2.569   3.791  17.191  0.00  0.00    +0.000 C 
ATOM      2  C   UNL     1       2.287   4.778  18.287  0.00  0.00    +0.000 A 
ATOM      3  C   UNL     1       2.131   4.375  19.622  0.00  0.00    +0.000 A 
ATOM      4  C   UNL     1       1.904   5.318  20.635  0.00  0.00    +0.000 A 
ATOM      5  C   UNL     1       1.825   6.672  20.318  0.00  0.00    +0.000 A 
ATOM      6  O   UNL     1       1.604   7.571  21.344  0.00  0.00    +0.000 OA
ATOM      7  C   UNL     1       1.323   8.857  20.953  0.00  0.00    +0.000 A 
ATOM      8  C   UNL     1       1.373   9.353  19.719  0.00  0.00    +0.000 A 
ATOM      9  C   UNL     1       1.850   8.499  18.644  0.00  0.00    +0.000 A 
ATOM     10  O   UNL     1       2.128   8.933  17.538  0.00  0.00    +0.000 OA
ATOM     11  C   UNL     1       1.970   7.071  18.984  0.00  0.00    +0.000 A 
ATOM     12  C   UNL     1       2.203   6.137  17.973  0.00  0.00    +0.000 A 
ATOM     13  C   UNL     1       0.837  10.732  19.584  0.00  0.00    +0.000 C 
ATOM     14  N   UNL     1       0.565  11.025  20.987  0.00  0.00    +0.000 N 
ATOM     15  C   UNL     1       0.870   9.959  21.822  0.00  0.00    +0.000 C 
ATOM     16  O   UNL     1       0.796   9.922  23.036  0.00  0.00    +0.000 OA
ENDROOT
BRANCH  13  17
ATOM     17  C   UNL     1      -0.406  10.738  18.705  0.00  0.00    +0.000 A 
ATOM     18  C   UNL     1      -0.774  11.859  17.944  0.00  0.00    +0.000 A 
ATOM     19  C   UNL     1      -1.985  11.893  17.249  0.00  0.00    +0.000 A 
ATOM     20  C   UNL     1      -2.860  10.809  17.310  0.00  0.00    +0.000 A 
ATOM     21  C   UNL     1      -2.519   9.700  18.079  0.00  0.00    +0.000 A 
ATOM     22  C   UNL     1      -1.297   9.654  18.754  0.00  0.00    +0.000 A 
BRANCH  20  23
ATOM     23  O   UNL     1      -4.072  10.739  16.677  0.00  0.00    +0.000 OA
BRANCH  23  24
ATOM     24  C   UNL     1      -4.087  11.231  15.337  0.00  0.00    +0.000 C 
BRANCH  24  25
ATOM     25  C   UNL     1      -3.654  10.159  14.337  0.00  0.00    +0.000 C 
ATOM     26  N   UNL     1      -4.576   9.796  13.408  0.00  0.00    +0.000 N 
ATOM     27  O   UNL     1      -2.536   9.655  14.346  0.00  0.00    +0.000 OA
ATOM     28  H   UNL     1      -5.524  10.162  13.458  0.00  0.00    +0.000 HD
ATOM     29  H   UNL     1      -4.358   9.059  12.748  0.00  0.00    +0.000 HD
ENDBRANCH  24  25
ENDBRANCH  23  24
ENDBRANCH  20  23
ENDBRANCH  13  17
BRANCH  14  30
ATOM     30  C   UNL     1       0.126  12.330  21.458  0.00  0.00    +0.000 C 
BRANCH  30  31
ATOM     31  C   UNL     1      -1.335  12.338  21.823  0.00  0.00    +0.000 A 
ATOM     32  C   UNL     1      -1.751  11.997  23.134  0.00  0.00    +0.000 A 
ATOM     33  C   UNL     1      -3.085  12.141  23.527  0.00  0.00    +0.000 A 
ATOM     34  C   UNL     1      -3.966  12.649  22.598  0.00  0.00    +0.000 A 
ATOM     35  C   UNL     1      -3.579  12.931  21.308  0.00  0.00    +0.000 A 
ATOM     36  C   UNL     1      -2.282  12.766  20.882  0.00  0.00    +0.000 A 
ATOM     37  O   UNL     1      -4.593  13.456  20.567  0.00  0.00    +0.000 OA
ATOM     38  C   UNL     1      -5.526  13.752  21.623  0.00  0.00    +0.000 C 
ATOM     39  O   UNL     1      -5.264  12.995  22.824  0.00  0.00    +0.000 OA
ENDBRANCH  30  31
ENDBRANCH  14  30
TORSDOF 6
ENDMDL
MODEL 4
REMARK VINA RESULT:      -8.0      0.724      1.068
REMARK  Name = 
REMARK  7 active torsions:
REMARK  status: ('A' for Active; 'I' for Inactive)
REMARK    1  A    between atoms: C_1  and  C_2
REMARK    2  A    between atoms: C_13  and  C_14
REMARK    3  A    between atoms: C_17  and  O_18
REMARK    4  A    between atoms: O_18  and  C_19
REMARK    5  A    between atoms: C_19  and  C_20
REMARK    6  A    between atoms: N_25  and  C_26
REMARK    7  A    between atoms: C_26  and  C_27
REMARK                            x       y       z     vdW  Elec       q    Type
REMARK                         _______ _______ _______ _____ _____    ______ ____
ROOT
ATOM      1  C   UNL     1       2.500   4.014  17.263  0.00  0.00    +0.000 C 
ATOM      2  C   UNL     1       2.182   4.945  18.397  0.00  0.00    +0.000 A 
ATOM      3  C   UNL     1       1.928   4.471  19.693  0.00  0.00    +0.000 A 
ATOM      4  C   UNL     1       1.669   5.361  20.745  0.00  0.00    +0.000 A 
ATOM      5  C   UNL     1       1.656   6.733  20.506  0.00  0.00    +0.000 A 
ATOM      6  O   UNL     1       1.401   7.579  21.569  0.00  0.00    +0.000 OA
ATOM      7  C   UNL     1       1.189   8.895  21.240  0.00  0.00    +0.000 A 
ATOM      8  C   UNL     1       1.335   9.460  20.044  0.00  0.00    +0.000 A 
ATOM      9  C   UNL     1       1.850   8.653  18.951  0.00  0.00    +0.000 A 
ATOM     10  O   UNL     1       2.212   9.140  17.892  0.00  0.00    +0.000 OA
ATOM     11  C   UNL     1       1.899   7.204  19.210  0.00  0.00    +0.000 A 
ATOM     12  C   UNL     1       2.164   6.322  18.161  0.00  0.00    +0.000 A 
ATOM     13  C   UNL     1       0.855  10.864  19.961  0.00  0.00    +0.000 C 
ATOM     14  N   UNL     1       0.505  11.084  21.359  0.00  0.00    +0.000 N 
ATOM     15  C   UNL     1       0.719   9.960  22.146  0.00  0.00    +0.000 C 
ATOM     16  O   UNL     1       0.568   9.855  23.348  0.00  0.00    +0.000 OA
ENDROOT
BRANCH  13  17
ATOM     17  C   UNL     1      -0.329  10.967  19.009  0.00  0.00    +0.000 A 
ATOM     18  C   UNL     1      -1.189   9.884  18.770  0.00  0.00    +0.000 A 
ATOM     19  C   UNL     1      -2.187   9.956  17.795  0.00  0.00    +0.000 A 
ATOM     20  C   UNL     1      -2.340  11.112  17.031  0.00  0.00    +0.000 A 
ATOM     21  C   UNL     1      -1.480  12.187  17.241  0.00  0.00    +0.000 A 
ATOM     22  C   UNL     1      -0.497  12.125  18.232  0.00  0.00    +0.000 A 
BRANCH  20  23
ATOM     23  O   UNL     1      -3.276  11.289  16.049  0.00  0.00    +0.000 OA
BRANCH  23  24
ATOM     24  C   UNL     1      -4.609  10.928  16.408  0.00  0.00    +0.000 C 
BRANCH  24  25
ATOM     25  C   UNL     1      -5.318  12.056  17.158  0.00  0.00    +0.000 C 
ATOM     26  N   UNL     1      -4.877  12.310  18.417  0.00  0.00    +0.000 N 
ATOM     27  O   UNL     1      -6.223  12.716  16.662  0.00  0.00    +0.000 OA
ATOM     28  H   UNL     1      -4.181  11.707  18.848  0.00  0.00    +0.000 HD
ATOM     29  H   UNL     1      -5.340  13.018  18.976  0.00  0.00    +0.000 HD
ENDBRANCH  24  25
ENDBRANCH  23  24
ENDBRANCH  20  23
ENDBRANCH  13  17
BRANCH  14  30
ATOM     30  C   UNL     1       0.081  12.375  21.881  0.00  0.00    +0.000 C 
BRANCH  30  31
ATOM     31  C   UNL     1      -1.403  12.423  22.137  0.00  0.00    +0.000 A 
ATOM     32  C   UNL     1      -1.935  11.967  23.369  0.00  0.00    +0.000 A 
ATOM     33  C   UNL     1      -3.288  12.141  23.676  0.00  0.00    +0.000 A 
ATOM     34  C   UNL     1      -4.069  12.791  22.748  0.00  0.00    +0.000 A 
ATOM     35  C   UNL     1      -3.570  13.187  21.528  0.00  0.00    +0.000 A 
ATOM     36  C   UNL     1      -2.253  12.999  21.182  0.00  0.00    +0.000 A 
ATOM     37  O   UNL     1      -4.498  13.841  20.778  0.00  0.00    +0.000 OA
ATOM     38  C   UNL     1      -5.497  14.074  21.789  0.00  0.00    +0.000 C 
ATOM     39  O   UNL     1      -5.363  13.181  22.915  0.00  0.00    +0.000 OA
ENDBRANCH  30  31
ENDBRANCH  14  30
TORSDOF 6
ENDMDL
MODEL 5
REMARK VINA RESULT:      -7.8      2.764      3.597
REMARK  Name = 
REMARK  7 active torsions:
REMARK  status: ('A' for Active; 'I' for Inactive)
REMARK    1  A    between atoms: C_1  and  C_2
REMARK    2  A    between atoms: C_13  and  C_14
REMARK    3  A    between atoms: C_17  and  O_18
REMARK    4  A    between atoms: O_18  and  C_19
REMARK    5  A    between atoms: C_19  and  C_20
REMARK    6  A    between atoms: N_25  and  C_26
REMARK    7  A    between atoms: C_26  and  C_27
REMARK                            x       y       z     vdW  Elec       q    Type
REMARK                         _______ _______ _______ _____ _____    ______ ____
ROOT
ATOM      1  C   UNL     1       3.695   5.240  17.458  0.00  0.00    +0.000 C 
ATOM      2  C   UNL     1       2.962   6.072  18.470  0.00  0.00    +0.000 A 
ATOM      3  C   UNL     1       2.722   5.610  19.773  0.00  0.00    +0.000 A 
ATOM      4  C   UNL     1       2.066   6.419  20.713  0.00  0.00    +0.000 A 
ATOM      5  C   UNL     1       1.640   7.695  20.353  0.00  0.00    +0.000 A 
ATOM      6  O   UNL     1       1.002   8.464  21.307  0.00  0.00    +0.000 OA
ATOM      7  C   UNL     1       0.418   9.617  20.844  0.00  0.00    +0.000 A 
ATOM      8  C   UNL     1       0.514  10.135  19.622  0.00  0.00    +0.000 A 
ATOM      9  C   UNL     1       1.389   9.486  18.659  0.00  0.00    +0.000 A 
ATOM     10  O   UNL     1       1.698  10.009  17.600  0.00  0.00    +0.000 OA
ATOM     11  C   UNL     1       1.871   8.150  19.049  0.00  0.00    +0.000 A 
ATOM     12  C   UNL     1       2.529   7.352  18.112  0.00  0.00    +0.000 A 
ATOM     13  C   UNL     1      -0.378  11.295  19.368  0.00  0.00    +0.000 C 
ATOM     14  N   UNL     1      -0.945  11.460  20.701  0.00  0.00    +0.000 N 
ATOM     15  C   UNL     1      -0.475  10.514  21.602  0.00  0.00    +0.000 C 
ATOM     16  O   UNL     1      -0.727  10.428  22.789  0.00  0.00    +0.000 OA
ENDROOT
BRANCH  13  17
ATOM     17  C   UNL     1      -1.410  10.951  18.303  0.00  0.00    +0.000 A 
ATOM     18  C   UNL     1      -2.162   9.766  18.349  0.00  0.00    +0.000 A 
ATOM     19  C   UNL     1      -3.005   9.406  17.296  0.00  0.00    +0.000 A 
ATOM     20  C   UNL     1      -3.107  10.218  16.167  0.00  0.00    +0.000 A 
ATOM     21  C   UNL     1      -2.350  11.385  16.097  0.00  0.00    +0.000 A 
ATOM     22  C   UNL     1      -1.525  11.760  17.161  0.00  0.00    +0.000 A 
BRANCH  20  23
ATOM     23  O   UNL     1      -3.894   9.959  15.078  0.00  0.00    +0.000 OA
BRANCH  23  24
ATOM     24  C   UNL     1      -3.234  10.049  13.816  0.00  0.00    +0.000 C 
BRANCH  24  25
ATOM     25  C   UNL     1      -4.165   9.673  12.663  0.00  0.00    +0.000 C 
ATOM     26  N   UNL     1      -5.455   9.411  12.994  0.00  0.00    +0.000 N 
ATOM     27  O   UNL     1      -3.789   9.621  11.498  0.00  0.00    +0.000 OA
ATOM     28  H   UNL     1      -5.738   9.380  13.970  0.00  0.00    +0.000 HD
ATOM     29  H   UNL     1      -6.105   9.114  12.275  0.00  0.00    +0.000 HD
ENDBRANCH  24  25
ENDBRANCH  23  24
ENDBRANCH  20  23
ENDBRANCH  13  17
BRANCH  14  30
ATOM     30  C   UNL     1      -1.821  12.564  21.064  0.00  0.00    +0.000 C 
BRANCH  30  31
ATOM     31  C   UNL     1      -1.054  13.831  21.338  0.00  0.00    +0.000 A 
ATOM     32  C   UNL     1      -0.779  14.746  20.292  0.00  0.00    +0.000 A 
ATOM     33  C   UNL     1      -0.198  15.990  20.558  0.00  0.00    +0.000 A 
ATOM     34  C   UNL     1       0.069  16.295  21.873  0.00  0.00    +0.000 A 
ATOM     35  C   UNL     1      -0.146  15.389  22.887  0.00  0.00    +0.000 A 
ATOM     36  C   UNL     1      -0.682  14.145  22.654  0.00  0.00    +0.000 A 
ATOM     37  O   UNL     1       0.151  15.904  24.111  0.00  0.00    +0.000 OA
ATOM     38  C   UNL     1       0.261  17.296  23.761  0.00  0.00    +0.000 C 
ATOM     39  O   UNL     1       0.498  17.496  22.351  0.00  0.00    +0.000 OA
ENDBRANCH  30  31
ENDBRANCH  14  30
TORSDOF 6
ENDMDL
MODEL 6
REMARK VINA RESULT:      -7.7      0.841      1.340
REMARK  Name = 
REMARK  7 active torsions:
REMARK  status: ('A' for Active; 'I' for Inactive)
REMARK    1  A    between atoms: C_1  and  C_2
REMARK    2  A    between atoms: C_13  and  C_14
REMARK    3  A    between atoms: C_17  and  O_18
REMARK    4  A    between atoms: O_18  and  C_19
REMARK    5  A    between atoms: C_19  and  C_20
REMARK    6  A    between atoms: N_25  and  C_26
REMARK    7  A    between atoms: C_26  and  C_27
REMARK                            x       y       z     vdW  Elec       q    Type
REMARK                         _______ _______ _______ _____ _____    ______ ____
ROOT
ATOM      1  C   UNL     1       2.394   3.909  17.639  0.00  0.00    +0.000 C 
ATOM      2  C   UNL     1       2.093   4.990  18.637  0.00  0.00    +0.000 A 
ATOM      3  C   UNL     1       1.905   4.708  19.998  0.00  0.00    +0.000 A 
ATOM      4  C   UNL     1       1.660   5.738  20.918  0.00  0.00    +0.000 A 
ATOM      5  C   UNL     1       1.595   7.058  20.480  0.00  0.00    +0.000 A 
ATOM      6  O   UNL     1       1.357   8.046  21.417  0.00  0.00    +0.000 OA
ATOM      7  C   UNL     1       1.091   9.293  20.907  0.00  0.00    +0.000 A 
ATOM      8  C   UNL     1       1.172   9.678  19.636  0.00  0.00    +0.000 A 
ATOM      9  C   UNL     1       1.668   8.730  18.652  0.00  0.00    +0.000 A 
ATOM     10  O   UNL     1       1.973   9.063  17.518  0.00  0.00    +0.000 OA
ATOM     11  C   UNL     1       1.772   7.337  19.120  0.00  0.00    +0.000 A 
ATOM     12  C   UNL     1       2.023   6.316  18.201  0.00  0.00    +0.000 A 
ATOM     13  C   UNL     1       0.647  11.041  19.367  0.00  0.00    +0.000 C 
ATOM     14  N   UNL     1       0.345  11.458  20.731  0.00  0.00    +0.000 N 
ATOM     15  C   UNL     1       0.625  10.469  21.665  0.00  0.00    +0.000 C 
ATOM     16  O   UNL     1       0.524  10.540  22.875  0.00  0.00    +0.000 OA
ENDROOT
BRANCH  13  17
ATOM     17  C   UNL     1      -0.576  10.973  18.463  0.00  0.00    +0.000 A 
ATOM     18  C   UNL     1      -0.919  12.021  17.593  0.00  0.00    +0.000 A 
ATOM     19  C   UNL     1      -2.113  11.998  16.871  0.00  0.00    +0.000 A 
ATOM     20  C   UNL     1      -2.998  10.929  17.010  0.00  0.00    +0.000 A 
ATOM     21  C   UNL     1      -2.683   9.893  17.886  0.00  0.00    +0.000 A 
ATOM     22  C   UNL     1      -1.476   9.903  18.590  0.00  0.00    +0.000 A 
BRANCH  20  23
ATOM     23  O   UNL     1      -4.195  10.808  16.359  0.00  0.00    +0.000 OA
BRANCH  23  24
ATOM     24  C   UNL     1      -5.051  11.946  16.444  0.00  0.00    +0.000 C 
BRANCH  24  25
ATOM     25  C   UNL     1      -5.824  11.976  17.763  0.00  0.00    +0.000 C 
ATOM     26  N   UNL     1      -6.694  10.955  17.972  0.00  0.00    +0.000 N 
ATOM     27  O   UNL     1      -5.668  12.855  18.603  0.00  0.00    +0.000 OA
ATOM     28  H   UNL     1      -6.873  10.275  17.237  0.00  0.00    +0.000 HD
ATOM     29  H   UNL     1      -7.264  10.948  18.810  0.00  0.00    +0.000 HD
ENDBRANCH  24  25
ENDBRANCH  23  24
ENDBRANCH  20  23
ENDBRANCH  13  17
BRANCH  14  30
ATOM     30  C   UNL     1      -0.098  12.801  21.075  0.00  0.00    +0.000 C 
BRANCH  30  31
ATOM     31  C   UNL     1      -1.508  12.814  21.604  0.00  0.00    +0.000 A 
ATOM     32  C   UNL     1      -2.597  12.488  20.758  0.00  0.00    +0.000 A 
ATOM     33  C   UNL     1      -3.891  12.353  21.270  0.00  0.00    +0.000 A 
ATOM     34  C   UNL     1      -4.056  12.526  22.626  0.00  0.00    +0.000 A 
ATOM     35  C   UNL     1      -3.012  12.897  23.443  0.00  0.00    +0.000 A 
ATOM     36  C   UNL     1      -1.736  13.071  22.964  0.00  0.00    +0.000 A 
ATOM     37  O   UNL     1      -3.384  12.978  24.750  0.00  0.00    +0.000 OA
ATOM     38  C   UNL     1      -4.661  12.318  24.673  0.00  0.00    +0.000 C 
ATOM     39  O   UNL     1      -5.198  12.302  23.333  0.00  0.00    +0.000 OA
ENDBRANCH  30  31
ENDBRANCH  14  30
TORSDOF 6
ENDMDL
MODEL 7
REMARK VINA RESULT:      -7.5      2.717      3.988
REMARK  Name = 
REMARK  7 active torsions:
REMARK  status: ('A' for Active; 'I' for Inactive)
REMARK    1  A    between atoms: C_1  and  C_2
REMARK    2  A    between atoms: C_13  and  C_14
REMARK    3  A    between atoms: C_17  and  O_18
REMARK    4  A    between atoms: O_18  and  C_19
REMARK    5  A    between atoms: C_19  and  C_20
REMARK    6  A    between atoms: N_25  and  C_26
REMARK    7  A    between atoms: C_26  and  C_27
REMARK                            x       y       z     vdW  Elec       q    Type
REMARK                         _______ _______ _______ _____ _____    ______ ____
ROOT
ATOM      1  C   UNL     1       2.544   3.773  17.336  0.00  0.00    +0.000 C 
ATOM      2  C   UNL     1       2.258   4.795  18.399  0.00  0.00    +0.000 A 
ATOM      3  C   UNL     1       2.086   4.434  19.744  0.00  0.00    +0.000 A 
ATOM      4  C   UNL     1       1.855   5.409  20.726  0.00  0.00    +0.000 A 
ATOM      5  C   UNL     1       1.791   6.753  20.367  0.00  0.00    +0.000 A 
ATOM      6  O   UNL     1       1.567   7.685  21.362  0.00  0.00    +0.000 OA
ATOM      7  C   UNL     1       1.300   8.960  20.930  0.00  0.00    +0.000 A 
ATOM      8  C   UNL     1       1.368   9.419  19.682  0.00  0.00    +0.000 A 
ATOM      9  C   UNL     1       1.849   8.529  18.639  0.00  0.00    +0.000 A 
ATOM     10  O   UNL     1       2.141   8.927  17.523  0.00  0.00    +0.000 OA
ATOM     11  C   UNL     1       1.953   7.110  19.022  0.00  0.00    +0.000 A 
ATOM     12  C   UNL     1       2.189   6.145  18.043  0.00  0.00    +0.000 A 
ATOM     13  C   UNL     1       0.844  10.797  19.500  0.00  0.00    +0.000 C 
ATOM     14  N   UNL     1       0.560  11.134  20.890  0.00  0.00    +0.000 N 
ATOM     15  C   UNL     1       0.847  10.092  21.761  0.00  0.00    +0.000 C 
ATOM     16  O   UNL     1       0.761  10.092  22.974  0.00  0.00    +0.000 OA
ENDROOT
BRANCH  13  17
ATOM     17  C   UNL     1      -0.389  10.786  18.608  0.00  0.00    +0.000 A 
ATOM     18  C   UNL     1      -0.890  11.956  18.015  0.00  0.00    +0.000 A 
ATOM     19  C   UNL     1      -2.095  11.949  17.311  0.00  0.00    +0.000 A 
ATOM     20  C   UNL     1      -2.833  10.772  17.192  0.00  0.00    +0.000 A 
ATOM     21  C   UNL     1      -2.361   9.608  17.794  0.00  0.00    +0.000 A 
ATOM     22  C   UNL     1      -1.143   9.609  18.478  0.00  0.00    +0.000 A 
BRANCH  20  23
ATOM     23  O   UNL     1      -4.026  10.653  16.533  0.00  0.00    +0.000 OA
BRANCH  23  24
ATOM     24  C   UNL     1      -4.053  11.212  15.220  0.00  0.00    +0.000 C 
BRANCH  24  25
ATOM     25  C   UNL     1      -3.682  10.178  14.157  0.00  0.00    +0.000 C 
ATOM     26  N   UNL     1      -4.715   9.624  13.472  0.00  0.00    +0.000 N 
ATOM     27  O   UNL     1      -2.522   9.865  13.912  0.00  0.00    +0.000 OA
ATOM     28  H   UNL     1      -5.675   9.831  13.735  0.00  0.00    +0.000 HD
ATOM     29  H   UNL     1      -4.529   8.900  12.786  0.00  0.00    +0.000 HD
ENDBRANCH  24  25
ENDBRANCH  23  24
ENDBRANCH  20  23
ENDBRANCH  13  17
BRANCH  14  30
ATOM     30  C   UNL     1       0.127  12.456  21.318  0.00  0.00    +0.000 C 
BRANCH  30  31
ATOM     31  C   UNL     1       1.041  13.542  20.815  0.00  0.00    +0.000 A 
ATOM     32  C   UNL     1       2.442  13.449  21.007  0.00  0.00    +0.000 A 
ATOM     33  C   UNL     1       3.312  14.373  20.419  0.00  0.00    +0.000 A 
ATOM     34  C   UNL     1       2.754  15.355  19.632  0.00  0.00    +0.000 A 
ATOM     35  C   UNL     1       1.391  15.482  19.486  0.00  0.00    +0.000 A 
ATOM     36  C   UNL     1       0.509  14.611  20.080  0.00  0.00    +0.000 A 
ATOM     37  O   UNL     1       1.055  16.493  18.640  0.00  0.00    +0.000 OA
ATOM     38  C   UNL     1       2.345  16.749  18.053  0.00  0.00    +0.000 C 
ATOM     39  O   UNL     1       3.431  16.255  18.866  0.00  0.00    +0.000 OA
ENDBRANCH  30  31
ENDBRANCH  14  30
TORSDOF 6
ENDMDL
MODEL 8
REMARK VINA RESULT:      -7.4      2.823      3.594
REMARK  Name = 
REMARK  7 active torsions:
REMARK  status: ('A' for Active; 'I' for Inactive)
REMARK    1  A    between atoms: C_1  and  C_2
REMARK    2  A    between atoms: C_13  and  C_14
REMARK    3  A    between atoms: C_17  and  O_18
REMARK    4  A    between atoms: O_18  and  C_19
REMARK    5  A    between atoms: C_19  and  C_20
REMARK    6  A    between atoms: N_25  and  C_26
REMARK    7  A    between atoms: C_26  and  C_27
REMARK                            x       y       z     vdW  Elec       q    Type
REMARK                         _______ _______ _______ _____ _____    ______ ____
ROOT
ATOM      1  C   UNL     1       4.029   5.403  17.145  0.00  0.00    +0.000 C 
ATOM      2  C   UNL     1       3.248   6.154  18.184  0.00  0.00    +0.000 A 
ATOM      3  C   UNL     1       2.997   5.614  19.454  0.00  0.00    +0.000 A 
ATOM      4  C   UNL     1       2.295   6.348  20.421  0.00  0.00    +0.000 A 
ATOM      5  C   UNL     1       1.834   7.628  20.122  0.00  0.00    +0.000 A 
ATOM      6  O   UNL     1       1.152   8.323  21.102  0.00  0.00    +0.000 OA
ATOM      7  C   UNL     1       0.539   9.480  20.689  0.00  0.00    +0.000 A 
ATOM      8  C   UNL     1       0.644  10.067  19.499  0.00  0.00    +0.000 A 
ATOM      9  C   UNL     1       1.559   9.501  18.522  0.00  0.00    +0.000 A 
ATOM     10  O   UNL     1       1.872  10.090  17.500  0.00  0.00    +0.000 OA
ATOM     11  C   UNL     1       2.077   8.162  18.850  0.00  0.00    +0.000 A 
ATOM     12  C   UNL     1       2.781   7.437  17.886  0.00  0.00    +0.000 A 
ATOM     13  C   UNL     1      -0.282  11.210  19.289  0.00  0.00    +0.000 C 
ATOM     14  N   UNL     1      -0.881  11.284  20.616  0.00  0.00    +0.000 N 
ATOM     15  C   UNL     1      -0.398  10.305  21.474  0.00  0.00    +0.000 C 
ATOM     16  O   UNL     1      -0.671  10.146  22.649  0.00  0.00    +0.000 OA
ENDROOT
BRANCH  13  17
ATOM     17  C   UNL     1      -1.279  10.893  18.183  0.00  0.00    +0.000 A 
ATOM     18  C   UNL     1      -1.264   9.669  17.496  0.00  0.00    +0.000 A 
ATOM     19  C   UNL     1      -2.098   9.448  16.398  0.00  0.00    +0.000 A 
ATOM     20  C   UNL     1      -2.960  10.452  15.957  0.00  0.00    +0.000 A 
ATOM     21  C   UNL     1      -2.970  11.679  16.615  0.00  0.00    +0.000 A 
ATOM     22  C   UNL     1      -2.153  11.893  17.728  0.00  0.00    +0.000 A 
BRANCH  20  23
ATOM     23  O   UNL     1      -3.812  10.346  14.892  0.00  0.00    +0.000 OA
BRANCH  23  24
ATOM     24  C   UNL     1      -3.245   9.773  13.714  0.00  0.00    +0.000 C 
BRANCH  24  25
ATOM     25  C   UNL     1      -4.263   9.695  12.576  0.00  0.00    +0.000 C 
ATOM     26  N   UNL     1      -3.840  10.126  11.361  0.00  0.00    +0.000 N 
ATOM     27  O   UNL     1      -5.398   9.256  12.730  0.00  0.00    +0.000 OA
ATOM     28  H   UNL     1      -2.926  10.561  11.261  0.00  0.00    +0.000 HD
ATOM     29  H   UNL     1      -4.487  10.138  10.581  0.00  0.00    +0.000 HD
ENDBRANCH  24  25
ENDBRANCH  23  24
ENDBRANCH  20  23
ENDBRANCH  13  17
BRANCH  14  30
ATOM     30  C   UNL     1      -1.800  12.338  21.019  0.00  0.00    +0.000 C 
BRANCH  30  31
ATOM     31  C   UNL     1      -1.097  13.651  21.238  0.00  0.00    +0.000 A 
ATOM     32  C   UNL     1      -0.706  14.049  22.540  0.00  0.00    +0.000 A 
ATOM     33  C   UNL     1       0.075  15.192  22.740  0.00  0.00    +0.000 A 
ATOM     34  C   UNL     1       0.466  15.894  21.622  0.00  0.00    +0.000 A 
ATOM     35  C   UNL     1       0.045  15.543  20.359  0.00  0.00    +0.000 A 
ATOM     36  C   UNL     1      -0.752  14.446  20.134  0.00  0.00    +0.000 A 
ATOM     37  O   UNL     1       0.575  16.345  19.397  0.00  0.00    +0.000 OA
ATOM     38  C   UNL     1       1.594  17.003  20.173  0.00  0.00    +0.000 C 
ATOM     39  O   UNL     1       1.336  16.941  21.592  0.00  0.00    +0.000 OA
ENDBRANCH  30  31
ENDBRANCH  14  30
TORSDOF 6
ENDMDL
MODEL 9
REMARK VINA RESULT:      -7.3      2.425      3.821
REMARK  Name = 
REMARK  7 active torsions:
REMARK  status: ('A' for Active; 'I' for Inactive)
REMARK    1  A    between atoms: C_1  and  C_2
REMARK    2  A    between atoms: C_13  and  C_14
REMARK    3  A    between atoms: C_17  and  O_18
REMARK    4  A    between atoms: O_18  and  C_19
REMARK    5  A    between atoms: C_19  and  C_20
REMARK    6  A    between atoms: N_25  and  C_26
REMARK    7  A    between atoms: C_26  and  C_27
REMARK                            x       y       z     vdW  Elec       q    Type
REMARK                         _______ _______ _______ _____ _____    ______ ____
ROOT
ATOM      1  C   UNL     1       2.577   3.875  17.123  0.00  0.00    +0.000 C 
ATOM      2  C   UNL     1       2.298   4.860  18.221  0.00  0.00    +0.000 A 
ATOM      3  C   UNL     1       2.156   4.456  19.557  0.00  0.00    +0.000 A 
ATOM      4  C   UNL     1       1.931   5.397  20.572  0.00  0.00    +0.000 A 
ATOM      5  C   UNL     1       1.843   6.751  20.256  0.00  0.00    +0.000 A 
ATOM      6  O   UNL     1       1.626   7.649  21.284  0.00  0.00    +0.000 OA
ATOM      7  C   UNL     1       1.335   8.933  20.895  0.00  0.00    +0.000 A 
ATOM      8  C   UNL     1       1.373   9.430  19.661  0.00  0.00    +0.000 A 
ATOM      9  C   UNL     1       1.846   8.579  18.582  0.00  0.00    +0.000 A 
ATOM     10  O   UNL     1       2.113   9.014  17.474  0.00  0.00    +0.000 OA
ATOM     11  C   UNL     1       1.975   7.151  18.920  0.00  0.00    +0.000 A 
ATOM     12  C   UNL     1       2.205   6.218  17.908  0.00  0.00    +0.000 A 
ATOM     13  C   UNL     1       0.829  10.807  19.531  0.00  0.00    +0.000 C 
ATOM     14  N   UNL     1       0.567  11.098  20.935  0.00  0.00    +0.000 N 
ATOM     15  C   UNL     1       0.884  10.033  21.769  0.00  0.00    +0.000 C 
ATOM     16  O   UNL     1       0.820   9.995  22.983  0.00  0.00    +0.000 OA
ENDROOT
BRANCH  13  17
ATOM     17  C   UNL     1      -0.421  10.806  18.662  0.00  0.00    +0.000 A 
ATOM     18  C   UNL     1      -0.751  11.890  17.832  0.00  0.00    +0.000 A 
ATOM     19  C   UNL     1      -1.967  11.928  17.146  0.00  0.00    +0.000 A 
ATOM     20  C   UNL     1      -2.883  10.887  17.281  0.00  0.00    +0.000 A 
ATOM     21  C   UNL     1      -2.579   9.816  18.118  0.00  0.00    +0.000 A 
ATOM     22  C   UNL     1      -1.353   9.764  18.786  0.00  0.00    +0.000 A 
BRANCH  20  23
ATOM     23  O   UNL     1      -4.102  10.825  16.663  0.00  0.00    +0.000 OA
BRANCH  23  24
ATOM     24  C   UNL     1      -5.230  10.926  17.531  0.00  0.00    +0.000 C 
BRANCH  24  25
ATOM     25  C   UNL     1      -5.673  12.378  17.716  0.00  0.00    +0.000 C 
ATOM     26  N   UNL     1      -5.316  12.971  18.883  0.00  0.00    +0.000 N 
ATOM     27  O   UNL     1      -6.302  12.993  16.862  0.00  0.00    +0.000 OA
ATOM     28  H   UNL     1      -4.864  12.429  19.616  0.00  0.00    +0.000 HD
ATOM     29  H   UNL     1      -5.621  13.918  19.077  0.00  0.00    +0.000 HD
ENDBRANCH  24  25
ENDBRANCH  23  24
ENDBRANCH  20  23
ENDBRANCH  13  17
BRANCH  14  30
ATOM     30  C   UNL     1       0.125  12.400  21.411  0.00  0.00    +0.000 C 
BRANCH  30  31
ATOM     31  C   UNL     1       0.828  13.530  20.705  0.00  0.00    +0.000 A 
ATOM     32  C   UNL     1       0.085  14.516  20.009  0.00  0.00    +0.000 A 
ATOM     33  C   UNL     1       0.712  15.646  19.476  0.00  0.00    +0.000 A 
ATOM     34  C   UNL     1       2.069  15.771  19.676  0.00  0.00    +0.000 A 
ATOM     35  C   UNL     1       2.803  14.790  20.304  0.00  0.00    +0.000 A 
ATOM     36  C   UNL     1       2.221  13.651  20.808  0.00  0.00    +0.000 A 
ATOM     37  O   UNL     1       4.115  15.129  20.429  0.00  0.00    +0.000 OA
ATOM     38  C   UNL     1       4.030  16.529  20.102  0.00  0.00    +0.000 C 
ATOM     39  O   UNL     1       2.833  16.853  19.363  0.00  0.00    +0.000 OA
ENDBRANCH  30  31
ENDBRANCH  14  30
TORSDOF 6
ENDMDL
