MODEL 1
REMARK VINA RESULT:      -8.3      0.000      0.000
REMARK  Name = 
REMARK  14 active torsions:
REMARK  status: ('A' for Active; 'I' for Inactive)
REMARK    1  A    between atoms: C_1  and  O_2
REMARK    2  A    between atoms: O_2  and  C_3
REMARK    3  A    between atoms: C_8  and  O_9
REMARK    4  A    between atoms: O_9  and  C_10
REMARK    5  A    between atoms: C_10  and  C_11
REMARK    6  A    between atoms: C_11  and  C_12
REMARK    7  A    between atoms: C_12  and  C_13
REMARK    8  A    between atoms: C_13  and  C_14
REMARK    9  A    between atoms: C_14  and  O_16
REMARK   10  A    between atoms: C_18  and  C_19
REMARK   11  A    between atoms: C_19  and  C_20
REMARK   12  A    between atoms: C_19  and  C_21
REMARK   13  A    between atoms: C_24  and  C_25
REMARK   14  A    between atoms: C_25  and  O_27
REMARK                            x       y       z     vdW  Elec       q    Type
REMARK                         _______ _______ _______ _____ _____    ______ ____
ROOT
ATOM      1  C   UNL     1       1.204   9.580  19.140  0.00  0.00    +0.000 A 
ATOM      2  C   UNL     1       2.102   8.757  18.446  0.00  0.00    +0.000 A 
ATOM      3  C   UNL     1       2.504   7.485  18.914  0.00  0.00    +0.000 A 
ATOM      4  C   UNL     1       1.952   7.045  20.117  0.00  0.00    +0.000 A 
ATOM      5  C   UNL     1       1.014   7.848  20.799  0.00  0.00    +0.000 A 
ATOM      6  C   UNL     1       0.607   9.090  20.302  0.00  0.00    +0.000 A 
ATOM      7  C   UNL     1       2.354   5.740  20.741  0.00  0.00    +0.000 C 
ATOM      8  C   UNL     1       3.176   4.762  19.878  0.00  0.00    +0.000 C 
ATOM      9  N   UNL     1       3.886   5.403  18.730  0.00  0.00    +0.000 N 
ATOM     10  C   UNL     1       4.915   4.693  18.090  0.00  0.00    +0.000 A 
ATOM     11  C   UNL     1       5.516   5.044  16.943  0.00  0.00    +0.000 A 
ATOM     12  C   UNL     1       5.064   6.301  16.332  0.00  0.00    +0.000 A 
ATOM     13  O   UNL     1       5.526   6.685  15.257  0.00  0.00    +0.000 OA
ATOM     14  C   UNL     1       4.053   7.101  17.044  0.00  0.00    +0.000 A 
ATOM     15  C   UNL     1       3.503   6.648  18.190  0.00  0.00    +0.000 A 
ENDROOT
BRANCH   8  16
ATOM     16  C   UNL     1       2.367   3.511  19.403  0.00  0.00    +0.000 C 
ATOM     17  C   UNL     1       1.561   2.878  20.549  0.00  0.00    +0.000 C 
ATOM     18  C   UNL     1       1.460   3.791  18.204  0.00  0.00    +0.000 C 
ENDBRANCH   8  16
BRANCH   1  20
ATOM     19  C   UNL     1       1.906  11.849  18.710  0.00  0.00    +0.000 C 
ATOM     20  O   UNL     1       0.895  10.848  18.735  0.00  0.00    +0.000 OA
ENDBRANCH   1  20
BRANCH  11  21
ATOM     21  C   UNL     1       6.563   4.189  16.353  0.00  0.00    +0.000 C 
ATOM     22  O   UNL     1       7.756   4.379  16.518  0.00  0.00    +0.000 OA
BRANCH  21  23
ATOM     23  O   UNL     1       6.093   3.157  15.610  0.00  0.00    +0.000 OA
ATOM     24  H   UNL     1       5.117   3.175  15.456  0.00  0.00    +0.000 HD
ENDBRANCH  21  23
ENDBRANCH  11  21
BRANCH   6  25
ATOM     25  O   UNL     1      -0.324   9.732  21.081  0.00  0.00    +0.000 OA
BRANCH  25  26
ATOM     26  C   UNL     1      -0.285   9.425  22.479  0.00  0.00    +0.000 C 
BRANCH  26  27
ATOM     27  C   UNL     1      -1.100  10.463  23.256  0.00  0.00    +0.000 C 
BRANCH  27  28
ATOM     28  C   UNL     1      -1.383  11.696  22.391  0.00  0.00    +0.000 C 
BRANCH  28  29
ATOM     29  C   UNL     1      -2.184  12.764  23.131  0.00  0.00    +0.000 C 
BRANCH  29  30
ATOM     30  C   UNL     1      -3.648  12.386  23.216  0.00  0.00    +0.000 C 
ATOM     31  O   UNL     1      -4.417  12.312  22.271  0.00  0.00    +0.000 OA
BRANCH  30  32
ATOM     32  O   UNL     1      -4.040  12.115  24.481  0.00  0.00    +0.000 OA
ATOM     33  H   UNL     1      -4.187  12.912  25.025  0.00  0.00    +0.000 HD
ENDBRANCH  30  32
ENDBRANCH  29  30
ENDBRANCH  28  29
ENDBRANCH  27  28
ENDBRANCH  26  27
ENDBRANCH  25  26
ENDBRANCH   6  25
TORSDOF 11
ENDMDL
MODEL 2
REMARK VINA RESULT:      -7.9      1.577      1.805
REMARK  Name = 
REMARK  14 active torsions:
REMARK  status: ('A' for Active; 'I' for Inactive)
REMARK    1  A    between atoms: C_1  and  O_2
REMARK    2  A    between atoms: O_2  and  C_3
REMARK    3  A    between atoms: C_8  and  O_9
REMARK    4  A    between atoms: O_9  and  C_10
REMARK    5  A    between atoms: C_10  and  C_11
REMARK    6  A    between atoms: C_11  and  C_12
REMARK    7  A    between atoms: C_12  and  C_13
REMARK    8  A    between atoms: C_13  and  C_14
REMARK    9  A    between atoms: C_14  and  O_16
REMARK   10  A    between atoms: C_18  and  C_19
REMARK   11  A    between atoms: C_19  and  C_20
REMARK   12  A    between atoms: C_19  and  C_21
REMARK   13  A    between atoms: C_24  and  C_25
REMARK   14  A    between atoms: C_25  and  O_27
REMARK                            x       y       z     vdW  Elec       q    Type
REMARK                         _______ _______ _______ _____ _____    ______ ____
ROOT
ATOM      1  C   UNL     1       1.140   9.434  19.228  0.00  0.00    +0.000 A 
ATOM      2  C   UNL     1       2.049   8.659  18.494  0.00  0.00    +0.000 A 
ATOM      3  C   UNL     1       2.499   7.387  18.917  0.00  0.00    +0.000 A 
ATOM      4  C   UNL     1       1.983   6.895  20.116  0.00  0.00    +0.000 A 
ATOM      5  C   UNL     1       1.034   7.648  20.839  0.00  0.00    +0.000 A 
ATOM      6  C   UNL     1       0.581   8.891  20.386  0.00  0.00    +0.000 A 
ATOM      7  C   UNL     1       2.436   5.586  20.693  0.00  0.00    +0.000 C 
ATOM      8  C   UNL     1       3.271   4.659  19.787  0.00  0.00    +0.000 C 
ATOM      9  N   UNL     1       3.940   5.355  18.646  0.00  0.00    +0.000 N 
ATOM     10  C   UNL     1       4.977   4.696  17.967  0.00  0.00    +0.000 A 
ATOM     11  C   UNL     1       5.545   5.098  16.820  0.00  0.00    +0.000 A 
ATOM     12  C   UNL     1       5.045   6.359  16.255  0.00  0.00    +0.000 A 
ATOM     13  O   UNL     1       5.474   6.788  15.184  0.00  0.00    +0.000 OA
ATOM     14  C   UNL     1       4.022   7.105  17.009  0.00  0.00    +0.000 A 
ATOM     15  C   UNL     1       3.509   6.603  18.151  0.00  0.00    +0.000 A 
ENDROOT
BRANCH   8  16
ATOM     16  C   UNL     1       2.491   3.398  19.290  0.00  0.00    +0.000 C 
ATOM     17  C   UNL     1       3.246   2.095  19.599  0.00  0.00    +0.000 C 
ATOM     18  C   UNL     1       1.058   3.321  19.818  0.00  0.00    +0.000 C 
ENDBRANCH   8  16
BRANCH   1  20
ATOM     19  C   UNL     1      -0.474  10.935  18.247  0.00  0.00    +0.000 C 
ATOM     20  O   UNL     1       0.785  10.703  18.867  0.00  0.00    +0.000 OA
ENDBRANCH   1  20
BRANCH  11  21
ATOM     21  C   UNL     1       6.607   4.294  16.186  0.00  0.00    +0.000 C 
ATOM     22  O   UNL     1       7.757   4.263  16.590  0.00  0.00    +0.000 OA
BRANCH  21  23
ATOM     23  O   UNL     1       6.200   3.575  15.112  0.00  0.00    +0.000 OA
ATOM     24  H   UNL     1       6.866   3.516  14.383  0.00  0.00    +0.000 HD
ENDBRANCH  21  23
ENDBRANCH  11  21
BRANCH   6  25
ATOM     25  O   UNL     1      -0.355   9.481  21.201  0.00  0.00    +0.000 OA
BRANCH  25  26
ATOM     26  C   UNL     1      -0.074   9.439  22.604  0.00  0.00    +0.000 C 
BRANCH  26  27
ATOM     27  C   UNL     1      -0.918  10.492  23.328  0.00  0.00    +0.000 C 
BRANCH  27  28
ATOM     28  C   UNL     1      -1.433  11.550  22.347  0.00  0.00    +0.000 C 
BRANCH  28  29
ATOM     29  C   UNL     1      -0.716  12.889  22.495  0.00  0.00    +0.000 C 
BRANCH  29  30
ATOM     30  C   UNL     1       0.197  13.152  21.315  0.00  0.00    +0.000 C 
ATOM     31  O   UNL     1       0.036  14.020  20.473  0.00  0.00    +0.000 OA
BRANCH  30  32
ATOM     32  O   UNL     1       1.257  12.312  21.285  0.00  0.00    +0.000 OA
ATOM     33  H   UNL     1       1.033  11.408  20.993  0.00  0.00    +0.000 HD
ENDBRANCH  30  32
ENDBRANCH  29  30
ENDBRANCH  28  29
ENDBRANCH  27  28
ENDBRANCH  26  27
ENDBRANCH  25  26
ENDBRANCH   6  25
TORSDOF 11
ENDMDL
MODEL 3
REMARK VINA RESULT:      -7.9      1.334      1.539
REMARK  Name = 
REMARK  14 active torsions:
REMARK  status: ('A' for Active; 'I' for Inactive)
REMARK    1  A    between atoms: C_1  and  O_2
REMARK    2  A    between atoms: O_2  and  C_3
REMARK    3  A    between atoms: C_8  and  O_9
REMARK    4  A    between atoms: O_9  and  C_10
REMARK    5  A    between atoms: C_10  and  C_11
REMARK    6  A    between atoms: C_11  and  C_12
REMARK    7  A    between atoms: C_12  and  C_13
REMARK    8  A    between atoms: C_13  and  C_14
REMARK    9  A    between atoms: C_14  and  O_16
REMARK   10  A    between atoms: C_18  and  C_19
REMARK   11  A    between atoms: C_19  and  C_20
REMARK   12  A    between atoms: C_19  and  C_21
REMARK   13  A    between atoms: C_24  and  C_25
REMARK   14  A    between atoms: C_25  and  O_27
REMARK                            x       y       z     vdW  Elec       q    Type
REMARK                         _______ _______ _______ _____ _____    ______ ____
ROOT
ATOM      1  C   UNL     1       1.118   9.462  19.197  0.00  0.00    +0.000 A 
ATOM      2  C   UNL     1       2.038   8.673  18.491  0.00  0.00    +0.000 A 
ATOM      3  C   UNL     1       2.464   7.400  18.932  0.00  0.00    +0.000 A 
ATOM      4  C   UNL     1       1.913   6.921  20.122  0.00  0.00    +0.000 A 
ATOM      5  C   UNL     1       0.954   7.689  20.816  0.00  0.00    +0.000 A 
ATOM      6  C   UNL     1       0.525   8.933  20.344  0.00  0.00    +0.000 A 
ATOM      7  C   UNL     1       2.338   5.612  20.719  0.00  0.00    +0.000 C 
ATOM      8  C   UNL     1       3.186   4.670  19.840  0.00  0.00    +0.000 C 
ATOM      9  N   UNL     1       3.890   5.352  18.711  0.00  0.00    +0.000 N 
ATOM     10  C   UNL     1       4.938   4.678  18.062  0.00  0.00    +0.000 A 
ATOM     11  C   UNL     1       5.538   5.067  16.928  0.00  0.00    +0.000 A 
ATOM     12  C   UNL     1       5.064   6.328  16.342  0.00  0.00    +0.000 A 
ATOM     13  O   UNL     1       5.525   6.746  15.279  0.00  0.00    +0.000 OA
ATOM     14  C   UNL     1       4.031   7.090  17.065  0.00  0.00    +0.000 A 
ATOM     15  C   UNL     1       3.484   6.600  18.197  0.00  0.00    +0.000 A 
ENDROOT
BRANCH   8  16
ATOM     16  C   UNL     1       2.406   3.413  19.332  0.00  0.00    +0.000 C 
ATOM     17  C   UNL     1       1.671   2.692  20.472  0.00  0.00    +0.000 C 
ATOM     18  C   UNL     1       1.443   3.718  18.184  0.00  0.00    +0.000 C 
ENDBRANCH   8  16
BRANCH   1  20
ATOM     19  C   UNL     1       1.786  11.743  18.778  0.00  0.00    +0.000 C 
ATOM     20  O   UNL     1       0.786  10.732  18.819  0.00  0.00    +0.000 OA
ENDBRANCH   1  20
BRANCH  11  21
ATOM     21  C   UNL     1       6.606   4.247  16.326  0.00  0.00    +0.000 C 
ATOM     22  O   UNL     1       7.794   4.471  16.487  0.00  0.00    +0.000 OA
BRANCH  21  23
ATOM     23  O   UNL     1       6.163   3.209  15.577  0.00  0.00    +0.000 OA
ATOM     24  H   UNL     1       5.298   2.832  15.872  0.00  0.00    +0.000 HD
ENDBRANCH  21  23
ENDBRANCH  11  21
BRANCH   6  25
ATOM     25  O   UNL     1      -0.424   9.538  21.131  0.00  0.00    +0.000 OA
BRANCH  25  26
ATOM     26  C   UNL     1      -0.090   9.676  22.515  0.00  0.00    +0.000 C 
BRANCH  26  27
ATOM     27  C   UNL     1      -1.027  10.695  23.171  0.00  0.00    +0.000 C 
BRANCH  27  28
ATOM     28  C   UNL     1      -1.153  11.956  22.311  0.00  0.00    +0.000 C 
BRANCH  28  29
ATOM     29  C   UNL     1      -1.235  13.232  23.145  0.00  0.00    +0.000 C 
BRANCH  29  30
ATOM     30  C   UNL     1      -0.327  14.308  22.586  0.00  0.00    +0.000 C 
ATOM     31  O   UNL     1       0.866  14.184  22.363  0.00  0.00    +0.000 OA
BRANCH  30  32
ATOM     32  O   UNL     1      -0.987  15.462  22.335  0.00  0.00    +0.000 OA
ATOM     33  H   UNL     1      -0.415  16.252  22.350  0.00  0.00    +0.000 HD
ENDBRANCH  30  32
ENDBRANCH  29  30
ENDBRANCH  28  29
ENDBRANCH  27  28
ENDBRANCH  26  27
ENDBRANCH  25  26
ENDBRANCH   6  25
TORSDOF 11
ENDMDL
MODEL 4
REMARK VINA RESULT:      -7.9      1.063      1.381
REMARK  Name = 
REMARK  14 active torsions:
REMARK  status: ('A' for Active; 'I' for Inactive)
REMARK    1  A    between atoms: C_1  and  O_2
REMARK    2  A    between atoms: O_2  and  C_3
REMARK    3  A    between atoms: C_8  and  O_9
REMARK    4  A    between atoms: O_9  and  C_10
REMARK    5  A    between atoms: C_10  and  C_11
REMARK    6  A    between atoms: C_11  and  C_12
REMARK    7  A    between atoms: C_12  and  C_13
REMARK    8  A    between atoms: C_13  and  C_14
REMARK    9  A    between atoms: C_14  and  O_16
REMARK   10  A    between atoms: C_18  and  C_19
REMARK   11  A    between atoms: C_19  and  C_20
REMARK   12  A    between atoms: C_19  and  C_21
REMARK   13  A    between atoms: C_24  and  C_25
REMARK   14  A    between atoms: C_25  and  O_27
REMARK                            x       y       z     vdW  Elec       q    Type
REMARK                         _______ _______ _______ _____ _____    ______ ____
ROOT
ATOM      1  C   UNL     1       1.174   9.650  19.009  0.00  0.00    +0.000 A 
ATOM      2  C   UNL     1       2.074   8.816  18.330  0.00  0.00    +0.000 A 
ATOM      3  C   UNL     1       2.469   7.548  18.815  0.00  0.00    +0.000 A 
ATOM      4  C   UNL     1       1.908   7.123  20.020  0.00  0.00    +0.000 A 
ATOM      5  C   UNL     1       0.969   7.937  20.687  0.00  0.00    +0.000 A 
ATOM      6  C   UNL     1       0.569   9.175  20.174  0.00  0.00    +0.000 A 
ATOM      7  C   UNL     1       2.302   5.825  20.661  0.00  0.00    +0.000 C 
ATOM      8  C   UNL     1       3.127   4.834  19.815  0.00  0.00    +0.000 C 
ATOM      9  N   UNL     1       3.846   5.460  18.664  0.00  0.00    +0.000 N 
ATOM     10  C   UNL     1       4.877   4.740  18.038  0.00  0.00    +0.000 A 
ATOM     11  C   UNL     1       5.486   5.075  16.892  0.00  0.00    +0.000 A 
ATOM     12  C   UNL     1       5.042   6.327  16.263  0.00  0.00    +0.000 A 
ATOM     13  O   UNL     1       5.512   6.697  15.187  0.00  0.00    +0.000 OA
ATOM     14  C   UNL     1       4.028   7.138  16.960  0.00  0.00    +0.000 A 
ATOM     15  C   UNL     1       3.470   6.700  18.108  0.00  0.00    +0.000 A 
ENDROOT
BRANCH   8  16
ATOM     16  C   UNL     1       2.316   3.580  19.350  0.00  0.00    +0.000 C 
ATOM     17  C   UNL     1       1.523   2.947  20.503  0.00  0.00    +0.000 C 
ATOM     18  C   UNL     1       1.398   3.856  18.159  0.00  0.00    +0.000 C 
ENDBRANCH   8  16
BRANCH   1  20
ATOM     19  C   UNL     1       1.806  11.969  18.789  0.00  0.00    +0.000 C 
ATOM     20  O   UNL     1       0.872  10.914  18.588  0.00  0.00    +0.000 OA
ENDBRANCH   1  20
BRANCH  11  21
ATOM     21  C   UNL     1       6.534   4.210  16.318  0.00  0.00    +0.000 C 
ATOM     22  O   UNL     1       6.347   3.473  15.364  0.00  0.00    +0.000 OA
BRANCH  21  23
ATOM     23  O   UNL     1       7.738   4.304  16.932  0.00  0.00    +0.000 OA
ATOM     24  H   UNL     1       8.352   4.966  16.529  0.00  0.00    +0.000 HD
ENDBRANCH  21  23
ENDBRANCH  11  21
BRANCH   6  25
ATOM     25  O   UNL     1      -0.365   9.828  20.940  0.00  0.00    +0.000 OA
BRANCH  25  26
ATOM     26  C   UNL     1       0.114  10.378  22.171  0.00  0.00    +0.000 C 
BRANCH  26  27
ATOM     27  C   UNL     1      -1.074  10.773  23.053  0.00  0.00    +0.000 C 
BRANCH  27  28
ATOM     28  C   UNL     1      -1.412  12.258  22.884  0.00  0.00    +0.000 C 
BRANCH  28  29
ATOM     29  C   UNL     1      -2.685  12.485  22.074  0.00  0.00    +0.000 C 
BRANCH  29  30
ATOM     30  C   UNL     1      -2.361  12.913  20.658  0.00  0.00    +0.000 C 
ATOM     31  O   UNL     1      -1.240  13.038  20.194  0.00  0.00    +0.000 OA
BRANCH  30  32
ATOM     32  O   UNL     1      -3.472  13.140  19.920  0.00  0.00    +0.000 OA
ATOM     33  H   UNL     1      -3.561  14.064  19.621  0.00  0.00    +0.000 HD
ENDBRANCH  30  32
ENDBRANCH  29  30
ENDBRANCH  28  29
ENDBRANCH  27  28
ENDBRANCH  26  27
ENDBRANCH  25  26
ENDBRANCH   6  25
TORSDOF 11
ENDMDL
MODEL 5
REMARK VINA RESULT:      -7.8      1.513      1.934
REMARK  Name = 
REMARK  14 active torsions:
REMARK  status: ('A' for Active; 'I' for Inactive)
REMARK    1  A    between atoms: C_1  and  O_2
REMARK    2  A    between atoms: O_2  and  C_3
REMARK    3  A    between atoms: C_8  and  O_9
REMARK    4  A    between atoms: O_9  and  C_10
REMARK    5  A    between atoms: C_10  and  C_11
REMARK    6  A    between atoms: C_11  and  C_12
REMARK    7  A    between atoms: C_12  and  C_13
REMARK    8  A    between atoms: C_13  and  C_14
REMARK    9  A    between atoms: C_14  and  O_16
REMARK   10  A    between atoms: C_18  and  C_19
REMARK   11  A    between atoms: C_19  and  C_20
REMARK   12  A    between atoms: C_19  and  C_21
REMARK   13  A    between atoms: C_24  and  C_25
REMARK   14  A    between atoms: C_25  and  O_27
REMARK                            x       y       z     vdW  Elec       q    Type
REMARK                         _______ _______ _______ _____ _____    ______ ____
ROOT
ATOM      1  C   UNL     1       1.206   9.672  18.989  0.00  0.00    +0.000 A 
ATOM      2  C   UNL     1       2.109   8.833  18.322  0.00  0.00    +0.000 A 
ATOM      3  C   UNL     1       2.517   7.577  18.827  0.00  0.00    +0.000 A 
ATOM      4  C   UNL     1       1.963   7.169  20.042  0.00  0.00    +0.000 A 
ATOM      5  C   UNL     1       1.020   7.987  20.698  0.00  0.00    +0.000 A 
ATOM      6  C   UNL     1       0.609   9.213  20.164  0.00  0.00    +0.000 A 
ATOM      7  C   UNL     1       2.370   5.886  20.704  0.00  0.00    +0.000 C 
ATOM      8  C   UNL     1       3.199   4.886  19.872  0.00  0.00    +0.000 C 
ATOM      9  N   UNL     1       3.909   5.498  18.708  0.00  0.00    +0.000 N 
ATOM     10  C   UNL     1       4.943   4.774  18.091  0.00  0.00    +0.000 A 
ATOM     11  C   UNL     1       5.545   5.094  16.936  0.00  0.00    +0.000 A 
ATOM     12  C   UNL     1       5.089   6.331  16.287  0.00  0.00    +0.000 A 
ATOM     13  O   UNL     1       5.552   6.685  15.203  0.00  0.00    +0.000 OA
ATOM     14  C   UNL     1       4.071   7.146  16.974  0.00  0.00    +0.000 A 
ATOM     15  C   UNL     1       3.521   6.724  18.131  0.00  0.00    +0.000 A 
ENDROOT
BRANCH   8  16
ATOM     16  C   UNL     1       2.397   3.618  19.433  0.00  0.00    +0.000 C 
ATOM     17  C   UNL     1       3.115   2.317  19.824  0.00  0.00    +0.000 C 
ATOM     18  C   UNL     1       0.954   3.604  19.939  0.00  0.00    +0.000 C 
ENDBRANCH   8  16
BRANCH   1  20
ATOM     19  C   UNL     1       1.871  11.958  18.594  0.00  0.00    +0.000 C 
ATOM     20  O   UNL     1       0.892  10.926  18.547  0.00  0.00    +0.000 OA
ENDBRANCH   1  20
BRANCH  11  21
ATOM     21  C   UNL     1       6.597   4.227  16.373  0.00  0.00    +0.000 C 
ATOM     22  O   UNL     1       7.787   4.394  16.583  0.00  0.00    +0.000 OA
BRANCH  21  23
ATOM     23  O   UNL     1       6.137   3.212  15.603  0.00  0.00    +0.000 OA
ATOM     24  H   UNL     1       5.275   2.830  15.902  0.00  0.00    +0.000 HD
ENDBRANCH  21  23
ENDBRANCH  11  21
BRANCH   6  25
ATOM     25  O   UNL     1      -0.327   9.872  20.922  0.00  0.00    +0.000 OA
BRANCH  25  26
ATOM     26  C   UNL     1       0.191  10.757  21.921  0.00  0.00    +0.000 C 
BRANCH  26  27
ATOM     27  C   UNL     1      -0.317  12.178  21.661  0.00  0.00    +0.000 C 
BRANCH  27  28
ATOM     28  C   UNL     1      -1.819  12.177  21.360  0.00  0.00    +0.000 C 
BRANCH  28  29
ATOM     29  C   UNL     1      -2.173  12.996  20.121  0.00  0.00    +0.000 C 
BRANCH  29  30
ATOM     30  C   UNL     1      -2.087  12.152  18.867  0.00  0.00    +0.000 C 
ATOM     31  O   UNL     1      -2.557  11.034  18.730  0.00  0.00    +0.000 OA
BRANCH  30  32
ATOM     32  O   UNL     1      -1.426  12.778  17.866  0.00  0.00    +0.000 OA
ATOM     33  H   UNL     1      -0.538  12.413  17.694  0.00  0.00    +0.000 HD
ENDBRANCH  30  32
ENDBRANCH  29  30
ENDBRANCH  28  29
ENDBRANCH  27  28
ENDBRANCH  26  27
ENDBRANCH  25  26
ENDBRANCH   6  25
TORSDOF 11
ENDMDL
MODEL 6
REMARK VINA RESULT:      -7.8      1.261      1.484
REMARK  Name = 
REMARK  14 active torsions:
REMARK  status: ('A' for Active; 'I' for Inactive)
REMARK    1  A    between atoms: C_1  and  O_2
REMARK    2  A    between atoms: O_2  and  C_3
REMARK    3  A    between atoms: C_8  and  O_9
REMARK    4  A    between atoms: O_9  and  C_10
REMARK    5  A    between atoms: C_10  and  C_11
REMARK    6  A    between atoms: C_11  and  C_12
REMARK    7  A    between atoms: C_12  and  C_13
REMARK    8  A    between atoms: C_13  and  C_14
REMARK    9  A    between atoms: C_14  and  O_16
REMARK   10  A    between atoms: C_18  and  C_19
REMARK   11  A    between atoms: C_19  and  C_20
REMARK   12  A    between atoms: C_19  and  C_21
REMARK   13  A    between atoms: C_24  and  C_25
REMARK   14  A    between atoms: C_25  and  O_27
REMARK                            x       y       z     vdW  Elec       q    Type
REMARK                         _______ _______ _______ _____ _____    ______ ____
ROOT
ATOM      1  C   UNL     1       1.215   9.502  19.165  0.00  0.00    +0.000 A 
ATOM      2  C   UNL     1       2.116   8.698  18.453  0.00  0.00    +0.000 A 
ATOM      3  C   UNL     1       2.524   7.418  18.892  0.00  0.00    +0.000 A 
ATOM      4  C   UNL     1       1.974   6.948  20.085  0.00  0.00    +0.000 A 
ATOM      5  C   UNL     1       1.032   7.731  20.785  0.00  0.00    +0.000 A 
ATOM      6  C   UNL     1       0.621   8.983  20.316  0.00  0.00    +0.000 A 
ATOM      7  C   UNL     1       2.381   5.631  20.679  0.00  0.00    +0.000 C 
ATOM      8  C   UNL     1       3.207   4.676  19.794  0.00  0.00    +0.000 C 
ATOM      9  N   UNL     1       3.915   5.346  18.661  0.00  0.00    +0.000 N 
ATOM     10  C   UNL     1       4.946   4.655  18.005  0.00  0.00    +0.000 A 
ATOM     11  C   UNL     1       5.545   5.033  16.867  0.00  0.00    +0.000 A 
ATOM     12  C   UNL     1       5.089   6.303  16.284  0.00  0.00    +0.000 A 
ATOM     13  O   UNL     1       5.549   6.713  15.218  0.00  0.00    +0.000 OA
ATOM     14  C   UNL     1       4.074   7.082  17.014  0.00  0.00    +0.000 A 
ATOM     15  C   UNL     1       3.526   6.601  18.150  0.00  0.00    +0.000 A 
ENDROOT
BRANCH   8  16
ATOM     16  C   UNL     1       2.403   3.432  19.292  0.00  0.00    +0.000 C 
ATOM     17  C   UNL     1       1.620   3.735  18.004  0.00  0.00    +0.000 C 
ATOM     18  C   UNL     1       3.264   2.183  19.111  0.00  0.00    +0.000 C 
ENDBRANCH   8  16
BRANCH   1  20
ATOM     19  C   UNL     1       1.937  11.683  18.427  0.00  0.00    +0.000 C 
ATOM     20  O   UNL     1       0.901  10.777  18.789  0.00  0.00    +0.000 OA
ENDBRANCH   1  20
BRANCH  11  21
ATOM     21  C   UNL     1       6.596   4.197  16.257  0.00  0.00    +0.000 C 
ATOM     22  O   UNL     1       7.787   4.438  16.356  0.00  0.00    +0.000 OA
BRANCH  21  23
ATOM     23  O   UNL     1       6.132   3.120  15.578  0.00  0.00    +0.000 OA
ATOM     24  H   UNL     1       5.697   2.435  16.144  0.00  0.00    +0.000 HD
ENDBRANCH  21  23
ENDBRANCH  11  21
BRANCH   6  25
ATOM     25  O   UNL     1      -0.313   9.603  21.110  0.00  0.00    +0.000 OA
BRANCH  25  26
ATOM     26  C   UNL     1      -0.052   9.575  22.517  0.00  0.00    +0.000 C 
BRANCH  26  27
ATOM     27  C   UNL     1      -1.045  10.489  23.241  0.00  0.00    +0.000 C 
BRANCH  27  28
ATOM     28  C   UNL     1      -0.961  11.923  22.706  0.00  0.00    +0.000 C 
BRANCH  28  29
ATOM     29  C   UNL     1      -2.227  12.351  21.969  0.00  0.00    +0.000 C 
BRANCH  29  30
ATOM     30  C   UNL     1      -1.916  12.761  20.544  0.00  0.00    +0.000 C 
ATOM     31  O   UNL     1      -1.822  13.909  20.141  0.00  0.00    +0.000 OA
BRANCH  30  32
ATOM     32  O   UNL     1      -1.732  11.697  19.729  0.00  0.00    +0.000 OA
ATOM     33  H   UNL     1      -1.072  11.851  19.027  0.00  0.00    +0.000 HD
ENDBRANCH  30  32
ENDBRANCH  29  30
ENDBRANCH  28  29
ENDBRANCH  27  28
ENDBRANCH  26  27
ENDBRANCH  25  26
ENDBRANCH   6  25
TORSDOF 11
ENDMDL
MODEL 7
REMARK VINA RESULT:      -7.8      2.390      9.628
REMARK  Name = 
REMARK  14 active torsions:
REMARK  status: ('A' for Active; 'I' for Inactive)
REMARK    1  A    between atoms: C_1  and  O_2
REMARK    2  A    between atoms: O_2  and  C_3
REMARK    3  A    between atoms: C_8  and  O_9
REMARK    4  A    between atoms: O_9  and  C_10
REMARK    5  A    between atoms: C_10  and  C_11
REMARK    6  A    between atoms: C_11  and  C_12
REMARK    7  A    between atoms: C_12  and  C_13
REMARK    8  A    between atoms: C_13  and  C_14
REMARK    9  A    between atoms: C_14  and  O_16
REMARK   10  A    between atoms: C_18  and  C_19
REMARK   11  A    between atoms: C_19  and  C_20
REMARK   12  A    between atoms: C_19  and  C_21
REMARK   13  A    between atoms: C_24  and  C_25
REMARK   14  A    between atoms: C_25  and  O_27
REMARK                            x       y       z     vdW  Elec       q    Type
REMARK                         _______ _______ _______ _____ _____    ______ ____
ROOT
ATOM      1  C   UNL     1       2.875   6.300  19.553  0.00  0.00    +0.000 A 
ATOM      2  C   UNL     1       2.114   7.173  20.343  0.00  0.00    +0.000 A 
ATOM      3  C   UNL     1       1.524   8.355  19.841  0.00  0.00    +0.000 A 
ATOM      4  C   UNL     1       1.708   8.633  18.486  0.00  0.00    +0.000 A 
ATOM      5  C   UNL     1       2.435   7.737  17.673  0.00  0.00    +0.000 A 
ATOM      6  C   UNL     1       2.984   6.557  18.186  0.00  0.00    +0.000 A 
ATOM      7  C   UNL     1       1.181   9.890  17.858  0.00  0.00    +0.000 C 
ATOM      8  C   UNL     1       0.183  10.732  18.678  0.00  0.00    +0.000 C 
ATOM      9  N   UNL     1       0.232  10.480  20.150  0.00  0.00    +0.000 N 
ATOM     10  C   UNL     1      -0.372  11.407  21.015  0.00  0.00    +0.000 A 
ATOM     11  C   UNL     1      -0.578  11.237  22.329  0.00  0.00    +0.000 A 
ATOM     12  C   UNL     1      -0.095   9.973  22.904  0.00  0.00    +0.000 A 
ATOM     13  O   UNL     1      -0.276   9.708  24.092  0.00  0.00    +0.000 OA
ATOM     14  C   UNL     1       0.624   9.035  22.024  0.00  0.00    +0.000 A 
ATOM     15  C   UNL     1       0.766   9.301  20.709  0.00  0.00    +0.000 A 
ENDROOT
BRANCH   8  16
ATOM     16  C   UNL     1      -1.286  10.656  18.148  0.00  0.00    +0.000 C 
ATOM     17  C   UNL     1      -1.825  12.037  17.744  0.00  0.00    +0.000 C 
ATOM     18  C   UNL     1      -1.470   9.656  17.006  0.00  0.00    +0.000 C 
ENDBRANCH   8  16
BRANCH   1  20
ATOM     19  C   UNL     1       2.820   3.993  20.257  0.00  0.00    +0.000 C 
ATOM     20  O   UNL     1       3.526   5.213  20.064  0.00  0.00    +0.000 OA
ENDBRANCH   1  20
BRANCH  11  21
ATOM     21  C   UNL     1      -1.260  12.276  23.123  0.00  0.00    +0.000 C 
ATOM     22  O   UNL     1      -0.745  13.342  23.415  0.00  0.00    +0.000 OA
BRANCH  21  23
ATOM     23  O   UNL     1      -2.521  11.958  23.501  0.00  0.00    +0.000 OA
ATOM     24  H   UNL     1      -2.916  12.571  24.168  0.00  0.00    +0.000 HD
ENDBRANCH  21  23
ENDBRANCH  11  21
BRANCH   6  25
ATOM     25  O   UNL     1       3.644   5.792  17.256  0.00  0.00    +0.000 OA
BRANCH  25  26
ATOM     26  C   UNL     1       4.747   6.424  16.599  0.00  0.00    +0.000 C 
BRANCH  26  27
ATOM     27  C   UNL     1       5.969   6.417  17.523  0.00  0.00    +0.000 C 
BRANCH  27  28
ATOM     28  C   UNL     1       7.233   6.015  16.757  0.00  0.00    +0.000 C 
BRANCH  28  29
ATOM     29  C   UNL     1       7.155   4.598  16.195  0.00  0.00    +0.000 C 
BRANCH  29  30
ATOM     30  C   UNL     1       7.030   4.616  14.685  0.00  0.00    +0.000 C 
ATOM     31  O   UNL     1       6.284   3.910  14.027  0.00  0.00    +0.000 OA
BRANCH  30  32
ATOM     32  O   UNL     1       7.843   5.532  14.110  0.00  0.00    +0.000 OA
ATOM     33  H   UNL     1       7.611   6.454  14.328  0.00  0.00    +0.000 HD
ENDBRANCH  30  32
ENDBRANCH  29  30
ENDBRANCH  28  29
ENDBRANCH  27  28
ENDBRANCH  26  27
ENDBRANCH  25  26
ENDBRANCH   6  25
TORSDOF 11
ENDMDL
MODEL 8
REMARK VINA RESULT:      -7.8      0.854      1.084
REMARK  Name = 
REMARK  14 active torsions:
REMARK  status: ('A' for Active; 'I' for Inactive)
REMARK    1  A    between atoms: C_1  and  O_2
REMARK    2  A    between atoms: O_2  and  C_3
REMARK    3  A    between atoms: C_8  and  O_9
REMARK    4  A    between atoms: O_9  and  C_10
REMARK    5  A    between atoms: C_10  and  C_11
REMARK    6  A    between atoms: C_11  and  C_12
REMARK    7  A    between atoms: C_12  and  C_13
REMARK    8  A    between atoms: C_13  and  C_14
REMARK    9  A    between atoms: C_14  and  O_16
REMARK   10  A    between atoms: C_18  and  C_19
REMARK   11  A    between atoms: C_19  and  C_20
REMARK   12  A    between atoms: C_19  and  C_21
REMARK   13  A    between atoms: C_24  and  C_25
REMARK   14  A    between atoms: C_25  and  O_27
REMARK                            x       y       z     vdW  Elec       q    Type
REMARK                         _______ _______ _______ _____ _____    ______ ____
ROOT
ATOM      1  C   UNL     1       1.237   9.120  19.474  0.00  0.00    +0.000 A 
ATOM      2  C   UNL     1       2.137   8.411  18.665  0.00  0.00    +0.000 A 
ATOM      3  C   UNL     1       2.554   7.090  18.947  0.00  0.00    +0.000 A 
ATOM      4  C   UNL     1       2.015   6.480  20.079  0.00  0.00    +0.000 A 
ATOM      5  C   UNL     1       1.075   7.170  20.874  0.00  0.00    +0.000 A 
ATOM      6  C   UNL     1       0.654   8.466  20.559  0.00  0.00    +0.000 A 
ATOM      7  C   UNL     1       2.433   5.104  20.511  0.00  0.00    +0.000 C 
ATOM      8  C   UNL     1       3.257   4.265  19.514  0.00  0.00    +0.000 C 
ATOM      9  N   UNL     1       3.953   5.068  18.463  0.00  0.00    +0.000 N 
ATOM     10  C   UNL     1       4.982   4.465  17.723  0.00  0.00    +0.000 A 
ATOM     11  C   UNL     1       5.571   4.979  16.633  0.00  0.00    +0.000 A 
ATOM     12  C   UNL     1       5.104   6.306  16.208  0.00  0.00    +0.000 A 
ATOM     13  O   UNL     1       5.555   6.842  15.195  0.00  0.00    +0.000 OA
ATOM     14  C   UNL     1       4.091   6.988  17.032  0.00  0.00    +0.000 A 
ATOM     15  C   UNL     1       3.554   6.373  18.106  0.00  0.00    +0.000 A 
ENDROOT
BRANCH   8  16
ATOM     16  C   UNL     1       2.454   3.085  18.873  0.00  0.00    +0.000 C 
ATOM     17  C   UNL     1       3.224   1.757  18.948  0.00  0.00    +0.000 C 
ATOM     18  C   UNL     1       1.049   2.921  19.451  0.00  0.00    +0.000 C 
ENDBRANCH   8  16
BRANCH   1  20
ATOM     19  C   UNL     1      -0.296  10.756  18.580  0.00  0.00    +0.000 C 
ATOM     20  O   UNL     1       0.914  10.430  19.253  0.00  0.00    +0.000 OA
ENDBRANCH   1  20
BRANCH  11  21
ATOM     21  C   UNL     1       6.621   4.226  15.922  0.00  0.00    +0.000 C 
ATOM     22  O   UNL     1       7.814   4.400  16.107  0.00  0.00    +0.000 OA
BRANCH  21  23
ATOM     23  O   UNL     1       6.155   3.308  15.042  0.00  0.00    +0.000 OA
ATOM     24  H   UNL     1       6.770   2.551  14.874  0.00  0.00    +0.000 HD
ENDBRANCH  21  23
ENDBRANCH  11  21
BRANCH   6  25
ATOM     25  O   UNL     1      -0.277   8.982  21.427  0.00  0.00    +0.000 OA
BRANCH  25  26
ATOM     26  C   UNL     1       0.246   9.739  22.523  0.00  0.00    +0.000 C 
BRANCH  26  27
ATOM     27  C   UNL     1      -0.907  10.377  23.303  0.00  0.00    +0.000 C 
BRANCH  27  28
ATOM     28  C   UNL     1      -1.357  11.686  22.644  0.00  0.00    +0.000 C 
BRANCH  28  29
ATOM     29  C   UNL     1      -2.630  12.252  23.267  0.00  0.00    +0.000 C 
BRANCH  29  30
ATOM     30  C   UNL     1      -3.687  12.505  22.212  0.00  0.00    +0.000 C 
ATOM     31  O   UNL     1      -4.893  12.479  22.396  0.00  0.00    +0.000 OA
BRANCH  30  32
ATOM     32  O   UNL     1      -3.153  12.787  21.002  0.00  0.00    +0.000 OA
ATOM     33  H   UNL     1      -3.521  13.590  20.588  0.00  0.00    +0.000 HD
ENDBRANCH  30  32
ENDBRANCH  29  30
ENDBRANCH  28  29
ENDBRANCH  27  28
ENDBRANCH  26  27
ENDBRANCH  25  26
ENDBRANCH   6  25
TORSDOF 11
ENDMDL
MODEL 9
REMARK VINA RESULT:      -7.6      2.291      3.131
REMARK  Name = 
REMARK  14 active torsions:
REMARK  status: ('A' for Active; 'I' for Inactive)
REMARK    1  A    between atoms: C_1  and  O_2
REMARK    2  A    between atoms: O_2  and  C_3
REMARK    3  A    between atoms: C_8  and  O_9
REMARK    4  A    between atoms: O_9  and  C_10
REMARK    5  A    between atoms: C_10  and  C_11
REMARK    6  A    between atoms: C_11  and  C_12
REMARK    7  A    between atoms: C_12  and  C_13
REMARK    8  A    between atoms: C_13  and  C_14
REMARK    9  A    between atoms: C_14  and  O_16
REMARK   10  A    between atoms: C_18  and  C_19
REMARK   11  A    between atoms: C_19  and  C_20
REMARK   12  A    between atoms: C_19  and  C_21
REMARK   13  A    between atoms: C_24  and  C_25
REMARK   14  A    between atoms: C_25  and  O_27
REMARK                            x       y       z     vdW  Elec       q    Type
REMARK                         _______ _______ _______ _____ _____    ______ ____
ROOT
ATOM      1  C   UNL     1       1.552  10.092  18.582  0.00  0.00    +0.000 A 
ATOM      2  C   UNL     1       2.386   9.149  17.965  0.00  0.00    +0.000 A 
ATOM      3  C   UNL     1       2.647   7.872  18.513  0.00  0.00    +0.000 A 
ATOM      4  C   UNL     1       2.017   7.555  19.717  0.00  0.00    +0.000 A 
ATOM      5  C   UNL     1       1.141   8.481  20.322  0.00  0.00    +0.000 A 
ATOM      6  C   UNL     1       0.874   9.727  19.745  0.00  0.00    +0.000 A 
ATOM      7  C   UNL     1       2.269   6.254  20.423  0.00  0.00    +0.000 C 
ATOM      8  C   UNL     1       3.017   5.155  19.643  0.00  0.00    +0.000 C 
ATOM      9  N   UNL     1       3.823   5.660  18.490  0.00  0.00    +0.000 N 
ATOM     10  C   UNL     1       4.797   4.819  17.926  0.00  0.00    +0.000 A 
ATOM     11  C   UNL     1       5.465   5.046  16.785  0.00  0.00    +0.000 A 
ATOM     12  C   UNL     1       5.158   6.305  16.093  0.00  0.00    +0.000 A 
ATOM     13  O   UNL     1       5.689   6.582  15.017  0.00  0.00    +0.000 OA
ATOM     14  C   UNL     1       4.208   7.237  16.725  0.00  0.00    +0.000 A 
ATOM     15  C   UNL     1       3.581   6.904  17.872  0.00  0.00    +0.000 A 
ENDROOT
BRANCH   8  16
ATOM     16  C   UNL     1       2.104   3.963  19.205  0.00  0.00    +0.000 C 
ATOM     17  C   UNL     1       1.040   3.634  20.264  0.00  0.00    +0.000 C 
ATOM     18  C   UNL     1       1.451   4.167  17.838  0.00  0.00    +0.000 C 
ENDBRANCH   8  16
BRANCH   1  20
ATOM     19  C   UNL     1       2.452  12.295  18.178  0.00  0.00    +0.000 C 
ATOM     20  O   UNL     1       1.382  11.360  18.100  0.00  0.00    +0.000 OA
ENDBRANCH   1  20
BRANCH  11  21
ATOM     21  C   UNL     1       6.441   4.063  16.279  0.00  0.00    +0.000 C 
ATOM     22  O   UNL     1       6.212   3.308  15.350  0.00  0.00    +0.000 OA
BRANCH  21  23
ATOM     23  O   UNL     1       7.630   4.067  16.928  0.00  0.00    +0.000 OA
ATOM     24  H   UNL     1       7.901   4.951  17.280  0.00  0.00    +0.000 HD
ENDBRANCH  21  23
ENDBRANCH  11  21
BRANCH   6  25
ATOM     25  O   UNL     1      -0.013  10.498  20.455  0.00  0.00    +0.000 OA
BRANCH  25  26
ATOM     26  C   UNL     1      -1.092  11.060  19.702  0.00  0.00    +0.000 C 
BRANCH  26  27
ATOM     27  C   UNL     1      -1.886   9.938  19.026  0.00  0.00    +0.000 C 
BRANCH  27  28
ATOM     28  C   UNL     1      -1.840  10.076  17.501  0.00  0.00    +0.000 C 
BRANCH  28  29
ATOM     29  C   UNL     1      -3.200   9.845  16.847  0.00  0.00    +0.000 C 
BRANCH  29  30
ATOM     30  C   UNL     1      -3.546  10.972  15.896  0.00  0.00    +0.000 C 
ATOM     31  O   UNL     1      -3.288  10.998  14.703  0.00  0.00    +0.000 OA
BRANCH  30  32
ATOM     32  O   UNL     1      -4.203  11.983  16.509  0.00  0.00    +0.000 OA
ATOM     33  H   UNL     1      -3.671  12.796  16.604  0.00  0.00    +0.000 HD
ENDBRANCH  30  32
ENDBRANCH  29  30
ENDBRANCH  28  29
ENDBRANCH  27  28
ENDBRANCH  26  27
ENDBRANCH  25  26
ENDBRANCH   6  25
TORSDOF 11
ENDMDL
