MODEL 1
REMARK VINA RESULT:      -8.3      0.000      0.000
REMARK  Name = 
REMARK  10 active torsions:
REMARK  status: ('A' for Active; 'I' for Inactive)
REMARK    1  A    between atoms: C_1  and  O_2
REMARK    2  A    between atoms: O_2  and  C_3
REMARK    3  A    between atoms: C_5  and  O_6
REMARK    4  A    between atoms: O_6  and  C_7
REMARK    5  A    between atoms: C_9  and  S_10
REMARK    6  A    between atoms: S_10  and  C_11
REMARK    7  A    between atoms: C_14  and  C_15
REMARK    8  A    between atoms: C_15  and  C_16
REMARK    9  A    between atoms: C_15  and  N_17
REMARK   10  A    between atoms: N_17  and  C_18
REMARK                            x       y       z     vdW  Elec       q    Type
REMARK                         _______ _______ _______ _____ _____    ______ ____
ROOT
ATOM      1  C   UNL     1       1.832   5.723  20.007  0.00  0.00    +0.000 C 
ATOM      2  C   UNL     1       0.718   4.852  20.604  0.00  0.00    +0.000 C 
ENDROOT
BRANCH   1   3
ATOM      3  N   UNL     1       2.150   5.320  18.635  0.00  0.00    +0.000 N 
ATOM      4  C   UNL     1       1.146   4.716  17.776  0.00  0.00    +0.000 C 
ATOM      5  C   UNL     1       3.474   5.104  18.275  0.00  0.00    +0.000 A 
ATOM      6  N   UNL     1       3.735   4.739  17.010  0.00  0.00    +0.000 NA
ATOM      7  C   UNL     1       5.019   4.562  16.662  0.00  0.00    +0.000 A 
ATOM      8  C   UNL     1       6.072   4.720  17.544  0.00  0.00    +0.000 A 
ATOM      9  C   UNL     1       7.429   4.575  17.258  0.00  0.00    +0.000 A 
ATOM     10  N   UNL     1       7.902   4.291  15.977  0.00  0.00    +0.000 N 
ATOM     11  N   UNL     1       8.367   4.749  18.190  0.00  0.00    +0.000 NA
ATOM     12  C   UNL     1       7.937   5.045  19.416  0.00  0.00    +0.000 A 
ATOM     13  N   UNL     1       8.897   5.198  20.396  0.00  0.00    +0.000 N 
ATOM     14  N   UNL     1       6.664   5.230  19.760  0.00  0.00    +0.000 NA
ATOM     15  C   UNL     1       5.728   5.071  18.830  0.00  0.00    +0.000 A 
ATOM     16  N   UNL     1       4.453   5.267  19.179  0.00  0.00    +0.000 NA
ATOM     17  H   UNL     1       7.501   3.447  15.583  0.00  0.00    +0.000 HD
ATOM     18  H   UNL     1       8.920   4.218  16.037  0.00  0.00    +0.000 HD
ATOM     19  H   UNL     1       9.788   5.440  19.985  0.00  0.00    +0.000 HD
ATOM     20  H   UNL     1       8.549   5.791  21.137  0.00  0.00    +0.000 HD
ENDBRANCH   1   3
BRANCH   1  24
ATOM     21  C   UNL     1       0.607   9.899  20.255  0.00  0.00    +0.000 A 
ATOM     22  C   UNL     1       0.327   9.000  21.287  0.00  0.00    +0.000 A 
ATOM     23  C   UNL     1       0.815   7.688  21.239  0.00  0.00    +0.000 A 
ATOM     24  C   UNL     1       1.563   7.232  20.140  0.00  0.00    +0.000 A 
ATOM     25  C   UNL     1       1.903   8.168  19.148  0.00  0.00    +0.000 A 
ATOM     26  C   UNL     1       1.421   9.485  19.200  0.00  0.00    +0.000 A 
BRANCH  21  27
ATOM     27  S   UNL     1      -0.163  11.507  20.232  0.00  0.00    +0.000 S 
BRANCH  27  32
ATOM     28  C   UNL     1      -3.852  11.636  18.466  0.00  0.00    +0.000 A 
ATOM     29  C   UNL     1      -3.621  10.908  17.298  0.00  0.00    +0.000 A 
ATOM     30  C   UNL     1      -2.358  10.380  17.017  0.00  0.00    +0.000 A 
ATOM     31  C   UNL     1      -1.316  10.593  17.919  0.00  0.00    +0.000 A 
ATOM     32  C   UNL     1      -1.529  11.326  19.095  0.00  0.00    +0.000 A 
ATOM     33  C   UNL     1      -2.804  11.833  19.364  0.00  0.00    +0.000 A 
BRANCH  28  35
ATOM     34  C   UNL     1      -6.178  11.169  18.324  0.00  0.00    +0.000 C 
ATOM     35  O   UNL     1      -5.134  12.089  18.628  0.00  0.00    +0.000 OA
ENDBRANCH  28  35
BRANCH  30  36
ATOM     36  O   UNL     1      -2.279   9.673  15.849  0.00  0.00    +0.000 OA
ATOM     37  C   UNL     1      -3.195  10.026  14.819  0.00  0.00    +0.000 C 
ENDBRANCH  30  36
ENDBRANCH  27  32
ENDBRANCH  21  27
ENDBRANCH   1  24
TORSDOF 6
ENDMDL
MODEL 2
REMARK VINA RESULT:      -8.2      1.636      2.648
REMARK  Name = 
REMARK  10 active torsions:
REMARK  status: ('A' for Active; 'I' for Inactive)
REMARK    1  A    between atoms: C_1  and  O_2
REMARK    2  A    between atoms: O_2  and  C_3
REMARK    3  A    between atoms: C_5  and  O_6
REMARK    4  A    between atoms: O_6  and  C_7
REMARK    5  A    between atoms: C_9  and  S_10
REMARK    6  A    between atoms: S_10  and  C_11
REMARK    7  A    between atoms: C_14  and  C_15
REMARK    8  A    between atoms: C_15  and  C_16
REMARK    9  A    between atoms: C_15  and  N_17
REMARK   10  A    between atoms: N_17  and  C_18
REMARK                            x       y       z     vdW  Elec       q    Type
REMARK                         _______ _______ _______ _____ _____    ______ ____
ROOT
ATOM      1  C   UNL     1       2.470   4.408  20.039  0.00  0.00    +0.000 C 
ATOM      2  C   UNL     1       1.541   3.558  20.918  0.00  0.00    +0.000 C 
ENDROOT
BRANCH   1   3
ATOM      3  N   UNL     1       2.800   3.722  18.788  0.00  0.00    +0.000 N 
ATOM      4  C   UNL     1       2.325   2.375  18.520  0.00  0.00    +0.000 C 
ATOM      5  C   UNL     1       3.892   4.145  18.043  0.00  0.00    +0.000 A 
ATOM      6  N   UNL     1       4.167   3.499  16.898  0.00  0.00    +0.000 NA
ATOM      7  C   UNL     1       5.208   3.934  16.169  0.00  0.00    +0.000 A 
ATOM      8  C   UNL     1       6.009   4.993  16.549  0.00  0.00    +0.000 A 
ATOM      9  C   UNL     1       7.091   5.517  15.841  0.00  0.00    +0.000 A 
ATOM     10  N   UNL     1       7.472   5.040  14.587  0.00  0.00    +0.000 N 
ATOM     11  N   UNL     1       7.803   6.546  16.304  0.00  0.00    +0.000 NA
ATOM     12  C   UNL     1       7.440   7.032  17.490  0.00  0.00    +0.000 A 
ATOM     13  N   UNL     1       8.187   8.078  17.992  0.00  0.00    +0.000 N 
ATOM     14  N   UNL     1       6.403   6.608  18.210  0.00  0.00    +0.000 NA
ATOM     15  C   UNL     1       5.683   5.592  17.745  0.00  0.00    +0.000 A 
ATOM     16  N   UNL     1       4.638   5.177  18.467  0.00  0.00    +0.000 NA
ATOM     17  H   UNL     1       7.664   4.045  14.581  0.00  0.00    +0.000 HD
ATOM     18  H   UNL     1       8.294   5.572  14.295  0.00  0.00    +0.000 HD
ATOM     19  H   UNL     1       8.652   8.573  17.244  0.00  0.00    +0.000 HD
ATOM     20  H   UNL     1       7.635   8.624  18.640  0.00  0.00    +0.000 HD
ENDBRANCH   1   3
BRANCH   1  24
ATOM     21  C   UNL     1       1.490   8.605  19.394  0.00  0.00    +0.000 A 
ATOM     22  C   UNL     1       1.865   7.778  18.332  0.00  0.00    +0.000 A 
ATOM     23  C   UNL     1       2.078   6.409  18.538  0.00  0.00    +0.000 A 
ATOM     24  C   UNL     1       1.958   5.841  19.819  0.00  0.00    +0.000 A 
ATOM     25  C   UNL     1       1.503   6.669  20.860  0.00  0.00    +0.000 A 
ATOM     26  C   UNL     1       1.281   8.039  20.651  0.00  0.00    +0.000 A 
BRANCH  21  27
ATOM     27  S   UNL     1       1.396  10.371  19.165  0.00  0.00    +0.000 S 
BRANCH  27  32
ATOM     28  C   UNL     1      -2.374  10.369  17.573  0.00  0.00    +0.000 A 
ATOM     29  C   UNL     1      -3.011  11.313  18.379  0.00  0.00    +0.000 A 
ATOM     30  C   UNL     1      -2.327  11.954  19.417  0.00  0.00    +0.000 A 
ATOM     31  C   UNL     1      -0.989  11.634  19.647  0.00  0.00    +0.000 A 
ATOM     32  C   UNL     1      -0.335  10.684  18.850  0.00  0.00    +0.000 A 
ATOM     33  C   UNL     1      -1.033  10.067  17.808  0.00  0.00    +0.000 A 
BRANCH  28  35
ATOM     34  C   UNL     1      -2.946  10.320  15.267  0.00  0.00    +0.000 C 
ATOM     35  O   UNL     1      -3.151   9.824  16.587  0.00  0.00    +0.000 OA
ENDBRANCH  28  35
BRANCH  30  36
ATOM     36  O   UNL     1      -3.067  12.869  20.114  0.00  0.00    +0.000 OA
ATOM     37  C   UNL     1      -4.467  12.893  19.858  0.00  0.00    +0.000 C 
ENDBRANCH  30  36
ENDBRANCH  27  32
ENDBRANCH  21  27
ENDBRANCH   1  24
TORSDOF 6
ENDMDL
MODEL 3
REMARK VINA RESULT:      -8.1      1.397      2.393
REMARK  Name = 
REMARK  10 active torsions:
REMARK  status: ('A' for Active; 'I' for Inactive)
REMARK    1  A    between atoms: C_1  and  O_2
REMARK    2  A    between atoms: O_2  and  C_3
REMARK    3  A    between atoms: C_5  and  O_6
REMARK    4  A    between atoms: O_6  and  C_7
REMARK    5  A    between atoms: C_9  and  S_10
REMARK    6  A    between atoms: S_10  and  C_11
REMARK    7  A    between atoms: C_14  and  C_15
REMARK    8  A    between atoms: C_15  and  C_16
REMARK    9  A    between atoms: C_15  and  N_17
REMARK   10  A    between atoms: N_17  and  C_18
REMARK                            x       y       z     vdW  Elec       q    Type
REMARK                         _______ _______ _______ _____ _____    ______ ____
ROOT
ATOM      1  C   UNL     1       1.991   5.276  19.773  0.00  0.00    +0.000 C 
ATOM      2  C   UNL     1       0.789   4.672  20.512  0.00  0.00    +0.000 C 
ENDROOT
BRANCH   1   3
ATOM      3  N   UNL     1       2.261   4.567  18.520  0.00  0.00    +0.000 N 
ATOM      4  C   UNL     1       1.568   3.334  18.188  0.00  0.00    +0.000 C 
ATOM      5  C   UNL     1       3.452   4.800  17.845  0.00  0.00    +0.000 A 
ATOM      6  N   UNL     1       3.670   4.138  16.697  0.00  0.00    +0.000 NA
ATOM      7  C   UNL     1       4.811   4.391  16.036  0.00  0.00    +0.000 A 
ATOM      8  C   UNL     1       5.767   5.280  16.488  0.00  0.00    +0.000 A 
ATOM      9  C   UNL     1       6.964   5.613  15.853  0.00  0.00    +0.000 A 
ATOM     10  N   UNL     1       7.322   5.100  14.606  0.00  0.00    +0.000 N 
ATOM     11  N   UNL     1       7.822   6.486  16.382  0.00  0.00    +0.000 NA
ATOM     12  C   UNL     1       7.487   7.007  17.561  0.00  0.00    +0.000 A 
ATOM     13  N   UNL     1       8.380   7.890  18.132  0.00  0.00    +0.000 N 
ATOM     14  N   UNL     1       6.352   6.763  18.214  0.00  0.00    +0.000 NA
ATOM     15  C   UNL     1       5.488   5.904  17.683  0.00  0.00    +0.000 A 
ATOM     16  N   UNL     1       4.347   5.671  18.338  0.00  0.00    +0.000 NA
ATOM     17  H   UNL     1       7.332   4.087  14.580  0.00  0.00    +0.000 HD
ATOM     18  H   UNL     1       8.242   5.480  14.372  0.00  0.00    +0.000 HD
ATOM     19  H   UNL     1       8.968   8.307  17.424  0.00  0.00    +0.000 HD
ATOM     20  H   UNL     1       7.900   8.513  18.767  0.00  0.00    +0.000 HD
ENDBRANCH   1   3
BRANCH   1  24
ATOM     21  C   UNL     1       1.219   9.538  19.285  0.00  0.00    +0.000 A 
ATOM     22  C   UNL     1       1.203   8.940  20.547  0.00  0.00    +0.000 A 
ATOM     23  C   UNL     1       1.553   7.592  20.699  0.00  0.00    +0.000 A 
ATOM     24  C   UNL     1       1.890   6.800  19.588  0.00  0.00    +0.000 A 
ATOM     25  C   UNL     1       1.978   7.434  18.337  0.00  0.00    +0.000 A 
ATOM     26  C   UNL     1       1.636   8.787  18.185  0.00  0.00    +0.000 A 
BRANCH  21  27
ATOM     27  S   UNL     1       0.601  11.197  19.071  0.00  0.00    +0.000 S 
BRANCH  27  32
ATOM     28  C   UNL     1      -2.665  10.087  16.871  0.00  0.00    +0.000 A 
ATOM     29  C   UNL     1      -3.686  10.766  17.536  0.00  0.00    +0.000 A 
ATOM     30  C   UNL     1      -3.415  11.555  18.658  0.00  0.00    +0.000 A 
ATOM     31  C   UNL     1      -2.101  11.654  19.117  0.00  0.00    +0.000 A 
ATOM     32  C   UNL     1      -1.064  10.974  18.463  0.00  0.00    +0.000 A 
ATOM     33  C   UNL     1      -1.355  10.203  17.335  0.00  0.00    +0.000 A 
BRANCH  28  35
ATOM     34  C   UNL     1      -3.028  10.026  14.523  0.00  0.00    +0.000 C 
ATOM     35  O   UNL     1      -3.061   9.359  15.781  0.00  0.00    +0.000 OA
ENDBRANCH  28  35
BRANCH  30  36
ATOM     36  O   UNL     1      -4.505  12.179  19.199  0.00  0.00    +0.000 OA
ATOM     37  C   UNL     1      -4.365  12.692  20.519  0.00  0.00    +0.000 C 
ENDBRANCH  30  36
ENDBRANCH  27  32
ENDBRANCH  21  27
ENDBRANCH   1  24
TORSDOF 6
ENDMDL
MODEL 4
REMARK VINA RESULT:      -8.1      0.555      2.004
REMARK  Name = 
REMARK  10 active torsions:
REMARK  status: ('A' for Active; 'I' for Inactive)
REMARK    1  A    between atoms: C_1  and  O_2
REMARK    2  A    between atoms: O_2  and  C_3
REMARK    3  A    between atoms: C_5  and  O_6
REMARK    4  A    between atoms: O_6  and  C_7
REMARK    5  A    between atoms: C_9  and  S_10
REMARK    6  A    between atoms: S_10  and  C_11
REMARK    7  A    between atoms: C_14  and  C_15
REMARK    8  A    between atoms: C_15  and  C_16
REMARK    9  A    between atoms: C_15  and  N_17
REMARK   10  A    between atoms: N_17  and  C_18
REMARK                            x       y       z     vdW  Elec       q    Type
REMARK                         _______ _______ _______ _____ _____    ______ ____
ROOT
ATOM      1  C   UNL     1       2.024   6.367  20.079  0.00  0.00    +0.000 C 
ATOM      2  C   UNL     1       1.111   5.380  20.821  0.00  0.00    +0.000 C 
ENDROOT
BRANCH   1   3
ATOM      3  N   UNL     1       2.288   5.925  18.707  0.00  0.00    +0.000 N 
ATOM      4  C   UNL     1       1.218   5.430  17.857  0.00  0.00    +0.000 C 
ATOM      5  C   UNL     1       3.577   5.565  18.340  0.00  0.00    +0.000 A 
ATOM      6  N   UNL     1       3.789   5.168  17.075  0.00  0.00    +0.000 NA
ATOM      7  C   UNL     1       5.044   4.850  16.721  0.00  0.00    +0.000 A 
ATOM      8  C   UNL     1       6.113   4.897  17.595  0.00  0.00    +0.000 A 
ATOM      9  C   UNL     1       7.445   4.604  17.302  0.00  0.00    +0.000 A 
ATOM     10  N   UNL     1       7.875   4.264  16.019  0.00  0.00    +0.000 N 
ATOM     11  N   UNL     1       8.402   4.678  18.227  0.00  0.00    +0.000 NA
ATOM     12  C   UNL     1       8.015   5.025  19.454  0.00  0.00    +0.000 A 
ATOM     13  N   UNL     1       8.993   5.078  20.427  0.00  0.00    +0.000 N 
ATOM     14  N   UNL     1       6.772   5.349  19.805  0.00  0.00    +0.000 NA
ATOM     15  C   UNL     1       5.818   5.289  18.881  0.00  0.00    +0.000 A 
ATOM     16  N   UNL     1       4.574   5.625  19.237  0.00  0.00    +0.000 NA
ATOM     17  H   UNL     1       7.382   3.468  15.631  0.00  0.00    +0.000 HD
ATOM     18  H   UNL     1       8.880   4.081  16.073  0.00  0.00    +0.000 HD
ATOM     19  H   UNL     1       9.902   5.219  20.009  0.00  0.00    +0.000 HD
ATOM     20  H   UNL     1       8.717   5.708  21.167  0.00  0.00    +0.000 HD
ENDBRANCH   1   3
BRANCH   1  24
ATOM     21  C   UNL     1       0.215  10.332  20.115  0.00  0.00    +0.000 A 
ATOM     22  C   UNL     1      -0.055   9.404  21.123  0.00  0.00    +0.000 A 
ATOM     23  C   UNL     1       0.611   8.172  21.154  0.00  0.00    +0.000 A 
ATOM     24  C   UNL     1       1.536   7.823  20.154  0.00  0.00    +0.000 A 
ATOM     25  C   UNL     1       1.857   8.797  19.193  0.00  0.00    +0.000 A 
ATOM     26  C   UNL     1       1.195  10.035  19.168  0.00  0.00    +0.000 A 
BRANCH  21  27
ATOM     27  S   UNL     1      -0.762  11.818  19.978  0.00  0.00    +0.000 S 
BRANCH  27  32
ATOM     28  C   UNL     1      -2.728  10.482  16.648  0.00  0.00    +0.000 A 
ATOM     29  C   UNL     1      -4.030  10.909  16.910  0.00  0.00    +0.000 A 
ATOM     30  C   UNL     1      -4.341  11.590  18.091  0.00  0.00    +0.000 A 
ATOM     31  C   UNL     1      -3.329  11.838  19.018  0.00  0.00    +0.000 A 
ATOM     32  C   UNL     1      -2.016  11.411  18.773  0.00  0.00    +0.000 A 
ATOM     33  C   UNL     1      -1.725  10.745  17.579  0.00  0.00    +0.000 A 
BRANCH  28  35
ATOM     34  C   UNL     1      -3.526  10.096  14.443  0.00  0.00    +0.000 C 
ATOM     35  O   UNL     1      -2.555   9.837  15.453  0.00  0.00    +0.000 OA
ENDBRANCH  28  35
BRANCH  30  36
ATOM     36  O   UNL     1      -5.651  11.966  18.209  0.00  0.00    +0.000 OA
ATOM     37  C   UNL     1      -6.234  11.872  19.504  0.00  0.00    +0.000 C 
ENDBRANCH  30  36
ENDBRANCH  27  32
ENDBRANCH  21  27
ENDBRANCH   1  24
TORSDOF 6
ENDMDL
MODEL 5
REMARK VINA RESULT:      -8.1      5.962      9.938
REMARK  Name = 
REMARK  10 active torsions:
REMARK  status: ('A' for Active; 'I' for Inactive)
REMARK    1  A    between atoms: C_1  and  O_2
REMARK    2  A    between atoms: O_2  and  C_3
REMARK    3  A    between atoms: C_5  and  O_6
REMARK    4  A    between atoms: O_6  and  C_7
REMARK    5  A    between atoms: C_9  and  S_10
REMARK    6  A    between atoms: S_10  and  C_11
REMARK    7  A    between atoms: C_14  and  C_15
REMARK    8  A    between atoms: C_15  and  C_16
REMARK    9  A    between atoms: C_15  and  N_17
REMARK   10  A    between atoms: N_17  and  C_18
REMARK                            x       y       z     vdW  Elec       q    Type
REMARK                         _______ _______ _______ _____ _____    ______ ____
ROOT
ATOM      1  C   UNL     1       0.610  10.463  19.123  0.00  0.00    +0.000 C 
ATOM      2  C   UNL     1      -0.765  10.297  18.461  0.00  0.00    +0.000 C 
ENDROOT
BRANCH   1   3
ATOM      3  N   UNL     1       0.511  11.197  20.387  0.00  0.00    +0.000 N 
ATOM      4  C   UNL     1      -0.381  10.756  21.446  0.00  0.00    +0.000 C 
ATOM      5  C   UNL     1       0.915  12.524  20.441  0.00  0.00    +0.000 A 
ATOM      6  N   UNL     1       0.816  13.169  21.615  0.00  0.00    +0.000 NA
ATOM      7  C   UNL     1       1.237  14.443  21.666  0.00  0.00    +0.000 A 
ATOM      8  C   UNL     1       1.746  15.117  20.572  0.00  0.00    +0.000 A 
ATOM      9  C   UNL     1       2.222  16.428  20.547  0.00  0.00    +0.000 A 
ATOM     10  N   UNL     1       2.287  17.227  21.689  0.00  0.00    +0.000 N 
ATOM     11  N   UNL     1       2.691  16.985  19.430  0.00  0.00    +0.000 NA
ATOM     12  C   UNL     1       2.660  16.230  18.333  0.00  0.00    +0.000 A 
ATOM     13  N   UNL     1       3.116  16.806  17.164  0.00  0.00    +0.000 N 
ATOM     14  N   UNL     1       2.251  14.964  18.282  0.00  0.00    +0.000 NA
ATOM     15  C   UNL     1       1.796  14.401  19.398  0.00  0.00    +0.000 A 
ATOM     16  N   UNL     1       1.396  13.128  19.343  0.00  0.00    +0.000 NA
ATOM     17  H   UNL     1       1.394  17.324  22.159  0.00  0.00    +0.000 HD
ATOM     18  H   UNL     1       2.651  18.139  21.403  0.00  0.00    +0.000 HD
ATOM     19  H   UNL     1       3.752  17.564  17.367  0.00  0.00    +0.000 HD
ATOM     20  H   UNL     1       3.432  16.092  16.522  0.00  0.00    +0.000 HD
ENDBRANCH   1   3
BRANCH   1  24
ATOM     21  C   UNL     1       2.436   6.509  19.263  0.00  0.00    +0.000 A 
ATOM     22  C   UNL     1       2.506   7.297  18.113  0.00  0.00    +0.000 A 
ATOM     23  C   UNL     1       2.004   8.605  18.115  0.00  0.00    +0.000 A 
ATOM     24  C   UNL     1       1.385   9.142  19.258  0.00  0.00    +0.000 A 
ATOM     25  C   UNL     1       1.394   8.366  20.430  0.00  0.00    +0.000 A 
ATOM     26  C   UNL     1       1.905   7.059  20.430  0.00  0.00    +0.000 A 
BRANCH  21  27
ATOM     27  S   UNL     1       2.911   4.791  19.203  0.00  0.00    +0.000 S 
BRANCH  27  32
ATOM     28  C   UNL     1       6.822   5.472  18.211  0.00  0.00    +0.000 A 
ATOM     29  C   UNL     1       6.904   4.837  16.971  0.00  0.00    +0.000 A 
ATOM     30  C   UNL     1       5.795   4.186  16.420  0.00  0.00    +0.000 A 
ATOM     31  C   UNL     1       4.595   4.171  17.130  0.00  0.00    +0.000 A 
ATOM     32  C   UNL     1       4.497   4.799  18.380  0.00  0.00    +0.000 A 
ATOM     33  C   UNL     1       5.613   5.457  18.905  0.00  0.00    +0.000 A 
BRANCH  28  35
ATOM     34  C   UNL     1       8.105   7.469  18.338  0.00  0.00    +0.000 C 
ATOM     35  O   UNL     1       7.973   6.080  18.632  0.00  0.00    +0.000 OA
ENDBRANCH  28  35
BRANCH  30  36
ATOM     36  O   UNL     1       6.011   3.624  15.192  0.00  0.00    +0.000 OA
ATOM     37  C   UNL     1       6.685   4.424  14.228  0.00  0.00    +0.000 C 
ENDBRANCH  30  36
ENDBRANCH  27  32
ENDBRANCH  21  27
ENDBRANCH   1  24
TORSDOF 6
ENDMDL
MODEL 6
REMARK VINA RESULT:      -8.0      6.073      9.981
REMARK  Name = 
REMARK  10 active torsions:
REMARK  status: ('A' for Active; 'I' for Inactive)
REMARK    1  A    between atoms: C_1  and  O_2
REMARK    2  A    between atoms: O_2  and  C_3
REMARK    3  A    between atoms: C_5  and  O_6
REMARK    4  A    between atoms: O_6  and  C_7
REMARK    5  A    between atoms: C_9  and  S_10
REMARK    6  A    between atoms: S_10  and  C_11
REMARK    7  A    between atoms: C_14  and  C_15
REMARK    8  A    between atoms: C_15  and  C_16
REMARK    9  A    between atoms: C_15  and  N_17
REMARK   10  A    between atoms: N_17  and  C_18
REMARK                            x       y       z     vdW  Elec       q    Type
REMARK                         _______ _______ _______ _____ _____    ______ ____
ROOT
ATOM      1  C   UNL     1       0.551  10.687  19.130  0.00  0.00    +0.000 C 
ATOM      2  C   UNL     1      -0.928  10.477  18.780  0.00  0.00    +0.000 C 
ENDROOT
BRANCH   1   3
ATOM      3  N   UNL     1       0.705  11.393  20.405  0.00  0.00    +0.000 N 
ATOM      4  C   UNL     1      -0.021  10.972  21.591  0.00  0.00    +0.000 C 
ATOM      5  C   UNL     1       1.185  12.696  20.412  0.00  0.00    +0.000 A 
ATOM      6  N   UNL     1       1.319  13.315  21.595  0.00  0.00    +0.000 NA
ATOM      7  C   UNL     1       1.812  14.564  21.595  0.00  0.00    +0.000 A 
ATOM      8  C   UNL     1       2.169  15.238  20.443  0.00  0.00    +0.000 A 
ATOM      9  C   UNL     1       2.706  16.523  20.359  0.00  0.00    +0.000 A 
ATOM     10  N   UNL     1       3.004  17.288  21.487  0.00  0.00    +0.000 N 
ATOM     11  N   UNL     1       3.013  17.082  19.188  0.00  0.00    +0.000 NA
ATOM     12  C   UNL     1       2.758  16.358  18.100  0.00  0.00    +0.000 A 
ATOM     13  N   UNL     1       3.044  16.938  16.881  0.00  0.00    +0.000 N 
ATOM     14  N   UNL     1       2.276  15.116  18.099  0.00  0.00    +0.000 NA
ATOM     15  C   UNL     1       1.982  14.550  19.265  0.00  0.00    +0.000 A 
ATOM     16  N   UNL     1       1.509  13.301  19.258  0.00  0.00    +0.000 NA
ATOM     17  H   UNL     1       2.209  17.419  22.101  0.00  0.00    +0.000 HD
ATOM     18  H   UNL     1       3.365  18.187  21.159  0.00  0.00    +0.000 HD
ATOM     19  H   UNL     1       3.746  17.657  16.987  0.00  0.00    +0.000 HD
ATOM     20  H   UNL     1       3.208  16.225  16.183  0.00  0.00    +0.000 HD
ENDBRANCH   1   3
BRANCH   1  24
ATOM     21  C   UNL     1       2.526   6.826  18.699  0.00  0.00    +0.000 A 
ATOM     22  C   UNL     1       2.454   7.725  17.632  0.00  0.00    +0.000 A 
ATOM     23  C   UNL     1       1.907   9.002  17.814  0.00  0.00    +0.000 A 
ATOM     24  C   UNL     1       1.384   9.396  19.058  0.00  0.00    +0.000 A 
ATOM     25  C   UNL     1       1.535   8.512  20.139  0.00  0.00    +0.000 A 
ATOM     26  C   UNL     1       2.091   7.236  19.959  0.00  0.00    +0.000 A 
BRANCH  21  27
ATOM     27  S   UNL     1       3.056   5.146  18.421  0.00  0.00    +0.000 S 
BRANCH  27  32
ATOM     28  C   UNL     1       6.267   4.686  15.928  0.00  0.00    +0.000 A 
ATOM     29  C   UNL     1       7.184   5.569  16.499  0.00  0.00    +0.000 A 
ATOM     30  C   UNL     1       6.852   6.323  17.629  0.00  0.00    +0.000 A 
ATOM     31  C   UNL     1       5.580   6.189  18.184  0.00  0.00    +0.000 A 
ATOM     32  C   UNL     1       4.644   5.310  17.620  0.00  0.00    +0.000 A 
ATOM     33  C   UNL     1       5.002   4.555  16.499  0.00  0.00    +0.000 A 
BRANCH  28  35
ATOM     34  C   UNL     1       5.851   3.957  13.704  0.00  0.00    +0.000 C 
ATOM     35  O   UNL     1       6.720   4.000  14.833  0.00  0.00    +0.000 OA
ENDBRANCH  28  35
BRANCH  30  36
ATOM     36  O   UNL     1       7.852   7.132  18.093  0.00  0.00    +0.000 OA
ATOM     37  C   UNL     1       7.800   8.503  17.715  0.00  0.00    +0.000 C 
ENDBRANCH  30  36
ENDBRANCH  27  32
ENDBRANCH  21  27
ENDBRANCH   1  24
TORSDOF 6
ENDMDL
MODEL 7
REMARK VINA RESULT:      -8.0      2.571      4.838
REMARK  Name = 
REMARK  10 active torsions:
REMARK  status: ('A' for Active; 'I' for Inactive)
REMARK    1  A    between atoms: C_1  and  O_2
REMARK    2  A    between atoms: O_2  and  C_3
REMARK    3  A    between atoms: C_5  and  O_6
REMARK    4  A    between atoms: O_6  and  C_7
REMARK    5  A    between atoms: C_9  and  S_10
REMARK    6  A    between atoms: S_10  and  C_11
REMARK    7  A    between atoms: C_14  and  C_15
REMARK    8  A    between atoms: C_15  and  C_16
REMARK    9  A    between atoms: C_15  and  N_17
REMARK   10  A    between atoms: N_17  and  C_18
REMARK                            x       y       z     vdW  Elec       q    Type
REMARK                         _______ _______ _______ _____ _____    ______ ____
ROOT
ATOM      1  C   UNL     1       1.123  10.209  19.635  0.00  0.00    +0.000 C 
ATOM      2  C   UNL     1       1.640  11.377  20.485  0.00  0.00    +0.000 C 
ENDROOT
BRANCH   1   3
ATOM      3  N   UNL     1       0.880   9.017  20.452  0.00  0.00    +0.000 N 
ATOM      4  C   UNL     1       0.362   9.125  21.806  0.00  0.00    +0.000 C 
ATOM      5  C   UNL     1       1.524   7.828  20.137  0.00  0.00    +0.000 A 
ATOM      6  N   UNL     1       1.279   6.753  20.902  0.00  0.00    +0.000 NA
ATOM      7  C   UNL     1       1.883   5.600  20.572  0.00  0.00    +0.000 A 
ATOM      8  C   UNL     1       2.749   5.477  19.502  0.00  0.00    +0.000 A 
ATOM      9  C   UNL     1       3.397   4.316  19.082  0.00  0.00    +0.000 A 
ATOM     10  N   UNL     1       3.196   3.079  19.694  0.00  0.00    +0.000 N 
ATOM     11  N   UNL     1       4.220   4.309  18.033  0.00  0.00    +0.000 NA
ATOM     12  C   UNL     1       4.407   5.477  17.419  0.00  0.00    +0.000 A 
ATOM     13  N   UNL     1       5.278   5.489  16.349  0.00  0.00    +0.000 N 
ATOM     14  N   UNL     1       3.802   6.620  17.740  0.00  0.00    +0.000 NA
ATOM     15  C   UNL     1       2.971   6.626  18.778  0.00  0.00    +0.000 A 
ATOM     16  N   UNL     1       2.360   7.773  19.089  0.00  0.00    +0.000 NA
ATOM     17  H   UNL     1       3.385   3.091  20.690  0.00  0.00    +0.000 HD
ATOM     18  H   UNL     1       3.794   2.401  19.217  0.00  0.00    +0.000 HD
ATOM     19  H   UNL     1       5.356   4.566  15.945  0.00  0.00    +0.000 HD
ATOM     20  H   UNL     1       5.058   6.254  15.726  0.00  0.00    +0.000 HD
ENDBRANCH   1   3
BRANCH   1  24
ATOM     21  C   UNL     1      -2.567  11.162  17.520  0.00  0.00    +0.000 A 
ATOM     22  C   UNL     1      -1.991  12.068  18.413  0.00  0.00    +0.000 A 
ATOM     23  C   UNL     1      -0.753  11.790  19.008  0.00  0.00    +0.000 A 
ATOM     24  C   UNL     1      -0.080  10.583  18.752  0.00  0.00    +0.000 A 
ATOM     25  C   UNL     1      -0.633   9.719  17.791  0.00  0.00    +0.000 A 
ATOM     26  C   UNL     1      -1.869  10.001  17.189  0.00  0.00    +0.000 A 
BRANCH  21  27
ATOM     27  S   UNL     1      -4.219  11.436  16.907  0.00  0.00    +0.000 S 
BRANCH  27  32
ATOM     28  C   UNL     1      -6.856   9.818  19.584  0.00  0.00    +0.000 A 
ATOM     29  C   UNL     1      -6.953  10.843  20.526  0.00  0.00    +0.000 A 
ATOM     30  C   UNL     1      -6.223  12.027  20.380  0.00  0.00    +0.000 A 
ATOM     31  C   UNL     1      -5.382  12.174  19.277  0.00  0.00    +0.000 A 
ATOM     32  C   UNL     1      -5.268  11.151  18.324  0.00  0.00    +0.000 A 
ATOM     33  C   UNL     1      -6.019   9.983  18.482  0.00  0.00    +0.000 A 
BRANCH  28  35
ATOM     34  C   UNL     1      -7.915   8.440  21.206  0.00  0.00    +0.000 C 
ATOM     35  O   UNL     1      -7.630   8.717  19.838  0.00  0.00    +0.000 OA
ENDBRANCH  28  35
BRANCH  30  36
ATOM     36  O   UNL     1      -6.428  12.953  21.365  0.00  0.00    +0.000 OA
ATOM     37  C   UNL     1      -5.356  13.178  22.272  0.00  0.00    +0.000 C 
ENDBRANCH  30  36
ENDBRANCH  27  32
ENDBRANCH  21  27
ENDBRANCH   1  24
TORSDOF 6
ENDMDL
MODEL 8
REMARK VINA RESULT:      -7.9      5.554      9.907
REMARK  Name = 
REMARK  10 active torsions:
REMARK  status: ('A' for Active; 'I' for Inactive)
REMARK    1  A    between atoms: C_1  and  O_2
REMARK    2  A    between atoms: O_2  and  C_3
REMARK    3  A    between atoms: C_5  and  O_6
REMARK    4  A    between atoms: O_6  and  C_7
REMARK    5  A    between atoms: C_9  and  S_10
REMARK    6  A    between atoms: S_10  and  C_11
REMARK    7  A    between atoms: C_14  and  C_15
REMARK    8  A    between atoms: C_15  and  C_16
REMARK    9  A    between atoms: C_15  and  N_17
REMARK   10  A    between atoms: N_17  and  C_18
REMARK                            x       y       z     vdW  Elec       q    Type
REMARK                         _______ _______ _______ _____ _____    ______ ____
ROOT
ATOM      1  C   UNL     1       1.181  11.531  19.699  0.00  0.00    +0.000 C 
ATOM      2  C   UNL     1       1.543  12.367  18.463  0.00  0.00    +0.000 C 
ENDROOT
BRANCH   1   3
ATOM      3  N   UNL     1      -0.131  11.904  20.233  0.00  0.00    +0.000 N 
ATOM      4  C   UNL     1      -0.364  11.993  21.664  0.00  0.00    +0.000 C 
ATOM      5  C   UNL     1      -1.260  11.757  19.438  0.00  0.00    +0.000 A 
ATOM      6  N   UNL     1      -2.448  12.110  19.954  0.00  0.00    +0.000 NA
ATOM      7  C   UNL     1      -3.531  11.994  19.168  0.00  0.00    +0.000 A 
ATOM      8  C   UNL     1      -3.479  11.516  17.872  0.00  0.00    +0.000 A 
ATOM      9  C   UNL     1      -4.549  11.384  16.987  0.00  0.00    +0.000 A 
ATOM     10  N   UNL     1      -5.845  11.786  17.309  0.00  0.00    +0.000 N 
ATOM     11  N   UNL     1      -4.387  10.906  15.753  0.00  0.00    +0.000 NA
ATOM     12  C   UNL     1      -3.152  10.538  15.417  0.00  0.00    +0.000 A 
ATOM     13  N   UNL     1      -2.976  10.014  14.153  0.00  0.00    +0.000 N 
ATOM     14  N   UNL     1      -2.075  10.661  16.193  0.00  0.00    +0.000 NA
ATOM     15  C   UNL     1      -2.232  11.151  17.419  0.00  0.00    +0.000 A 
ATOM     16  N   UNL     1      -1.147  11.281  18.188  0.00  0.00    +0.000 NA
ATOM     17  H   UNL     1      -6.200  11.350  18.153  0.00  0.00    +0.000 HD
ATOM     18  H   UNL     1      -6.441  11.568  16.507  0.00  0.00    +0.000 HD
ATOM     19  H   UNL     1      -3.711  10.329  13.534  0.00  0.00    +0.000 HD
ATOM     20  H   UNL     1      -2.021  10.145  13.848  0.00  0.00    +0.000 HD
ENDBRANCH   1   3
BRANCH   1  24
ATOM     21  C   UNL     1       2.037   7.279  19.265  0.00  0.00    +0.000 A 
ATOM     22  C   UNL     1       1.622   7.813  20.488  0.00  0.00    +0.000 A 
ATOM     23  C   UNL     1       1.253   9.160  20.587  0.00  0.00    +0.000 A 
ATOM     24  C   UNL     1       1.326  10.016  19.474  0.00  0.00    +0.000 A 
ATOM     25  C   UNL     1       1.669   9.448  18.235  0.00  0.00    +0.000 A 
ATOM     26  C   UNL     1       2.030   8.095  18.134  0.00  0.00    +0.000 A 
BRANCH  21  27
ATOM     27  S   UNL     1       2.675   5.616  19.184  0.00  0.00    +0.000 S 
BRANCH  27  32
ATOM     28  C   UNL     1       5.147   4.795  16.028  0.00  0.00    +0.000 A 
ATOM     29  C   UNL     1       6.047   5.858  16.102  0.00  0.00    +0.000 A 
ATOM     30  C   UNL     1       5.920   6.842  17.088  0.00  0.00    +0.000 A 
ATOM     31  C   UNL     1       4.872   6.755  18.003  0.00  0.00    +0.000 A 
ATOM     32  C   UNL     1       3.955   5.695  17.940  0.00  0.00    +0.000 A 
ATOM     33  C   UNL     1       4.110   4.715  16.956  0.00  0.00    +0.000 A 
BRANCH  28  35
ATOM     34  C   UNL     1       6.435   4.220  14.115  0.00  0.00    +0.000 C 
ATOM     35  O   UNL     1       5.388   3.894  15.025  0.00  0.00    +0.000 OA
ENDBRANCH  28  35
BRANCH  30  36
ATOM     36  O   UNL     1       6.881   7.815  17.055  0.00  0.00    +0.000 OA
ATOM     37  C   UNL     1       7.973   7.672  17.956  0.00  0.00    +0.000 C 
ENDBRANCH  30  36
ENDBRANCH  27  32
ENDBRANCH  21  27
ENDBRANCH   1  24
TORSDOF 6
ENDMDL
MODEL 9
REMARK VINA RESULT:      -7.9      5.706     10.469
REMARK  Name = 
REMARK  10 active torsions:
REMARK  status: ('A' for Active; 'I' for Inactive)
REMARK    1  A    between atoms: C_1  and  O_2
REMARK    2  A    between atoms: O_2  and  C_3
REMARK    3  A    between atoms: C_5  and  O_6
REMARK    4  A    between atoms: O_6  and  C_7
REMARK    5  A    between atoms: C_9  and  S_10
REMARK    6  A    between atoms: S_10  and  C_11
REMARK    7  A    between atoms: C_14  and  C_15
REMARK    8  A    between atoms: C_15  and  C_16
REMARK    9  A    between atoms: C_15  and  N_17
REMARK   10  A    between atoms: N_17  and  C_18
REMARK                            x       y       z     vdW  Elec       q    Type
REMARK                         _______ _______ _______ _____ _____    ______ ____
ROOT
ATOM      1  C   UNL     1       0.734  10.953  19.463  0.00  0.00    +0.000 C 
ATOM      2  C   UNL     1       1.606  11.911  18.639  0.00  0.00    +0.000 C 
ENDROOT
BRANCH   1   3
ATOM      3  N   UNL     1      -0.690  11.151  19.184  0.00  0.00    +0.000 N 
ATOM      4  C   UNL     1      -1.230  10.956  17.849  0.00  0.00    +0.000 C 
ATOM      5  C   UNL     1      -1.455  11.925  20.046  0.00  0.00    +0.000 A 
ATOM      6  N   UNL     1      -2.758  12.086  19.766  0.00  0.00    +0.000 NA
ATOM      7  C   UNL     1      -3.497  12.811  20.620  0.00  0.00    +0.000 A 
ATOM      8  C   UNL     1      -2.978  13.407  21.754  0.00  0.00    +0.000 A 
ATOM      9  C   UNL     1      -3.679  14.156  22.699  0.00  0.00    +0.000 A 
ATOM     10  N   UNL     1      -5.058  14.353  22.630  0.00  0.00    +0.000 N 
ATOM     11  N   UNL     1      -3.076  14.692  23.761  0.00  0.00    +0.000 NA
ATOM     12  C   UNL     1      -1.762  14.494  23.858  0.00  0.00    +0.000 A 
ATOM     13  N   UNL     1      -1.121  15.069  24.937  0.00  0.00    +0.000 N 
ATOM     14  N   UNL     1      -1.029  13.768  23.016  0.00  0.00    +0.000 NA
ATOM     15  C   UNL     1      -1.631  13.220  21.964  0.00  0.00    +0.000 A 
ATOM     16  N   UNL     1      -0.892  12.485  21.128  0.00  0.00    +0.000 NA
ATOM     17  H   UNL     1      -5.358  14.765  21.754  0.00  0.00    +0.000 HD
ATOM     18  H   UNL     1      -5.322  14.945  23.421  0.00  0.00    +0.000 HD
ATOM     19  H   UNL     1      -1.773  15.231  25.692  0.00  0.00    +0.000 HD
ATOM     20  H   UNL     1      -0.274  14.561  25.153  0.00  0.00    +0.000 HD
ENDBRANCH   1   3
BRANCH   1  24
ATOM     21  C   UNL     1       2.372   6.916  19.366  0.00  0.00    +0.000 A 
ATOM     22  C   UNL     1       1.767   7.423  20.518  0.00  0.00    +0.000 A 
ATOM     23  C   UNL     1       1.155   8.683  20.503  0.00  0.00    +0.000 A 
ATOM     24  C   UNL     1       1.167   9.482  19.347  0.00  0.00    +0.000 A 
ATOM     25  C   UNL     1       1.709   8.926  18.175  0.00  0.00    +0.000 A 
ATOM     26  C   UNL     1       2.314   7.660  18.188  0.00  0.00    +0.000 A 
BRANCH  21  27
ATOM     27  S   UNL     1       3.303   5.396  19.438  0.00  0.00    +0.000 S 
BRANCH  27  32
ATOM     28  C   UNL     1       5.414   4.627  16.019  0.00  0.00    +0.000 A 
ATOM     29  C   UNL     1       6.291   5.711  15.989  0.00  0.00    +0.000 A 
ATOM     30  C   UNL     1       6.255   6.694  16.984  0.00  0.00    +0.000 A 
ATOM     31  C   UNL     1       5.322   6.583  18.014  0.00  0.00    +0.000 A 
ATOM     32  C   UNL     1       4.429   5.503  18.056  0.00  0.00    +0.000 A 
ATOM     33  C   UNL     1       4.493   4.524  17.060  0.00  0.00    +0.000 A 
BRANCH  28  35
ATOM     34  C   UNL     1       6.397   4.129  13.913  0.00  0.00    +0.000 C 
ATOM     35  O   UNL     1       5.559   3.730  14.994  0.00  0.00    +0.000 OA
ENDBRANCH  28  35
BRANCH  30  36
ATOM     36  O   UNL     1       7.183   7.688  16.841  0.00  0.00    +0.000 OA
ATOM     37  C   UNL     1       8.020   7.954  17.961  0.00  0.00    +0.000 C 
ENDBRANCH  30  36
ENDBRANCH  27  32
ENDBRANCH  21  27
ENDBRANCH   1  24
TORSDOF 6
ENDMDL
