MODEL 1
REMARK VINA RESULT:      -8.3      0.000      0.000
REMARK  Name = 
REMARK  6 active torsions:
REMARK  status: ('A' for Active; 'I' for Inactive)
REMARK    1  A    between atoms: C_1  and  C_2
REMARK    2  A    between atoms: C_6  and  C_7
REMARK    3  A    between atoms: N_12  and  C_13
REMARK    4  A    between atoms: C_13  and  C_14
REMARK    5  A    between atoms: C_18  and  N_19
REMARK    6  A    between atoms: C_20  and  C_22
REMARK                            x       y       z     vdW  Elec       q    Type
REMARK                         _______ _______ _______ _____ _____    ______ ____
ROOT
ATOM      1  C   UNL     1       3.997   5.410  19.724  0.00  0.00    +0.000 C 
ENDROOT
BRANCH   1   7
ATOM      2  C   UNL     1       0.379   8.835  20.792  0.00  0.00    +0.000 C 
ATOM      3  O   UNL     1      -0.232   8.683  21.853  0.00  0.00    +0.000 OA
ATOM      4  N   UNL     1       1.231   7.841  20.293  0.00  0.00    +0.000 N 
ATOM      5  C   UNL     1       1.325   6.586  21.051  0.00  0.00    +0.000 C 
ATOM      6  C   UNL     1       1.566   5.367  20.133  0.00  0.00    +0.000 C 
ATOM      7  N   UNL     1       2.652   5.502  19.132  0.00  0.00    +0.000 NA
ATOM      8  C   UNL     1       2.486   6.798  18.428  0.00  0.00    +0.000 C 
ATOM      9  C   UNL     1       2.341   8.027  19.354  0.00  0.00    +0.000 C 
BRANCH   2  15
ATOM     10  C   UNL     1      -2.112  11.330  17.232  0.00  0.00    +0.000 C 
ATOM     11  C   UNL     1      -1.139  11.343  18.374  0.00  0.00    +0.000 A 
ATOM     12  C   UNL     1      -0.357  12.475  18.619  0.00  0.00    +0.000 A 
ATOM     13  C   UNL     1       0.711  12.408  19.509  0.00  0.00    +0.000 A 
ATOM     14  C   UNL     1       1.000  11.214  20.169  0.00  0.00    +0.000 A 
ATOM     15  C   UNL     1       0.144  10.115  20.055  0.00  0.00    +0.000 A 
ATOM     16  C   UNL     1      -0.902  10.177  19.123  0.00  0.00    +0.000 A 
ENDBRANCH   2  15
ENDBRANCH   1   7
BRANCH   1  17
ATOM     17  C   UNL     1       5.133   5.040  18.785  0.00  0.00    +0.000 A 
ATOM     18  C   UNL     1       6.441   5.324  19.211  0.00  0.00    +0.000 A 
ATOM     19  C   UNL     1       7.524   5.118  18.363  0.00  0.00    +0.000 A 
ATOM     20  C   UNL     1       7.317   4.640  17.070  0.00  0.00    +0.000 A 
ATOM     21  C   UNL     1       6.031   4.361  16.601  0.00  0.00    +0.000 A 
ATOM     22  C   UNL     1       4.941   4.556  17.473  0.00  0.00    +0.000 A 
BRANCH  21  23
ATOM     23  N   UNL     1       5.779   3.889  15.288  0.00  0.00    +0.000 N 
ATOM     24  C   UNL     1       6.377   4.334  14.113  0.00  0.00    +0.000 C 
ATOM     25  O   UNL     1       7.168   5.271  14.042  0.00  0.00    +0.000 OA
ATOM     26  H   UNL     1       5.063   3.180  15.174  0.00  0.00    +0.000 HD
BRANCH  24  27
ATOM     27  C   UNL     1       5.985   3.611  12.913  0.00  0.00    +0.000 A 
ATOM     28  C   UNL     1       6.741   2.778  12.102  0.00  0.00    +0.000 A 
ATOM     29  C   UNL     1       5.870   2.258  11.119  0.00  0.00    +0.000 A 
ATOM     30  C   UNL     1       4.641   2.821  11.370  0.00  0.00    +0.000 A 
ATOM     31  O   UNL     1       4.699   3.655  12.445  0.00  0.00    +0.000 OA
ENDBRANCH  24  27
ENDBRANCH  21  23
ENDBRANCH   1  17
TORSDOF 5
ENDMDL
MODEL 2
REMARK VINA RESULT:      -8.1      0.794      1.455
REMARK  Name = 
REMARK  6 active torsions:
REMARK  status: ('A' for Active; 'I' for Inactive)
REMARK    1  A    between atoms: C_1  and  C_2
REMARK    2  A    between atoms: C_6  and  C_7
REMARK    3  A    between atoms: N_12  and  C_13
REMARK    4  A    between atoms: C_13  and  C_14
REMARK    5  A    between atoms: C_18  and  N_19
REMARK    6  A    between atoms: C_20  and  C_22
REMARK                            x       y       z     vdW  Elec       q    Type
REMARK                         _______ _______ _______ _____ _____    ______ ____
ROOT
ATOM      1  C   UNL     1       4.275   6.269  19.322  0.00  0.00    +0.000 C 
ENDROOT
BRANCH   1   7
ATOM      2  C   UNL     1       0.279   9.231  20.424  0.00  0.00    +0.000 C 
ATOM      3  O   UNL     1      -0.149   9.176  21.579  0.00  0.00    +0.000 OA
ATOM      4  N   UNL     1       1.220   8.308  19.951  0.00  0.00    +0.000 N 
ATOM      5  C   UNL     1       1.636   7.235  20.866  0.00  0.00    +0.000 C 
ATOM      6  C   UNL     1       1.967   5.926  20.117  0.00  0.00    +0.000 C 
ATOM      7  N   UNL     1       2.870   6.047  18.946  0.00  0.00    +0.000 NA
ATOM      8  C   UNL     1       2.383   7.158  18.089  0.00  0.00    +0.000 C 
ATOM      9  C   UNL     1       2.145   8.493  18.829  0.00  0.00    +0.000 C 
BRANCH   2  15
ATOM     10  C   UNL     1       0.044  14.097  19.252  0.00  0.00    +0.000 C 
ATOM     11  C   UNL     1      -0.315  12.676  18.932  0.00  0.00    +0.000 A 
ATOM     12  C   UNL     1      -1.273  12.395  17.954  0.00  0.00    +0.000 A 
ATOM     13  C   UNL     1      -1.785  11.107  17.827  0.00  0.00    +0.000 A 
ATOM     14  C   UNL     1      -1.337  10.088  18.668  0.00  0.00    +0.000 A 
ATOM     15  C   UNL     1      -0.276  10.309  19.548  0.00  0.00    +0.000 A 
ATOM     16  C   UNL     1       0.203  11.619  19.701  0.00  0.00    +0.000 A 
ENDBRANCH   2  15
ENDBRANCH   1   7
BRANCH   1  17
ATOM     17  C   UNL     1       5.326   5.545  18.495  0.00  0.00    +0.000 A 
ATOM     18  C   UNL     1       6.647   5.562  18.972  0.00  0.00    +0.000 A 
ATOM     19  C   UNL     1       7.681   5.020  18.217  0.00  0.00    +0.000 A 
ATOM     20  C   UNL     1       7.416   4.464  16.966  0.00  0.00    +0.000 A 
ATOM     21  C   UNL     1       6.119   4.442  16.448  0.00  0.00    +0.000 A 
ATOM     22  C   UNL     1       5.074   4.979  17.227  0.00  0.00    +0.000 A 
BRANCH  21  23
ATOM     23  N   UNL     1       5.811   3.900  15.174  0.00  0.00    +0.000 N 
ATOM     24  C   UNL     1       6.383   4.258  13.956  0.00  0.00    +0.000 C 
ATOM     25  O   UNL     1       7.196   5.166  13.805  0.00  0.00    +0.000 OA
ATOM     26  H   UNL     1       5.073   3.208  15.125  0.00  0.00    +0.000 HD
BRANCH  24  27
ATOM     27  C   UNL     1       5.932   3.476  12.815  0.00  0.00    +0.000 A 
ATOM     28  C   UNL     1       4.700   3.479  12.179  0.00  0.00    +0.000 A 
ATOM     29  C   UNL     1       4.805   2.605  11.075  0.00  0.00    +0.000 A 
ATOM     30  C   UNL     1       6.082   2.099  11.114  0.00  0.00    +0.000 A 
ATOM     31  O   UNL     1       6.773   2.607  12.173  0.00  0.00    +0.000 OA
ENDBRANCH  24  27
ENDBRANCH  21  23
ENDBRANCH   1  17
TORSDOF 5
ENDMDL
MODEL 3
REMARK VINA RESULT:      -8.1      2.948      4.270
REMARK  Name = 
REMARK  6 active torsions:
REMARK  status: ('A' for Active; 'I' for Inactive)
REMARK    1  A    between atoms: C_1  and  C_2
REMARK    2  A    between atoms: C_6  and  C_7
REMARK    3  A    between atoms: N_12  and  C_13
REMARK    4  A    between atoms: C_13  and  C_14
REMARK    5  A    between atoms: C_18  and  N_19
REMARK    6  A    between atoms: C_20  and  C_22
REMARK                            x       y       z     vdW  Elec       q    Type
REMARK                         _______ _______ _______ _____ _____    ______ ____
ROOT
ATOM      1  C   UNL     1       0.986   6.937  20.916  0.00  0.00    +0.000 C 
ENDROOT
BRANCH   1   7
ATOM      2  C   UNL     1      -1.135  11.565  20.721  0.00  0.00    +0.000 C 
ATOM      3  O   UNL     1      -1.593  11.919  19.631  0.00  0.00    +0.000 OA
ATOM      4  N   UNL     1      -0.338  10.419  20.838  0.00  0.00    +0.000 N 
ATOM      5  C   UNL     1      -0.020   9.685  19.605  0.00  0.00    +0.000 C 
ATOM      6  C   UNL     1       1.375   9.024  19.663  0.00  0.00    +0.000 C 
ATOM      7  N   UNL     1       1.680   8.235  20.882  0.00  0.00    +0.000 NA
ATOM      8  C   UNL     1       1.316   9.045  22.071  0.00  0.00    +0.000 C 
ATOM      9  C   UNL     1      -0.117   9.624  22.050  0.00  0.00    +0.000 C 
BRANCH   2  15
ATOM     10  C   UNL     1      -4.316  12.841  24.375  0.00  0.00    +0.000 C 
ATOM     11  C   UNL     1      -2.970  12.987  23.729  0.00  0.00    +0.000 A 
ATOM     12  C   UNL     1      -2.113  14.021  24.116  0.00  0.00    +0.000 A 
ATOM     13  C   UNL     1      -0.981  14.310  23.360  0.00  0.00    +0.000 A 
ATOM     14  C   UNL     1      -0.690  13.562  22.219  0.00  0.00    +0.000 A 
ATOM     15  C   UNL     1      -1.447  12.433  21.899  0.00  0.00    +0.000 A 
ATOM     16  C   UNL     1      -2.610  12.176  22.640  0.00  0.00    +0.000 A 
ENDBRANCH   2  15
ENDBRANCH   1   7
BRANCH   1  17
ATOM     17  C   UNL     1       1.765   5.733  20.411  0.00  0.00    +0.000 A 
ATOM     18  C   UNL     1       1.829   4.607  21.248  0.00  0.00    +0.000 A 
ATOM     19  C   UNL     1       2.614   3.511  20.906  0.00  0.00    +0.000 A 
ATOM     20  C   UNL     1       3.360   3.528  19.729  0.00  0.00    +0.000 A 
ATOM     21  C   UNL     1       3.338   4.634  18.876  0.00  0.00    +0.000 A 
ATOM     22  C   UNL     1       2.527   5.733  19.222  0.00  0.00    +0.000 A 
BRANCH  21  23
ATOM     23  N   UNL     1       4.094   4.694  17.678  0.00  0.00    +0.000 N 
ATOM     24  C   UNL     1       5.468   4.512  17.550  0.00  0.00    +0.000 C 
ATOM     25  O   UNL     1       6.242   4.346  18.489  0.00  0.00    +0.000 OA
ATOM     26  H   UNL     1       3.602   4.932  16.825  0.00  0.00    +0.000 HD
BRANCH  24  27
ATOM     27  C   UNL     1       5.966   4.549  16.184  0.00  0.00    +0.000 A 
ATOM     28  C   UNL     1       7.138   5.102  15.690  0.00  0.00    +0.000 A 
ATOM     29  C   UNL     1       7.191   4.794  14.313  0.00  0.00    +0.000 A 
ATOM     30  C   UNL     1       6.040   4.094  14.039  0.00  0.00    +0.000 A 
ATOM     31  O   UNL     1       5.280   3.951  15.160  0.00  0.00    +0.000 OA
ENDBRANCH  24  27
ENDBRANCH  21  23
ENDBRANCH   1  17
TORSDOF 5
ENDMDL
MODEL 4
REMARK VINA RESULT:      -7.7      2.942      4.946
REMARK  Name = 
REMARK  6 active torsions:
REMARK  status: ('A' for Active; 'I' for Inactive)
REMARK    1  A    between atoms: C_1  and  C_2
REMARK    2  A    between atoms: C_6  and  C_7
REMARK    3  A    between atoms: N_12  and  C_13
REMARK    4  A    between atoms: C_13  and  C_14
REMARK    5  A    between atoms: C_18  and  N_19
REMARK    6  A    between atoms: C_20  and  C_22
REMARK                            x       y       z     vdW  Elec       q    Type
REMARK                         _______ _______ _______ _____ _____    ______ ____
ROOT
ATOM      1  C   UNL     1       1.380   9.318  19.917  0.00  0.00    +0.000 C 
ENDROOT
BRANCH   1   7
ATOM      2  C   UNL     1      -0.501  14.052  19.813  0.00  0.00    +0.000 C 
ATOM      3  O   UNL     1      -1.604  14.222  20.339  0.00  0.00    +0.000 OA
ATOM      4  N   UNL     1       0.008  12.767  19.587  0.00  0.00    +0.000 N 
ATOM      5  C   UNL     1      -0.846  11.626  19.947  0.00  0.00    +0.000 C 
ATOM      6  C   UNL     1      -0.631  10.418  19.009  0.00  0.00    +0.000 C 
ATOM      7  N   UNL     1       0.776  10.013  18.769  0.00  0.00    +0.000 NA
ATOM      8  C   UNL     1       1.563  11.224  18.427  0.00  0.00    +0.000 C 
ATOM      9  C   UNL     1       1.417  12.397  19.422  0.00  0.00    +0.000 C 
BRANCH   2  15
ATOM     10  C   UNL     1      -0.269  18.183  16.988  0.00  0.00    +0.000 C 
ATOM     11  C   UNL     1       0.309  17.337  18.084  0.00  0.00    +0.000 A 
ATOM     12  C   UNL     1       1.589  17.604  18.578  0.00  0.00    +0.000 A 
ATOM     13  C   UNL     1       2.223  16.685  19.408  0.00  0.00    +0.000 A 
ATOM     14  C   UNL     1       1.581  15.499  19.762  0.00  0.00    +0.000 A 
ATOM     15  C   UNL     1       0.248  15.280  19.404  0.00  0.00    +0.000 A 
ATOM     16  C   UNL     1      -0.367  16.189  18.531  0.00  0.00    +0.000 A 
ENDBRANCH   2  15
ENDBRANCH   1   7
BRANCH   1  17
ATOM     17  C   UNL     1       1.790   7.871  19.702  0.00  0.00    +0.000 A 
ATOM     18  C   UNL     1       1.439   6.944  20.697  0.00  0.00    +0.000 A 
ATOM     19  C   UNL     1       1.875   5.626  20.626  0.00  0.00    +0.000 A 
ATOM     20  C   UNL     1       2.682   5.214  19.567  0.00  0.00    +0.000 A 
ATOM     21  C   UNL     1       3.069   6.107  18.564  0.00  0.00    +0.000 A 
ATOM     22  C   UNL     1       2.608   7.437  18.636  0.00  0.00    +0.000 A 
BRANCH  21  23
ATOM     23  N   UNL     1       3.901   5.730  17.480  0.00  0.00    +0.000 N 
ATOM     24  C   UNL     1       5.242   5.365  17.546  0.00  0.00    +0.000 C 
ATOM     25  O   UNL     1       5.925   5.394  18.567  0.00  0.00    +0.000 OA
ATOM     26  H   UNL     1       3.501   5.762  16.549  0.00  0.00    +0.000 HD
BRANCH  24  27
ATOM     27  C   UNL     1       5.826   4.946  16.282  0.00  0.00    +0.000 A 
ATOM     28  C   UNL     1       5.710   3.734  15.618  0.00  0.00    +0.000 A 
ATOM     29  C   UNL     1       6.398   3.868  14.392  0.00  0.00    +0.000 A 
ATOM     30  C   UNL     1       6.916   5.141  14.388  0.00  0.00    +0.000 A 
ATOM     31  O   UNL     1       6.591   5.801  15.534  0.00  0.00    +0.000 OA
ENDBRANCH  24  27
ENDBRANCH  21  23
ENDBRANCH   1  17
TORSDOF 5
ENDMDL
MODEL 5
REMARK VINA RESULT:      -7.6      1.300      1.476
REMARK  Name = 
REMARK  6 active torsions:
REMARK  status: ('A' for Active; 'I' for Inactive)
REMARK    1  A    between atoms: C_1  and  C_2
REMARK    2  A    between atoms: C_6  and  C_7
REMARK    3  A    between atoms: N_12  and  C_13
REMARK    4  A    between atoms: C_13  and  C_14
REMARK    5  A    between atoms: C_18  and  N_19
REMARK    6  A    between atoms: C_20  and  C_22
REMARK                            x       y       z     vdW  Elec       q    Type
REMARK                         _______ _______ _______ _____ _____    ______ ____
ROOT
ATOM      1  C   UNL     1       4.271   7.351  17.882  0.00  0.00    +0.000 C 
ENDROOT
BRANCH   1   7
ATOM      2  C   UNL     1       0.463   9.225  20.701  0.00  0.00    +0.000 C 
ATOM      3  O   UNL     1       0.401   8.844  21.873  0.00  0.00    +0.000 OA
ATOM      4  N   UNL     1       1.323   8.613  19.781  0.00  0.00    +0.000 N 
ATOM      5  C   UNL     1       2.109   7.462  20.248  0.00  0.00    +0.000 C 
ATOM      6  C   UNL     1       2.354   6.429  19.127  0.00  0.00    +0.000 C 
ATOM      7  N   UNL     1       2.852   6.962  17.836  0.00  0.00    +0.000 NA
ATOM      8  C   UNL     1       2.011   8.124  17.450  0.00  0.00    +0.000 C 
ATOM      9  C   UNL     1       1.850   9.202  18.546  0.00  0.00    +0.000 C 
BRANCH   2  15
ATOM     10  C   UNL     1      -2.552  11.290  17.273  0.00  0.00    +0.000 C 
ATOM     11  C   UNL     1      -1.980  11.300  18.660  0.00  0.00    +0.000 A 
ATOM     12  C   UNL     1      -2.159  12.413  19.487  0.00  0.00    +0.000 A 
ATOM     13  C   UNL     1      -1.431  12.531  20.667  0.00  0.00    +0.000 A 
ATOM     14  C   UNL     1      -0.529  11.535  21.037  0.00  0.00    +0.000 A 
ATOM     15  C   UNL     1      -0.445  10.347  20.307  0.00  0.00    +0.000 A 
ATOM     16  C   UNL     1      -1.148  10.255  19.096  0.00  0.00    +0.000 A 
ENDBRANCH   2  15
ENDBRANCH   1   7
BRANCH   1  17
ATOM     17  C   UNL     1       5.284   6.284  17.502  0.00  0.00    +0.000 A 
ATOM     18  C   UNL     1       6.432   6.168  18.303  0.00  0.00    +0.000 A 
ATOM     19  C   UNL     1       7.456   5.293  17.955  0.00  0.00    +0.000 A 
ATOM     20  C   UNL     1       7.357   4.531  16.792  0.00  0.00    +0.000 A 
ATOM     21  C   UNL     1       6.240   4.628  15.958  0.00  0.00    +0.000 A 
ATOM     22  C   UNL     1       5.200   5.504  16.328  0.00  0.00    +0.000 A 
BRANCH  21  23
ATOM     23  N   UNL     1       6.110   3.881  14.760  0.00  0.00    +0.000 N 
ATOM     24  C   UNL     1       6.670   4.186  13.523  0.00  0.00    +0.000 C 
ATOM     25  O   UNL     1       7.305   5.207  13.275  0.00  0.00    +0.000 OA
ATOM     26  H   UNL     1       5.519   3.058  14.783  0.00  0.00    +0.000 HD
BRANCH  24  27
ATOM     27  C   UNL     1       6.437   3.195  12.484  0.00  0.00    +0.000 A 
ATOM     28  C   UNL     1       5.239   2.695  11.998  0.00  0.00    +0.000 A 
ATOM     29  C   UNL     1       5.557   1.821  10.936  0.00  0.00    +0.000 A 
ATOM     30  C   UNL     1       6.928   1.816  10.849  0.00  0.00    +0.000 A 
ATOM     31  O   UNL     1       7.477   2.633  11.792  0.00  0.00    +0.000 OA
ENDBRANCH  24  27
ENDBRANCH  21  23
ENDBRANCH   1  17
TORSDOF 5
ENDMDL
MODEL 6
REMARK VINA RESULT:      -7.6      3.048      4.750
REMARK  Name = 
REMARK  6 active torsions:
REMARK  status: ('A' for Active; 'I' for Inactive)
REMARK    1  A    between atoms: C_1  and  C_2
REMARK    2  A    between atoms: C_6  and  C_7
REMARK    3  A    between atoms: N_12  and  C_13
REMARK    4  A    between atoms: C_13  and  C_14
REMARK    5  A    between atoms: C_18  and  N_19
REMARK    6  A    between atoms: C_20  and  C_22
REMARK                            x       y       z     vdW  Elec       q    Type
REMARK                         _______ _______ _______ _____ _____    ______ ____
ROOT
ATOM      1  C   UNL     1       1.338   9.392  19.061  0.00  0.00    +0.000 C 
ENDROOT
BRANCH   1   7
ATOM      2  C   UNL     1      -1.944  13.129  20.164  0.00  0.00    +0.000 C 
ATOM      3  O   UNL     1      -1.621  14.270  19.823  0.00  0.00    +0.000 OA
ATOM      4  N   UNL     1      -1.032  12.068  20.114  0.00  0.00    +0.000 N 
ATOM      5  C   UNL     1       0.343  12.374  19.694  0.00  0.00    +0.000 C 
ATOM      6  C   UNL     1       1.381  11.467  20.390  0.00  0.00    +0.000 C 
ATOM      7  N   UNL     1       1.100  10.011  20.375  0.00  0.00    +0.000 NA
ATOM      8  C   UNL     1      -0.307   9.798  20.798  0.00  0.00    +0.000 C 
ATOM      9  C   UNL     1      -1.351  10.639  20.029  0.00  0.00    +0.000 C 
BRANCH   2  15
ATOM     10  C   UNL     1      -6.783  12.343  19.130  0.00  0.00    +0.000 C 
ATOM     11  C   UNL     1      -5.687  12.474  20.146  0.00  0.00    +0.000 A 
ATOM     12  C   UNL     1      -5.997  12.591  21.504  0.00  0.00    +0.000 A 
ATOM     13  C   UNL     1      -5.013  12.958  22.417  0.00  0.00    +0.000 A 
ATOM     14  C   UNL     1      -3.710  13.200  21.983  0.00  0.00    +0.000 A 
ATOM     15  C   UNL     1      -3.343  12.944  20.660  0.00  0.00    +0.000 A 
ATOM     16  C   UNL     1      -4.350  12.618  19.739  0.00  0.00    +0.000 A 
ENDBRANCH   2  15
ENDBRANCH   1   7
BRANCH   1  17
ATOM     17  C   UNL     1       1.957   8.004  19.062  0.00  0.00    +0.000 A 
ATOM     18  C   UNL     1       1.875   7.261  20.251  0.00  0.00    +0.000 A 
ATOM     19  C   UNL     1       2.513   6.030  20.365  0.00  0.00    +0.000 A 
ATOM     20  C   UNL     1       3.257   5.528  19.298  0.00  0.00    +0.000 A 
ATOM     21  C   UNL     1       3.378   6.242  18.104  0.00  0.00    +0.000 A 
ATOM     22  C   UNL     1       2.713   7.480  17.991  0.00  0.00    +0.000 A 
BRANCH  21  23
ATOM     23  N   UNL     1       4.137   5.772  17.002  0.00  0.00    +0.000 N 
ATOM     24  C   UNL     1       5.477   6.039  16.739  0.00  0.00    +0.000 C 
ATOM     25  O   UNL     1       6.181   6.799  17.399  0.00  0.00    +0.000 OA
ATOM     26  H   UNL     1       3.656   5.214  16.306  0.00  0.00    +0.000 HD
BRANCH  24  27
ATOM     27  C   UNL     1       6.021   5.356  15.576  0.00  0.00    +0.000 A 
ATOM     28  C   UNL     1       5.437   4.391  14.770  0.00  0.00    +0.000 A 
ATOM     29  C   UNL     1       6.349   4.118  13.727  0.00  0.00    +0.000 A 
ATOM     30  C   UNL     1       7.446   4.909  13.969  0.00  0.00    +0.000 A 
ATOM     31  O   UNL     1       7.268   5.654  15.095  0.00  0.00    +0.000 OA
ENDBRANCH  24  27
ENDBRANCH  21  23
ENDBRANCH   1  17
TORSDOF 5
ENDMDL
MODEL 7
REMARK VINA RESULT:      -7.6      2.353      3.465
REMARK  Name = 
REMARK  6 active torsions:
REMARK  status: ('A' for Active; 'I' for Inactive)
REMARK    1  A    between atoms: C_1  and  C_2
REMARK    2  A    between atoms: C_6  and  C_7
REMARK    3  A    between atoms: N_12  and  C_13
REMARK    4  A    between atoms: C_13  and  C_14
REMARK    5  A    between atoms: C_18  and  N_19
REMARK    6  A    between atoms: C_20  and  C_22
REMARK                            x       y       z     vdW  Elec       q    Type
REMARK                         _______ _______ _______ _____ _____    ______ ____
ROOT
ATOM      1  C   UNL     1       1.487   6.410  19.698  0.00  0.00    +0.000 C 
ENDROOT
BRANCH   1   7
ATOM      2  C   UNL     1      -0.177  11.225  19.644  0.00  0.00    +0.000 C 
ATOM      3  O   UNL     1      -0.523  11.680  18.550  0.00  0.00    +0.000 OA
ATOM      4  N   UNL     1       0.499  10.003  19.743  0.00  0.00    +0.000 N 
ATOM      5  C   UNL     1       0.833   9.308  18.492  0.00  0.00    +0.000 C 
ATOM      6  C   UNL     1       2.154   8.514  18.600  0.00  0.00    +0.000 C 
ATOM      7  N   UNL     1       2.298   7.635  19.786  0.00  0.00    +0.000 NA
ATOM      8  C   UNL     1       1.929   8.412  20.996  0.00  0.00    +0.000 C 
ATOM      9  C   UNL     1       0.561   9.127  20.917  0.00  0.00    +0.000 C 
BRANCH   2  15
ATOM     10  C   UNL     1      -3.216  12.186  23.510  0.00  0.00    +0.000 C 
ATOM     11  C   UNL     1      -1.934  12.458  22.780  0.00  0.00    +0.000 A 
ATOM     12  C   UNL     1      -1.150  13.564  23.122  0.00  0.00    +0.000 A 
ATOM     13  C   UNL     1      -0.102  13.959  22.297  0.00  0.00    +0.000 A 
ATOM     14  C   UNL     1       0.181  13.247  21.132  0.00  0.00    +0.000 A 
ATOM     15  C   UNL     1      -0.489  12.055  20.849  0.00  0.00    +0.000 A 
ATOM     16  C   UNL     1      -1.573  11.688  21.660  0.00  0.00    +0.000 A 
ENDBRANCH   2  15
ENDBRANCH   1   7
BRANCH   1  17
ATOM     17  C   UNL     1       2.168   5.181  19.119  0.00  0.00    +0.000 A 
ATOM     18  C   UNL     1       2.111   3.996  19.871  0.00  0.00    +0.000 A 
ATOM     19  C   UNL     1       2.803   2.861  19.463  0.00  0.00    +0.000 A 
ATOM     20  C   UNL     1       3.576   2.895  18.304  0.00  0.00    +0.000 A 
ATOM     21  C   UNL     1       3.674   4.058  17.535  0.00  0.00    +0.000 A 
ATOM     22  C   UNL     1       2.955   5.197  17.947  0.00  0.00    +0.000 A 
BRANCH  21  23
ATOM     23  N   UNL     1       4.462   4.136  16.359  0.00  0.00    +0.000 N 
ATOM     24  C   UNL     1       5.685   4.785  16.216  0.00  0.00    +0.000 C 
ATOM     25  O   UNL     1       6.224   5.460  17.089  0.00  0.00    +0.000 OA
ATOM     26  H   UNL     1       4.090   3.712  15.517  0.00  0.00    +0.000 HD
BRANCH  24  27
ATOM     27  C   UNL     1       6.311   4.633  14.913  0.00  0.00    +0.000 A 
ATOM     28  C   UNL     1       5.915   3.861  13.831  0.00  0.00    +0.000 A 
ATOM     29  C   UNL     1       6.816   4.132  12.779  0.00  0.00    +0.000 A 
ATOM     30  C   UNL     1       7.725   5.032  13.283  0.00  0.00    +0.000 A 
ATOM     31  O   UNL     1       7.441   5.333  14.581  0.00  0.00    +0.000 OA
ENDBRANCH  24  27
ENDBRANCH  21  23
ENDBRANCH   1  17
TORSDOF 5
ENDMDL
MODEL 8
REMARK VINA RESULT:      -7.5      2.549      4.559
REMARK  Name = 
REMARK  6 active torsions:
REMARK  status: ('A' for Active; 'I' for Inactive)
REMARK    1  A    between atoms: C_1  and  C_2
REMARK    2  A    between atoms: C_6  and  C_7
REMARK    3  A    between atoms: N_12  and  C_13
REMARK    4  A    between atoms: C_13  and  C_14
REMARK    5  A    between atoms: C_18  and  N_19
REMARK    6  A    between atoms: C_20  and  C_22
REMARK                            x       y       z     vdW  Elec       q    Type
REMARK                         _______ _______ _______ _____ _____    ______ ____
ROOT
ATOM      1  C   UNL     1       1.711   8.647  20.413  0.00  0.00    +0.000 C 
ENDROOT
BRANCH   1   7
ATOM      2  C   UNL     1       0.158  13.441  21.162  0.00  0.00    +0.000 C 
ATOM      3  O   UNL     1      -0.240  13.724  22.295  0.00  0.00    +0.000 OA
ATOM      4  N   UNL     1       0.396  12.114  20.784  0.00  0.00    +0.000 N 
ATOM      5  C   UNL     1       0.099  11.064  21.769  0.00  0.00    +0.000 C 
ATOM      6  C   UNL     1      -0.380   9.756  21.102  0.00  0.00    +0.000 C 
ATOM      7  N   UNL     1       0.442   9.252  19.975  0.00  0.00    +0.000 NA
ATOM      8  C   UNL     1       0.703  10.378  19.042  0.00  0.00    +0.000 C 
ATOM      9  C   UNL     1       1.273  11.652  19.704  0.00  0.00    +0.000 C 
BRANCH   2  15
ATOM     10  C   UNL     1       3.256  16.645  18.873  0.00  0.00    +0.000 C 
ATOM     11  C   UNL     1       1.876  16.078  19.033  0.00  0.00    +0.000 A 
ATOM     12  C   UNL     1       0.783  16.712  18.436  0.00  0.00    +0.000 A 
ATOM     13  C   UNL     1      -0.514  16.340  18.781  0.00  0.00    +0.000 A 
ATOM     14  C   UNL     1      -0.728  15.325  19.713  0.00  0.00    +0.000 A 
ATOM     15  C   UNL     1       0.344  14.578  20.208  0.00  0.00    +0.000 A 
ATOM     16  C   UNL     1       1.648  14.989  19.891  0.00  0.00    +0.000 A 
ENDBRANCH   2  15
ENDBRANCH   1   7
BRANCH   1  17
ATOM     17  C   UNL     1       1.994   7.233  19.932  0.00  0.00    +0.000 A 
ATOM     18  C   UNL     1       1.537   6.174  20.735  0.00  0.00    +0.000 A 
ATOM     19  C   UNL     1       1.855   4.857  20.421  0.00  0.00    +0.000 A 
ATOM     20  C   UNL     1       2.646   4.576  19.309  0.00  0.00    +0.000 A 
ATOM     21  C   UNL     1       3.134   5.600  18.493  0.00  0.00    +0.000 A 
ATOM     22  C   UNL     1       2.794   6.930  18.809  0.00  0.00    +0.000 A 
BRANCH  21  23
ATOM     23  N   UNL     1       3.954   5.355  17.362  0.00  0.00    +0.000 N 
ATOM     24  C   UNL     1       5.308   5.033  17.369  0.00  0.00    +0.000 C 
ATOM     25  O   UNL     1       6.013   4.992  18.374  0.00  0.00    +0.000 OA
ATOM     26  H   UNL     1       3.532   5.459  16.447  0.00  0.00    +0.000 HD
BRANCH  24  27
ATOM     27  C   UNL     1       5.878   4.755  16.060  0.00  0.00    +0.000 A 
ATOM     28  C   UNL     1       5.557   3.753  15.156  0.00  0.00    +0.000 A 
ATOM     29  C   UNL     1       6.341   3.973  14.002  0.00  0.00    +0.000 A 
ATOM     30  C   UNL     1       7.112   5.077  14.275  0.00  0.00    +0.000 A 
ATOM     31  O   UNL     1       6.854   5.553  15.525  0.00  0.00    +0.000 OA
ENDBRANCH  24  27
ENDBRANCH  21  23
ENDBRANCH   1  17
TORSDOF 5
ENDMDL
MODEL 9
REMARK VINA RESULT:      -7.5      3.455     11.394
REMARK  Name = 
REMARK  6 active torsions:
REMARK  status: ('A' for Active; 'I' for Inactive)
REMARK    1  A    between atoms: C_1  and  C_2
REMARK    2  A    between atoms: C_6  and  C_7
REMARK    3  A    between atoms: N_12  and  C_13
REMARK    4  A    between atoms: C_13  and  C_14
REMARK    5  A    between atoms: C_18  and  N_19
REMARK    6  A    between atoms: C_20  and  C_22
REMARK                            x       y       z     vdW  Elec       q    Type
REMARK                         _______ _______ _______ _____ _____    ______ ____
ROOT
ATOM      1  C   UNL     1      -0.069   9.644  18.278  0.00  0.00    +0.000 C 
ENDROOT
BRANCH   1   7
ATOM      2  C   UNL     1       3.083   5.880  19.640  0.00  0.00    +0.000 C 
ATOM      3  O   UNL     1       2.739   5.191  20.603  0.00  0.00    +0.000 OA
ATOM      4  N   UNL     1       2.414   7.068  19.319  0.00  0.00    +0.000 N 
ATOM      5  C   UNL     1       1.323   7.494  20.206  0.00  0.00    +0.000 C 
ATOM      6  C   UNL     1       1.209   9.031  20.295  0.00  0.00    +0.000 C 
ATOM      7  N   UNL     1       1.204   9.767  19.007  0.00  0.00    +0.000 NA
ATOM      8  C   UNL     1       2.326   9.265  18.173  0.00  0.00    +0.000 C 
ATOM      9  C   UNL     1       2.377   7.729  18.010  0.00  0.00    +0.000 C 
BRANCH   2  15
ATOM     10  C   UNL     1       8.055   5.749  19.032  0.00  0.00    +0.000 C 
ATOM     11  C   UNL     1       6.693   5.274  18.618  0.00  0.00    +0.000 A 
ATOM     12  C   UNL     1       6.530   4.550  17.434  0.00  0.00    +0.000 A 
ATOM     13  C   UNL     1       5.255   4.324  16.923  0.00  0.00    +0.000 A 
ATOM     14  C   UNL     1       4.134   4.808  17.596  0.00  0.00    +0.000 A 
ATOM     15  C   UNL     1       4.262   5.402  18.854  0.00  0.00    +0.000 A 
ATOM     16  C   UNL     1       5.552   5.666  19.340  0.00  0.00    +0.000 A 
ENDBRANCH   2  15
ENDBRANCH   1   7
BRANCH   1  17
ATOM     17  C   UNL     1      -1.221  10.508  18.766  0.00  0.00    +0.000 A 
ATOM     18  C   UNL     1      -2.354  10.600  17.940  0.00  0.00    +0.000 A 
ATOM     19  C   UNL     1      -3.400  11.457  18.264  0.00  0.00    +0.000 A 
ATOM     20  C   UNL     1      -3.326  12.248  19.409  0.00  0.00    +0.000 A 
ATOM     21  C   UNL     1      -2.210  12.199  20.249  0.00  0.00    +0.000 A 
ATOM     22  C   UNL     1      -1.162  11.315  19.922  0.00  0.00    +0.000 A 
BRANCH  21  23
ATOM     23  N   UNL     1      -2.091  12.998  21.414  0.00  0.00    +0.000 N 
ATOM     24  C   UNL     1      -2.879  12.923  22.559  0.00  0.00    +0.000 C 
ATOM     25  O   UNL     1      -3.856  12.190  22.690  0.00  0.00    +0.000 OA
ATOM     26  H   UNL     1      -1.390  13.729  21.411  0.00  0.00    +0.000 HD
BRANCH  24  27
ATOM     27  C   UNL     1      -2.479  13.814  23.637  0.00  0.00    +0.000 A 
ATOM     28  C   UNL     1      -1.264  14.448  23.849  0.00  0.00    +0.000 A 
ATOM     29  C   UNL     1      -1.420  15.268  24.988  0.00  0.00    +0.000 A 
ATOM     30  C   UNL     1      -2.710  15.070  25.421  0.00  0.00    +0.000 A 
ATOM     31  O   UNL     1      -3.359  14.179  24.621  0.00  0.00    +0.000 OA
ENDBRANCH  24  27
ENDBRANCH  21  23
ENDBRANCH   1  17
TORSDOF 5
ENDMDL
