MODEL 1
REMARK VINA RESULT:      -7.7      0.000      0.000
REMARK  Name = 
REMARK  10 active torsions:
REMARK  status: ('A' for Active; 'I' for Inactive)
REMARK    1  A    between atoms: C_1  and  N_2
REMARK    2  A    between atoms: N_2  and  C_3
REMARK    3  A    between atoms: C_3  and  C_4
REMARK    4  A    between atoms: C_13  and  C_15
REMARK    5  A    between atoms: C_18  and  C_19
REMARK    6  A    between atoms: N_23  and  C_24
REMARK    7  A    between atoms: C_24  and  C_25
REMARK    8  A    between atoms: C_25  and  C_26
REMARK    9  A    between atoms: C_26  and  O_27
REMARK   10  A    between atoms: O_27  and  C_28
REMARK                            x       y       z     vdW  Elec       q    Type
REMARK                         _______ _______ _______ _____ _____    ______ ____
ROOT
ATOM      1  C   UNL     1       5.899   4.741  15.183  0.00  0.00    +0.000 A 
ATOM      2  C   UNL     1       5.581   3.628  15.978  0.00  0.00    +0.000 A 
ATOM      3  C   UNL     1       4.712   3.724  17.069  0.00  0.00    +0.000 A 
ATOM      4  C   UNL     1       4.177   4.987  17.350  0.00  0.00    +0.000 A 
ATOM      5  C   UNL     1       4.468   6.112  16.594  0.00  0.00    +0.000 A 
ATOM      6  C   UNL     1       5.342   5.998  15.499  0.00  0.00    +0.000 A 
ATOM      7  N   UNL     1       3.801   7.206  17.084  0.00  0.00    +0.000 NA
ATOM      8  C   UNL     1       3.096   6.797  18.118  0.00  0.00    +0.000 A 
ATOM      9  N   UNL     1       2.282   7.569  18.935  0.00  0.00    +0.000 N 
ATOM     10  C   UNL     1       1.909   8.854  18.571  0.00  0.00    +0.000 C 
ATOM     11  O   UNL     1       2.138   9.405  17.500  0.00  0.00    +0.000 OA
ATOM     12  N   UNL     1       3.303   5.443  18.314  0.00  0.00    +0.000 N 
ATOM     13  H   UNL     1       1.931   7.161  19.794  0.00  0.00    +0.000 HD
ENDROOT
BRANCH  10  14
ATOM     14  C   UNL     1       1.083   9.626  19.558  0.00  0.00    +0.000 A 
ATOM     15  C   UNL     1       0.527  10.882  19.285  0.00  0.00    +0.000 A 
ATOM     16  C   UNL     1      -0.281  11.520  20.239  0.00  0.00    +0.000 A 
ATOM     17  C   UNL     1      -0.548  10.908  21.472  0.00  0.00    +0.000 A 
ATOM     18  C   UNL     1      -0.006   9.653  21.746  0.00  0.00    +0.000 A 
ATOM     19  C   UNL     1       0.801   9.018  20.795  0.00  0.00    +0.000 A 
BRANCH  17  20
ATOM     20  C   UNL     1      -1.388  11.565  22.439  0.00  0.00    +0.000 C 
ATOM     21  N   UNL     1      -2.065  12.085  23.225  0.00  0.00    +0.000 NA
ENDBRANCH  17  20
ENDBRANCH  10  14
BRANCH   1  22
ATOM     22  C   UNL     1       6.837   4.584  14.005  0.00  0.00    +0.000 C 
BRANCH  22  24
ATOM     23  C   UNL     1       8.491   5.833  12.767  0.00  0.00    +0.000 C 
ATOM     24  N   UNL     1       7.953   5.530  14.084  0.00  0.00    +0.000 NA
ATOM     25  H   UNL     1       7.632   6.393  14.519  0.00  0.00    +0.000 HD
ENDBRANCH  22  24
ENDBRANCH   1  22
BRANCH  12  26
ATOM     26  C   UNL     1       2.656   4.574  19.275  0.00  0.00    +0.000 C 
BRANCH  26  27
ATOM     27  C   UNL     1       1.448   3.834  18.701  0.00  0.00    +0.000 C 
BRANCH  27  28
ATOM     28  C   UNL     1       0.907   2.772  19.653  0.00  0.00    +0.000 C 
BRANCH  28  29
ATOM     29  O   UNL     1       0.914   3.230  21.009  0.00  0.00    +0.000 OA
ATOM     30  C   UNL     1       1.760   2.451  21.853  0.00  0.00    +0.000 C 
ENDBRANCH  28  29
ENDBRANCH  27  28
ENDBRANCH  26  27
ENDBRANCH  12  26
TORSDOF 8
ENDMDL
MODEL 2
REMARK VINA RESULT:      -7.7      1.013      1.108
REMARK  Name = 
REMARK  10 active torsions:
REMARK  status: ('A' for Active; 'I' for Inactive)
REMARK    1  A    between atoms: C_1  and  N_2
REMARK    2  A    between atoms: N_2  and  C_3
REMARK    3  A    between atoms: C_3  and  C_4
REMARK    4  A    between atoms: C_13  and  C_15
REMARK    5  A    between atoms: C_18  and  C_19
REMARK    6  A    between atoms: N_23  and  C_24
REMARK    7  A    between atoms: C_24  and  C_25
REMARK    8  A    between atoms: C_25  and  C_26
REMARK    9  A    between atoms: C_26  and  O_27
REMARK   10  A    between atoms: O_27  and  C_28
REMARK                            x       y       z     vdW  Elec       q    Type
REMARK                         _______ _______ _______ _____ _____    ______ ____
ROOT
ATOM      1  C   UNL     1       5.772   4.900  15.511  0.00  0.00    +0.000 A 
ATOM      2  C   UNL     1       5.273   3.772  16.182  0.00  0.00    +0.000 A 
ATOM      3  C   UNL     1       4.289   3.877  17.171  0.00  0.00    +0.000 A 
ATOM      4  C   UNL     1       3.827   5.162  17.477  0.00  0.00    +0.000 A 
ATOM      5  C   UNL     1       4.295   6.302  16.842  0.00  0.00    +0.000 A 
ATOM      6  C   UNL     1       5.283   6.180  15.849  0.00  0.00    +0.000 A 
ATOM      7  N   UNL     1       3.662   7.418  17.328  0.00  0.00    +0.000 NA
ATOM      8  C   UNL     1       2.808   7.010  18.242  0.00  0.00    +0.000 A 
ATOM      9  N   UNL     1       1.966   7.798  19.014  0.00  0.00    +0.000 N 
ATOM     10  C   UNL     1       1.743   9.131  18.701  0.00  0.00    +0.000 C 
ATOM     11  O   UNL     1       2.142   9.724  17.705  0.00  0.00    +0.000 OA
ATOM     12  N   UNL     1       2.881   5.634  18.364  0.00  0.00    +0.000 N 
ATOM     13  H   UNL     1       1.482   7.371  19.795  0.00  0.00    +0.000 HD
ENDROOT
BRANCH  10  14
ATOM     14  C   UNL     1       0.867   9.910  19.639  0.00  0.00    +0.000 A 
ATOM     15  C   UNL     1       0.044  10.966  19.229  0.00  0.00    +0.000 A 
ATOM     16  C   UNL     1      -0.788  11.614  20.155  0.00  0.00    +0.000 A 
ATOM     17  C   UNL     1      -0.813  11.210  21.498  0.00  0.00    +0.000 A 
ATOM     18  C   UNL     1      -0.003  10.153  21.910  0.00  0.00    +0.000 A 
ATOM     19  C   UNL     1       0.828   9.508  20.987  0.00  0.00    +0.000 A 
BRANCH  17  20
ATOM     20  C   UNL     1      -1.679  11.872  22.437  0.00  0.00    +0.000 C 
ATOM     21  N   UNL     1      -2.372  12.401  23.203  0.00  0.00    +0.000 NA
ENDBRANCH  17  20
ENDBRANCH  10  14
BRANCH   1  22
ATOM     22  C   UNL     1       6.830   4.735  14.440  0.00  0.00    +0.000 C 
BRANCH  22  24
ATOM     23  C   UNL     1       6.922   3.934  12.165  0.00  0.00    +0.000 C 
ATOM     24  N   UNL     1       6.491   3.643  13.523  0.00  0.00    +0.000 NA
ATOM     25  H   UNL     1       6.943   2.787  13.839  0.00  0.00    +0.000 HD
ENDBRANCH  22  24
ENDBRANCH   1  22
BRANCH  12  26
ATOM     26  C   UNL     1       2.057   4.767  19.180  0.00  0.00    +0.000 C 
BRANCH  26  27
ATOM     27  C   UNL     1       2.616   4.554  20.587  0.00  0.00    +0.000 C 
BRANCH  27  28
ATOM     28  C   UNL     1       3.327   3.212  20.735  0.00  0.00    +0.000 C 
BRANCH  28  29
ATOM     29  O   UNL     1       2.821   2.469  21.849  0.00  0.00    +0.000 OA
ATOM     30  C   UNL     1       1.398   2.511  21.943  0.00  0.00    +0.000 C 
ENDBRANCH  28  29
ENDBRANCH  27  28
ENDBRANCH  26  27
ENDBRANCH  12  26
TORSDOF 8
ENDMDL
MODEL 3
REMARK VINA RESULT:      -7.6      1.127      1.430
REMARK  Name = 
REMARK  10 active torsions:
REMARK  status: ('A' for Active; 'I' for Inactive)
REMARK    1  A    between atoms: C_1  and  N_2
REMARK    2  A    between atoms: N_2  and  C_3
REMARK    3  A    between atoms: C_3  and  C_4
REMARK    4  A    between atoms: C_13  and  C_15
REMARK    5  A    between atoms: C_18  and  C_19
REMARK    6  A    between atoms: N_23  and  C_24
REMARK    7  A    between atoms: C_24  and  C_25
REMARK    8  A    between atoms: C_25  and  C_26
REMARK    9  A    between atoms: C_26  and  O_27
REMARK   10  A    between atoms: O_27  and  C_28
REMARK                            x       y       z     vdW  Elec       q    Type
REMARK                         _______ _______ _______ _____ _____    ______ ____
ROOT
ATOM      1  C   UNL     1       5.296   4.542  16.491  0.00  0.00    +0.000 A 
ATOM      2  C   UNL     1       5.139   3.606  17.526  0.00  0.00    +0.000 A 
ATOM      3  C   UNL     1       4.365   3.881  18.658  0.00  0.00    +0.000 A 
ATOM      4  C   UNL     1       3.760   5.141  18.726  0.00  0.00    +0.000 A 
ATOM      5  C   UNL     1       3.893   6.095  17.730  0.00  0.00    +0.000 A 
ATOM      6  C   UNL     1       4.673   5.803  16.598  0.00  0.00    +0.000 A 
ATOM      7  N   UNL     1       3.187   7.227  18.051  0.00  0.00    +0.000 NA
ATOM      8  C   UNL     1       2.612   7.007  19.214  0.00  0.00    +0.000 A 
ATOM      9  N   UNL     1       1.816   7.885  19.935  0.00  0.00    +0.000 N 
ATOM     10  C   UNL     1       1.312   9.040  19.355  0.00  0.00    +0.000 C 
ATOM     11  O   UNL     1       1.400   9.363  18.175  0.00  0.00    +0.000 OA
ATOM     12  N   UNL     1       2.941   5.739  19.661  0.00  0.00    +0.000 N 
ATOM     13  H   UNL     1       1.575   7.649  20.891  0.00  0.00    +0.000 HD
ENDROOT
BRANCH  10  14
ATOM     14  C   UNL     1       0.518   9.954  20.242  0.00  0.00    +0.000 A 
ATOM     15  C   UNL     1      -0.085  11.135  19.792  0.00  0.00    +0.000 A 
ATOM     16  C   UNL     1      -0.859  11.912  20.669  0.00  0.00    +0.000 A 
ATOM     17  C   UNL     1      -1.043  11.515  22.001  0.00  0.00    +0.000 A 
ATOM     18  C   UNL     1      -0.453  10.335  22.452  0.00  0.00    +0.000 A 
ATOM     19  C   UNL     1       0.319   9.562  21.579  0.00  0.00    +0.000 A 
BRANCH  17  20
ATOM     20  C   UNL     1      -1.848  12.312  22.889  0.00  0.00    +0.000 C 
ATOM     21  N   UNL     1      -2.488  12.960  23.608  0.00  0.00    +0.000 NA
ENDBRANCH  17  20
ENDBRANCH  10  14
BRANCH   1  22
ATOM     22  C   UNL     1       6.135   4.194  15.279  0.00  0.00    +0.000 C 
BRANCH  22  24
ATOM     23  C   UNL     1       7.584   5.163  13.609  0.00  0.00    +0.000 C 
ATOM     24  N   UNL     1       7.100   5.254  14.978  0.00  0.00    +0.000 NA
ATOM     25  H   UNL     1       6.657   6.161  15.115  0.00  0.00    +0.000 HD
ENDBRANCH  22  24
ENDBRANCH   1  22
BRANCH  12  26
ATOM     26  C   UNL     1       2.453   5.058  20.842  0.00  0.00    +0.000 C 
BRANCH  26  27
ATOM     27  C   UNL     1       1.159   4.282  20.598  0.00  0.00    +0.000 C 
BRANCH  27  28
ATOM     28  C   UNL     1       1.291   2.802  20.944  0.00  0.00    +0.000 C 
BRANCH  28  29
ATOM     29  O   UNL     1       1.666   2.027  19.801  0.00  0.00    +0.000 OA
ATOM     30  C   UNL     1       0.895   2.337  18.642  0.00  0.00    +0.000 C 
ENDBRANCH  28  29
ENDBRANCH  27  28
ENDBRANCH  26  27
ENDBRANCH  12  26
TORSDOF 8
ENDMDL
MODEL 4
REMARK VINA RESULT:      -7.6      1.113      1.293
REMARK  Name = 
REMARK  10 active torsions:
REMARK  status: ('A' for Active; 'I' for Inactive)
REMARK    1  A    between atoms: C_1  and  N_2
REMARK    2  A    between atoms: N_2  and  C_3
REMARK    3  A    between atoms: C_3  and  C_4
REMARK    4  A    between atoms: C_13  and  C_15
REMARK    5  A    between atoms: C_18  and  C_19
REMARK    6  A    between atoms: N_23  and  C_24
REMARK    7  A    between atoms: C_24  and  C_25
REMARK    8  A    between atoms: C_25  and  C_26
REMARK    9  A    between atoms: C_26  and  O_27
REMARK   10  A    between atoms: O_27  and  C_28
REMARK                            x       y       z     vdW  Elec       q    Type
REMARK                         _______ _______ _______ _____ _____    ______ ____
ROOT
ATOM      1  C   UNL     1       5.960   4.977  15.514  0.00  0.00    +0.000 A 
ATOM      2  C   UNL     1       5.989   4.029  16.550  0.00  0.00    +0.000 A 
ATOM      3  C   UNL     1       5.265   4.207  17.733  0.00  0.00    +0.000 A 
ATOM      4  C   UNL     1       4.515   5.383  17.851  0.00  0.00    +0.000 A 
ATOM      5  C   UNL     1       4.463   6.346  16.856  0.00  0.00    +0.000 A 
ATOM      6  C   UNL     1       5.195   6.151  15.672  0.00  0.00    +0.000 A 
ATOM      7  N   UNL     1       3.647   7.383  17.232  0.00  0.00    +0.000 NA
ATOM      8  C   UNL     1       3.182   7.094  18.429  0.00  0.00    +0.000 A 
ATOM      9  N   UNL     1       2.334   7.868  19.208  0.00  0.00    +0.000 N 
ATOM     10  C   UNL     1       1.654   8.951  18.672  0.00  0.00    +0.000 C 
ATOM     11  O   UNL     1       1.623   9.283  17.492  0.00  0.00    +0.000 OA
ATOM     12  N   UNL     1       3.694   5.877  18.843  0.00  0.00    +0.000 N 
ATOM     13  H   UNL     1       2.189   7.605  20.176  0.00  0.00    +0.000 HD
ENDROOT
BRANCH  10  14
ATOM     14  C   UNL     1       0.816   9.761  19.617  0.00  0.00    +0.000 A 
ATOM     15  C   UNL     1       0.001  10.824  19.209  0.00  0.00    +0.000 A 
ATOM     16  C   UNL     1      -0.798  11.502  20.144  0.00  0.00    +0.000 A 
ATOM     17  C   UNL     1      -0.797  11.120  21.494  0.00  0.00    +0.000 A 
ATOM     18  C   UNL     1       0.005  10.056  21.904  0.00  0.00    +0.000 A 
ATOM     19  C   UNL     1       0.803   9.382  20.972  0.00  0.00    +0.000 A 
BRANCH  17  20
ATOM     20  C   UNL     1      -1.629  11.813  22.442  0.00  0.00    +0.000 C 
ATOM     21  N   UNL     1      -2.307  12.362  23.207  0.00  0.00    +0.000 NA
ENDBRANCH  17  20
ENDBRANCH  10  14
BRANCH   1  22
ATOM     22  C   UNL     1       6.753   4.734  14.246  0.00  0.00    +0.000 C 
BRANCH  22  24
ATOM     23  C   UNL     1       6.602   3.575  12.134  0.00  0.00    +0.000 C 
ATOM     24  N   UNL     1       6.292   3.528  13.554  0.00  0.00    +0.000 NA
ATOM     25  H   UNL     1       6.740   2.712  13.966  0.00  0.00    +0.000 HD
ENDBRANCH  22  24
ENDBRANCH   1  22
BRANCH  12  26
ATOM     26  C   UNL     1       3.373   5.141  20.049  0.00  0.00    +0.000 C 
BRANCH  26  27
ATOM     27  C   UNL     1       2.194   4.185  19.875  0.00  0.00    +0.000 C 
BRANCH  27  28
ATOM     28  C   UNL     1       2.605   2.721  20.000  0.00  0.00    +0.000 C 
BRANCH  28  29
ATOM     29  O   UNL     1       2.089   1.936  18.920  0.00  0.00    +0.000 OA
ATOM     30  C   UNL     1       0.708   2.185  18.663  0.00  0.00    +0.000 C 
ENDBRANCH  28  29
ENDBRANCH  27  28
ENDBRANCH  26  27
ENDBRANCH  12  26
TORSDOF 8
ENDMDL
MODEL 5
REMARK VINA RESULT:      -7.5      0.761      1.185
REMARK  Name = 
REMARK  10 active torsions:
REMARK  status: ('A' for Active; 'I' for Inactive)
REMARK    1  A    between atoms: C_1  and  N_2
REMARK    2  A    between atoms: N_2  and  C_3
REMARK    3  A    between atoms: C_3  and  C_4
REMARK    4  A    between atoms: C_13  and  C_15
REMARK    5  A    between atoms: C_18  and  C_19
REMARK    6  A    between atoms: N_23  and  C_24
REMARK    7  A    between atoms: C_24  and  C_25
REMARK    8  A    between atoms: C_25  and  C_26
REMARK    9  A    between atoms: C_26  and  O_27
REMARK   10  A    between atoms: O_27  and  C_28
REMARK                            x       y       z     vdW  Elec       q    Type
REMARK                         _______ _______ _______ _____ _____    ______ ____
ROOT
ATOM      1  C   UNL     1       5.891   4.907  15.394  0.00  0.00    +0.000 A 
ATOM      2  C   UNL     1       5.550   3.775  16.152  0.00  0.00    +0.000 A 
ATOM      3  C   UNL     1       4.650   3.846  17.220  0.00  0.00    +0.000 A 
ATOM      4  C   UNL     1       4.107   5.102  17.515  0.00  0.00    +0.000 A 
ATOM      5  C   UNL     1       4.420   6.245  16.795  0.00  0.00    +0.000 A 
ATOM      6  C   UNL     1       5.325   6.157  15.724  0.00  0.00    +0.000 A 
ATOM      7  N   UNL     1       3.738   7.327  17.291  0.00  0.00    +0.000 NA
ATOM      8  C   UNL     1       3.004   6.895  18.294  0.00  0.00    +0.000 A 
ATOM      9  N   UNL     1       2.167   7.647  19.106  0.00  0.00    +0.000 N 
ATOM     10  C   UNL     1       1.804   8.940  18.762  0.00  0.00    +0.000 C 
ATOM     11  O   UNL     1       2.064   9.517  17.711  0.00  0.00    +0.000 OA
ATOM     12  N   UNL     1       3.205   5.536  18.463  0.00  0.00    +0.000 N 
ATOM     13  H   UNL     1       1.791   7.219  19.944  0.00  0.00    +0.000 HD
ENDROOT
BRANCH  10  14
ATOM     14  C   UNL     1       0.949   9.689  19.742  0.00  0.00    +0.000 A 
ATOM     15  C   UNL     1       0.781   9.299  21.076  0.00  0.00    +0.000 A 
ATOM     16  C   UNL     1       0.008  10.080  21.949  0.00  0.00    +0.000 A 
ATOM     17  C   UNL     1      -0.599  11.263  21.501  0.00  0.00    +0.000 A 
ATOM     18  C   UNL     1      -0.427  11.661  20.177  0.00  0.00    +0.000 A 
ATOM     19  C   UNL     1       0.342  10.881  19.306  0.00  0.00    +0.000 A 
BRANCH  17  20
ATOM     20  C   UNL     1      -1.379  12.064  22.407  0.00  0.00    +0.000 C 
ATOM     21  N   UNL     1      -2.017  12.703  23.136  0.00  0.00    +0.000 NA
ENDBRANCH  17  20
ENDBRANCH  10  14
BRANCH   1  22
ATOM     22  C   UNL     1       6.863   4.778  14.240  0.00  0.00    +0.000 C 
BRANCH  22  24
ATOM     23  C   UNL     1       7.168   3.907  12.009  0.00  0.00    +0.000 C 
ATOM     24  N   UNL     1       6.347   3.873  13.209  0.00  0.00    +0.000 NA
ATOM     25  H   UNL     1       6.331   2.923  13.574  0.00  0.00    +0.000 HD
ENDBRANCH  22  24
ENDBRANCH   1  22
BRANCH  12  26
ATOM     26  C   UNL     1       2.531   4.645  19.385  0.00  0.00    +0.000 C 
BRANCH  26  27
ATOM     27  C   UNL     1       1.351   3.906  18.753  0.00  0.00    +0.000 C 
BRANCH  27  28
ATOM     28  C   UNL     1       0.812   2.794  19.648  0.00  0.00    +0.000 C 
BRANCH  28  29
ATOM     29  O   UNL     1       1.836   2.252  20.488  0.00  0.00    +0.000 OA
ATOM     30  C   UNL     1       1.630   2.539  21.869  0.00  0.00    +0.000 C 
ENDBRANCH  28  29
ENDBRANCH  27  28
ENDBRANCH  26  27
ENDBRANCH  12  26
TORSDOF 8
ENDMDL
MODEL 6
REMARK VINA RESULT:      -7.3      1.290      1.650
REMARK  Name = 
REMARK  10 active torsions:
REMARK  status: ('A' for Active; 'I' for Inactive)
REMARK    1  A    between atoms: C_1  and  N_2
REMARK    2  A    between atoms: N_2  and  C_3
REMARK    3  A    between atoms: C_3  and  C_4
REMARK    4  A    between atoms: C_13  and  C_15
REMARK    5  A    between atoms: C_18  and  C_19
REMARK    6  A    between atoms: N_23  and  C_24
REMARK    7  A    between atoms: C_24  and  C_25
REMARK    8  A    between atoms: C_25  and  C_26
REMARK    9  A    between atoms: C_26  and  O_27
REMARK   10  A    between atoms: O_27  and  C_28
REMARK                            x       y       z     vdW  Elec       q    Type
REMARK                         _______ _______ _______ _____ _____    ______ ____
ROOT
ATOM      1  C   UNL     1       6.016   5.004  16.144  0.00  0.00    +0.000 A 
ATOM      2  C   UNL     1       5.447   3.909  16.815  0.00  0.00    +0.000 A 
ATOM      3  C   UNL     1       4.338   4.053  17.655  0.00  0.00    +0.000 A 
ATOM      4  C   UNL     1       3.821   5.344  17.813  0.00  0.00    +0.000 A 
ATOM      5  C   UNL     1       4.355   6.453  17.174  0.00  0.00    +0.000 A 
ATOM      6  C   UNL     1       5.469   6.291  16.332  0.00  0.00    +0.000 A 
ATOM      7  N   UNL     1       3.647   7.582  17.499  0.00  0.00    +0.000 NA
ATOM      8  C   UNL     1       2.684   7.212  18.316  0.00  0.00    +0.000 A 
ATOM      9  N   UNL     1       1.735   8.028  18.916  0.00  0.00    +0.000 N 
ATOM     10  C   UNL     1       1.537   9.333  18.491  0.00  0.00    +0.000 C 
ATOM     11  O   UNL     1       2.058   9.873  17.521  0.00  0.00    +0.000 OA
ATOM     12  N   UNL     1       2.759   5.848  18.534  0.00  0.00    +0.000 N 
ATOM     13  H   UNL     1       1.156   7.639  19.652  0.00  0.00    +0.000 HD
ENDROOT
BRANCH  10  14
ATOM     14  C   UNL     1       0.533  10.150  19.252  0.00  0.00    +0.000 A 
ATOM     15  C   UNL     1       0.730  10.586  20.568  0.00  0.00    +0.000 A 
ATOM     16  C   UNL     1      -0.232  11.392  21.197  0.00  0.00    +0.000 A 
ATOM     17  C   UNL     1      -1.396  11.777  20.515  0.00  0.00    +0.000 A 
ATOM     18  C   UNL     1      -1.593  11.354  19.202  0.00  0.00    +0.000 A 
ATOM     19  C   UNL     1      -0.635  10.549  18.576  0.00  0.00    +0.000 A 
BRANCH  17  20
ATOM     20  C   UNL     1      -2.370  12.615  21.164  0.00  0.00    +0.000 C 
ATOM     21  N   UNL     1      -3.147  13.298  21.690  0.00  0.00    +0.000 NA
ENDBRANCH  17  20
ENDBRANCH  10  14
BRANCH   1  22
ATOM     22  C   UNL     1       7.211   4.796  15.236  0.00  0.00    +0.000 C 
BRANCH  22  24
ATOM     23  C   UNL     1       6.267   3.840  13.231  0.00  0.00    +0.000 C 
ATOM     24  N   UNL     1       6.858   5.025  13.833  0.00  0.00    +0.000 NA
ATOM     25  H   UNL     1       6.193   5.795  13.775  0.00  0.00    +0.000 HD
ENDBRANCH  22  24
ENDBRANCH   1  22
BRANCH  12  26
ATOM     26  C   UNL     1       1.844   5.016  19.288  0.00  0.00    +0.000 C 
BRANCH  26  27
ATOM     27  C   UNL     1       2.213   4.902  20.767  0.00  0.00    +0.000 C 
BRANCH  27  28
ATOM     28  C   UNL     1       2.059   3.481  21.299  0.00  0.00    +0.000 C 
BRANCH  28  29
ATOM     29  O   UNL     1       2.622   2.519  20.401  0.00  0.00    +0.000 OA
ATOM     30  C   UNL     1       4.006   2.278  20.643  0.00  0.00    +0.000 C 
ENDBRANCH  28  29
ENDBRANCH  27  28
ENDBRANCH  26  27
ENDBRANCH  12  26
TORSDOF 8
ENDMDL
MODEL 7
REMARK VINA RESULT:      -7.1      1.287      1.518
REMARK  Name = 
REMARK  10 active torsions:
REMARK  status: ('A' for Active; 'I' for Inactive)
REMARK    1  A    between atoms: C_1  and  N_2
REMARK    2  A    between atoms: N_2  and  C_3
REMARK    3  A    between atoms: C_3  and  C_4
REMARK    4  A    between atoms: C_13  and  C_15
REMARK    5  A    between atoms: C_18  and  C_19
REMARK    6  A    between atoms: N_23  and  C_24
REMARK    7  A    between atoms: C_24  and  C_25
REMARK    8  A    between atoms: C_25  and  C_26
REMARK    9  A    between atoms: C_26  and  O_27
REMARK   10  A    between atoms: O_27  and  C_28
REMARK                            x       y       z     vdW  Elec       q    Type
REMARK                         _______ _______ _______ _____ _____    ______ ____
ROOT
ATOM      1  C   UNL     1       5.996   5.076  16.371  0.00  0.00    +0.000 A 
ATOM      2  C   UNL     1       5.399   4.008  17.060  0.00  0.00    +0.000 A 
ATOM      3  C   UNL     1       4.273   4.189  17.869  0.00  0.00    +0.000 A 
ATOM      4  C   UNL     1       3.767   5.490  17.978  0.00  0.00    +0.000 A 
ATOM      5  C   UNL     1       4.328   6.573  17.319  0.00  0.00    +0.000 A 
ATOM      6  C   UNL     1       5.459   6.374  16.508  0.00  0.00    +0.000 A 
ATOM      7  N   UNL     1       3.627   7.719  17.594  0.00  0.00    +0.000 NA
ATOM      8  C   UNL     1       2.641   7.385  18.399  0.00  0.00    +0.000 A 
ATOM      9  N   UNL     1       1.688   8.228  18.953  0.00  0.00    +0.000 N 
ATOM     10  C   UNL     1       1.515   9.522  18.486  0.00  0.00    +0.000 C 
ATOM     11  O   UNL     1       2.065  10.027  17.513  0.00  0.00    +0.000 OA
ATOM     12  N   UNL     1       2.695   6.027  18.659  0.00  0.00    +0.000 N 
ATOM     13  H   UNL     1       1.089   7.868  19.687  0.00  0.00    +0.000 HD
ENDROOT
BRANCH  10  14
ATOM     14  C   UNL     1       0.504  10.372  19.199  0.00  0.00    +0.000 A 
ATOM     15  C   UNL     1      -0.604  10.948  18.566  0.00  0.00    +0.000 A 
ATOM     16  C   UNL     1      -1.538  11.687  19.309  0.00  0.00    +0.000 A 
ATOM     17  C   UNL     1      -1.379  11.852  20.694  0.00  0.00    +0.000 A 
ATOM     18  C   UNL     1      -0.283  11.272  21.331  0.00  0.00    +0.000 A 
ATOM     19  C   UNL     1       0.649  10.537  20.589  0.00  0.00    +0.000 A 
BRANCH  17  20
ATOM     20  C   UNL     1      -2.348  12.600  21.449  0.00  0.00    +0.000 C 
ATOM     21  N   UNL     1      -3.125  13.213  22.056  0.00  0.00    +0.000 NA
ENDBRANCH  17  20
ENDBRANCH  10  14
BRANCH   1  22
ATOM     22  C   UNL     1       7.208   4.828  15.497  0.00  0.00    +0.000 C 
BRANCH  22  24
ATOM     23  C   UNL     1       6.075   3.981  13.541  0.00  0.00    +0.000 C 
ATOM     24  N   UNL     1       6.898   5.052  14.083  0.00  0.00    +0.000 NA
ATOM     25  H   UNL     1       6.403   5.935  13.983  0.00  0.00    +0.000 HD
ENDBRANCH  22  24
ENDBRANCH   1  22
BRANCH  12  26
ATOM     26  C   UNL     1       1.754   5.227  19.415  0.00  0.00    +0.000 C 
BRANCH  26  27
ATOM     27  C   UNL     1       2.264   4.850  20.806  0.00  0.00    +0.000 C 
BRANCH  27  28
ATOM     28  C   UNL     1       1.847   3.442  21.220  0.00  0.00    +0.000 C 
BRANCH  28  29
ATOM     29  O   UNL     1       2.499   2.446  20.425  0.00  0.00    +0.000 OA
ATOM     30  C   UNL     1       1.661   1.921  19.397  0.00  0.00    +0.000 C 
ENDBRANCH  28  29
ENDBRANCH  27  28
ENDBRANCH  26  27
ENDBRANCH  12  26
TORSDOF 8
ENDMDL
MODEL 8
REMARK VINA RESULT:      -7.1      1.063      1.481
REMARK  Name = 
REMARK  10 active torsions:
REMARK  status: ('A' for Active; 'I' for Inactive)
REMARK    1  A    between atoms: C_1  and  N_2
REMARK    2  A    between atoms: N_2  and  C_3
REMARK    3  A    between atoms: C_3  and  C_4
REMARK    4  A    between atoms: C_13  and  C_15
REMARK    5  A    between atoms: C_18  and  C_19
REMARK    6  A    between atoms: N_23  and  C_24
REMARK    7  A    between atoms: C_24  and  C_25
REMARK    8  A    between atoms: C_25  and  C_26
REMARK    9  A    between atoms: C_26  and  O_27
REMARK   10  A    between atoms: O_27  and  C_28
REMARK                            x       y       z     vdW  Elec       q    Type
REMARK                         _______ _______ _______ _____ _____    ______ ____
ROOT
ATOM      1  C   UNL     1       5.898   4.778  15.547  0.00  0.00    +0.000 A 
ATOM      2  C   UNL     1       5.794   3.803  16.552  0.00  0.00    +0.000 A 
ATOM      3  C   UNL     1       5.025   4.008  17.702  0.00  0.00    +0.000 A 
ATOM      4  C   UNL     1       4.368   5.238  17.819  0.00  0.00    +0.000 A 
ATOM      5  C   UNL     1       4.446   6.229  16.853  0.00  0.00    +0.000 A 
ATOM      6  C   UNL     1       5.223   6.006  15.702  0.00  0.00    +0.000 A 
ATOM      7  N   UNL     1       3.698   7.319  17.219  0.00  0.00    +0.000 NA
ATOM      8  C   UNL     1       3.148   7.037  18.381  0.00  0.00    +0.000 A 
ATOM      9  N   UNL     1       2.325   7.857  19.140  0.00  0.00    +0.000 N 
ATOM     10  C   UNL     1       1.765   9.006  18.604  0.00  0.00    +0.000 C 
ATOM     11  O   UNL     1       1.823   9.371  17.434  0.00  0.00    +0.000 OA
ATOM     12  N   UNL     1       3.537   5.771  18.783  0.00  0.00    +0.000 N 
ATOM     13  H   UNL     1       2.108   7.580  20.090  0.00  0.00    +0.000 HD
ENDROOT
BRANCH  10  14
ATOM     14  C   UNL     1       0.945   9.857  19.529  0.00  0.00    +0.000 A 
ATOM     15  C   UNL     1       0.583   9.463  20.824  0.00  0.00    +0.000 A 
ATOM     16  C   UNL     1      -0.140  10.335  21.652  0.00  0.00    +0.000 A 
ATOM     17  C   UNL     1      -0.504  11.612  21.200  0.00  0.00    +0.000 A 
ATOM     18  C   UNL     1      -0.139  12.013  19.915  0.00  0.00    +0.000 A 
ATOM     19  C   UNL     1       0.581  11.143  19.089  0.00  0.00    +0.000 A 
BRANCH  17  20
ATOM     20  C   UNL     1      -1.234  12.504  22.061  0.00  0.00    +0.000 C 
ATOM     21  N   UNL     1      -1.831  13.214  22.758  0.00  0.00    +0.000 NA
ENDBRANCH  17  20
ENDBRANCH  10  14
BRANCH   1  22
ATOM     22  C   UNL     1       6.735   4.504  14.314  0.00  0.00    +0.000 C 
BRANCH  22  24
ATOM     23  C   UNL     1       8.198   5.629  12.758  0.00  0.00    +0.000 C 
ATOM     24  N   UNL     1       7.781   5.516  14.147  0.00  0.00    +0.000 NA
ATOM     25  H   UNL     1       7.431   6.418  14.464  0.00  0.00    +0.000 HD
ENDBRANCH  22  24
ENDBRANCH   1  22
BRANCH  12  26
ATOM     26  C   UNL     1       3.094   5.032  19.947  0.00  0.00    +0.000 C 
BRANCH  26  27
ATOM     27  C   UNL     1       1.835   4.204  19.692  0.00  0.00    +0.000 C 
BRANCH  27  28
ATOM     28  C   UNL     1       1.381   4.264  18.236  0.00  0.00    +0.000 C 
BRANCH  28  29
ATOM     29  O   UNL     1       1.669   3.044  17.545  0.00  0.00    +0.000 OA
ATOM     30  C   UNL     1       2.044   1.984  18.423  0.00  0.00    +0.000 C 
ENDBRANCH  28  29
ENDBRANCH  27  28
ENDBRANCH  26  27
ENDBRANCH  12  26
TORSDOF 8
ENDMDL
MODEL 9
REMARK VINA RESULT:      -7.1      1.303      1.797
REMARK  Name = 
REMARK  10 active torsions:
REMARK  status: ('A' for Active; 'I' for Inactive)
REMARK    1  A    between atoms: C_1  and  N_2
REMARK    2  A    between atoms: N_2  and  C_3
REMARK    3  A    between atoms: C_3  and  C_4
REMARK    4  A    between atoms: C_13  and  C_15
REMARK    5  A    between atoms: C_18  and  C_19
REMARK    6  A    between atoms: N_23  and  C_24
REMARK    7  A    between atoms: C_24  and  C_25
REMARK    8  A    between atoms: C_25  and  C_26
REMARK    9  A    between atoms: C_26  and  O_27
REMARK   10  A    between atoms: O_27  and  C_28
REMARK                            x       y       z     vdW  Elec       q    Type
REMARK                         _______ _______ _______ _____ _____    ______ ____
ROOT
ATOM      1  C   UNL     1       6.383   4.877  14.789  0.00  0.00    +0.000 A 
ATOM      2  C   UNL     1       6.746   3.966  15.794  0.00  0.00    +0.000 A 
ATOM      3  C   UNL     1       6.213   4.042  17.085  0.00  0.00    +0.000 A 
ATOM      4  C   UNL     1       5.308   5.077  17.342  0.00  0.00    +0.000 A 
ATOM      5  C   UNL     1       4.926   6.000  16.381  0.00  0.00    +0.000 A 
ATOM      6  C   UNL     1       5.469   5.910  15.087  0.00  0.00    +0.000 A 
ATOM      7  N   UNL     1       4.023   6.892  16.902  0.00  0.00    +0.000 NA
ATOM      8  C   UNL     1       3.823   6.550  18.157  0.00  0.00    +0.000 A 
ATOM      9  N   UNL     1       3.001   7.185  19.078  0.00  0.00    +0.000 N 
ATOM     10  C   UNL     1       2.068   8.129  18.677  0.00  0.00    +0.000 C 
ATOM     11  O   UNL     1       1.782   8.430  17.523  0.00  0.00    +0.000 OA
ATOM     12  N   UNL     1       4.595   5.444  18.465  0.00  0.00    +0.000 N 
ATOM     13  H   UNL     1       3.069   6.918  20.053  0.00  0.00    +0.000 HD
ENDROOT
BRANCH  10  14
ATOM     14  C   UNL     1       1.277   8.803  19.760  0.00  0.00    +0.000 A 
ATOM     15  C   UNL     1       1.285   8.386  21.096  0.00  0.00    +0.000 A 
ATOM     16  C   UNL     1       0.561   9.100  22.064  0.00  0.00    +0.000 A 
ATOM     17  C   UNL     1      -0.172  10.242  21.709  0.00  0.00    +0.000 A 
ATOM     18  C   UNL     1      -0.175  10.668  20.382  0.00  0.00    +0.000 A 
ATOM     19  C   UNL     1       0.545   9.955  19.417  0.00  0.00    +0.000 A 
BRANCH  17  20
ATOM     20  C   UNL     1      -0.900  10.975  22.711  0.00  0.00    +0.000 C 
ATOM     21  N   UNL     1      -1.483  11.559  23.527  0.00  0.00    +0.000 NA
ENDBRANCH  17  20
ENDBRANCH  10  14
BRANCH   1  22
ATOM     22  C   UNL     1       6.978   4.748  13.402  0.00  0.00    +0.000 C 
BRANCH  22  24
ATOM     23  C   UNL     1       5.235   3.384  12.441  0.00  0.00    +0.000 C 
ATOM     24  N   UNL     1       6.643   3.456  12.798  0.00  0.00    +0.000 NA
ATOM     25  H   UNL     1       7.206   3.320  11.960  0.00  0.00    +0.000 HD
ENDBRANCH  22  24
ENDBRANCH   1  22
BRANCH  12  26
ATOM     26  C   UNL     1       4.612   4.686  19.699  0.00  0.00    +0.000 C 
BRANCH  26  27
ATOM     27  C   UNL     1       4.050   3.273  19.546  0.00  0.00    +0.000 C 
BRANCH  27  28
ATOM     28  C   UNL     1       2.892   2.998  20.501  0.00  0.00    +0.000 C 
BRANCH  28  29
ATOM     29  O   UNL     1       2.326   4.212  21.003  0.00  0.00    +0.000 OA
ATOM     30  C   UNL     1       1.066   4.523  20.412  0.00  0.00    +0.000 C 
ENDBRANCH  28  29
ENDBRANCH  27  28
ENDBRANCH  26  27
ENDBRANCH  12  26
TORSDOF 8
ENDMDL
