MODEL 1
REMARK VINA RESULT:      -7.8      0.000      0.000
REMARK  Name = 
REMARK  4 active torsions:
REMARK  status: ('A' for Active; 'I' for Inactive)
REMARK    1  A    between atoms: C_1  and  C_2
REMARK    2  A    between atoms: C_8  and  N_9
REMARK    3  A    between atoms: C_13  and  N_14
REMARK    4  A    between atoms: N_14  and  C_15
REMARK                            x       y       z     vdW  Elec       q    Type
REMARK                         _______ _______ _______ _____ _____    ______ ____
ROOT
ATOM      1  N   UNL     1       4.609   5.078  18.205  0.00  0.00    +0.000 N 
ATOM      2  C   UNL     1       4.046   6.172  17.405  0.00  0.00    +0.000 C 
ATOM      3  C   UNL     1       4.919   6.608  16.244  0.00  0.00    +0.000 C 
ATOM      4  C   UNL     1       6.295   6.937  16.787  0.00  0.00    +0.000 C 
ATOM      5  C   UNL     1       6.924   5.692  17.416  0.00  0.00    +0.000 C 
ATOM      6  C   UNL     1       5.987   5.083  18.505  0.00  0.00    +0.000 C 
ATOM      7  O   UNL     1       6.468   4.601  19.534  0.00  0.00    +0.000 OA
ENDROOT
BRANCH   1  15
ATOM      8  C   UNL     1       3.761   2.199  17.771  0.00  0.00    +0.000 C 
ATOM      9  C   UNL     1       3.306   3.064  18.916  0.00  0.00    +0.000 A 
ATOM     10  C   UNL     1       2.321   2.517  19.766  0.00  0.00    +0.000 A 
ATOM     11  C   UNL     1       1.762   3.268  20.792  0.00  0.00    +0.000 A 
ATOM     12  F   UNL     1       0.812   2.732  21.569  0.00  0.00    +0.000 F 
ATOM     13  C   UNL     1       2.158   4.575  21.006  0.00  0.00    +0.000 A 
ATOM     14  C   UNL     1       3.114   5.141  20.162  0.00  0.00    +0.000 A 
ATOM     15  C   UNL     1       3.697   4.411  19.102  0.00  0.00    +0.000 A 
ENDBRANCH   1  15
BRANCH   5  16
ATOM     16  N   UNL     1       7.285   4.638  16.439  0.00  0.00    +0.000 NA
ATOM     17  H   UNL     1       6.975   3.725  16.771  0.00  0.00    +0.000 HD
BRANCH  16  18
ATOM     18  C   UNL     1       6.842   4.863  15.050  0.00  0.00    +0.000 C 
ATOM     19  C   UNL     1       5.992   3.666  14.593  0.00  0.00    +0.000 C 
ATOM     20  C   UNL     1       5.642   3.757  13.110  0.00  0.00    +0.000 C 
ATOM     21  O   UNL     1       6.804   3.941  12.308  0.00  0.00    +0.000 OA
ATOM     22  C   UNL     1       7.493   5.143  12.637  0.00  0.00    +0.000 C 
ATOM     23  C   UNL     1       8.001   5.088  14.070  0.00  0.00    +0.000 C 
ENDBRANCH  16  18
ENDBRANCH   5  16
TORSDOF 3
ENDMDL
MODEL 2
REMARK VINA RESULT:      -7.6      1.532      2.009
REMARK  Name = 
REMARK  4 active torsions:
REMARK  status: ('A' for Active; 'I' for Inactive)
REMARK    1  A    between atoms: C_1  and  C_2
REMARK    2  A    between atoms: C_8  and  N_9
REMARK    3  A    between atoms: C_13  and  N_14
REMARK    4  A    between atoms: N_14  and  C_15
REMARK                            x       y       z     vdW  Elec       q    Type
REMARK                         _______ _______ _______ _____ _____    ______ ____
ROOT
ATOM      1  N   UNL     1       4.890   4.376  18.585  0.00  0.00    +0.000 N 
ATOM      2  C   UNL     1       5.984   5.038  19.305  0.00  0.00    +0.000 C 
ATOM      3  C   UNL     1       6.968   5.765  18.410  0.00  0.00    +0.000 C 
ATOM      4  C   UNL     1       7.469   4.787  17.366  0.00  0.00    +0.000 C 
ATOM      5  C   UNL     1       6.306   4.299  16.501  0.00  0.00    +0.000 C 
ATOM      6  C   UNL     1       5.169   3.696  17.381  0.00  0.00    +0.000 C 
ATOM      7  O   UNL     1       4.542   2.708  16.990  0.00  0.00    +0.000 OA
ENDROOT
BRANCH   1  15
ATOM      8  C   UNL     1       2.231   5.834  18.492  0.00  0.00    +0.000 C 
ATOM      9  C   UNL     1       2.515   4.622  19.337  0.00  0.00    +0.000 A 
ATOM     10  C   UNL     1       1.500   4.227  20.234  0.00  0.00    +0.000 A 
ATOM     11  C   UNL     1       1.698   3.184  21.128  0.00  0.00    +0.000 A 
ATOM     12  F   UNL     1       0.725   2.845  21.984  0.00  0.00    +0.000 F 
ATOM     13  C   UNL     1       2.901   2.504  21.163  0.00  0.00    +0.000 A 
ATOM     14  C   UNL     1       3.926   2.894  20.300  0.00  0.00    +0.000 A 
ATOM     15  C   UNL     1       3.764   3.957  19.384  0.00  0.00    +0.000 A 
ENDBRANCH   1  15
BRANCH   5  16
ATOM     16  N   UNL     1       5.735   5.341  15.614  0.00  0.00    +0.000 NA
ATOM     17  H   UNL     1       6.070   6.264  15.889  0.00  0.00    +0.000 HD
BRANCH  16  18
ATOM     18  C   UNL     1       5.922   5.132  14.166  0.00  0.00    +0.000 C 
ATOM     19  C   UNL     1       5.253   3.808  13.759  0.00  0.00    +0.000 C 
ATOM     20  C   UNL     1       5.554   3.448  12.306  0.00  0.00    +0.000 C 
ATOM     21  O   UNL     1       6.954   3.459  12.043  0.00  0.00    +0.000 OA
ATOM     22  C   UNL     1       7.529   4.741  12.271  0.00  0.00    +0.000 C 
ATOM     23  C   UNL     1       7.395   5.130  13.735  0.00  0.00    +0.000 C 
ENDBRANCH  16  18
ENDBRANCH   5  16
TORSDOF 3
ENDMDL
MODEL 3
REMARK VINA RESULT:      -7.5      1.111      1.505
REMARK  Name = 
REMARK  4 active torsions:
REMARK  status: ('A' for Active; 'I' for Inactive)
REMARK    1  A    between atoms: C_1  and  C_2
REMARK    2  A    between atoms: C_8  and  N_9
REMARK    3  A    between atoms: C_13  and  N_14
REMARK    4  A    between atoms: N_14  and  C_15
REMARK                            x       y       z     vdW  Elec       q    Type
REMARK                         _______ _______ _______ _____ _____    ______ ____
ROOT
ATOM      1  N   UNL     1       3.801   4.874  18.298  0.00  0.00    +0.000 N 
ATOM      2  C   UNL     1       3.496   6.306  18.188  0.00  0.00    +0.000 C 
ATOM      3  C   UNL     1       3.988   6.950  16.907  0.00  0.00    +0.000 C 
ATOM      4  C   UNL     1       5.471   6.662  16.774  0.00  0.00    +0.000 C 
ATOM      5  C   UNL     1       5.706   5.154  16.671  0.00  0.00    +0.000 C 
ATOM      6  C   UNL     1       5.063   4.404  17.878  0.00  0.00    +0.000 C 
ATOM      7  O   UNL     1       5.635   3.432  18.378  0.00  0.00    +0.000 OA
ENDROOT
BRANCH   1  15
ATOM      8  C   UNL     1       2.347   2.282  17.691  0.00  0.00    +0.000 C 
ATOM      9  C   UNL     1       2.415   2.930  19.049  0.00  0.00    +0.000 A 
ATOM     10  C   UNL     1       1.638   2.340  20.068  0.00  0.00    +0.000 A 
ATOM     11  C   UNL     1       1.553   2.915  21.329  0.00  0.00    +0.000 A 
ATOM     12  F   UNL     1       0.791   2.346  22.272  0.00  0.00    +0.000 F 
ATOM     13  C   UNL     1       2.228   4.086  21.617  0.00  0.00    +0.000 A 
ATOM     14  C   UNL     1       2.982   4.699  20.615  0.00  0.00    +0.000 A 
ATOM     15  C   UNL     1       3.085   4.147  19.319  0.00  0.00    +0.000 A 
ENDBRANCH   1  15
BRANCH   5  16
ATOM     16  N   UNL     1       5.219   4.551  15.407  0.00  0.00    +0.000 NA
ATOM     17  H   UNL     1       4.517   5.151  14.976  0.00  0.00    +0.000 HD
BRANCH  16  18
ATOM     18  C   UNL     1       6.256   4.177  14.427  0.00  0.00    +0.000 C 
ATOM     19  C   UNL     1       7.140   5.402  14.138  0.00  0.00    +0.000 C 
ATOM     20  C   UNL     1       8.128   5.130  13.006  0.00  0.00    +0.000 C 
ATOM     21  O   UNL     1       7.469   4.643  11.842  0.00  0.00    +0.000 OA
ATOM     22  C   UNL     1       6.786   3.419  12.088  0.00  0.00    +0.000 C 
ATOM     23  C   UNL     1       5.683   3.624  13.115  0.00  0.00    +0.000 C 
ENDBRANCH  16  18
ENDBRANCH   5  16
TORSDOF 3
ENDMDL
MODEL 4
REMARK VINA RESULT:      -7.2      1.040      1.771
REMARK  Name = 
REMARK  4 active torsions:
REMARK  status: ('A' for Active; 'I' for Inactive)
REMARK    1  A    between atoms: C_1  and  C_2
REMARK    2  A    between atoms: C_8  and  N_9
REMARK    3  A    between atoms: C_13  and  N_14
REMARK    4  A    between atoms: N_14  and  C_15
REMARK                            x       y       z     vdW  Elec       q    Type
REMARK                         _______ _______ _______ _____ _____    ______ ____
ROOT
ATOM      1  N   UNL     1       4.619   5.115  17.599  0.00  0.00    +0.000 N 
ATOM      2  C   UNL     1       4.457   6.450  17.013  0.00  0.00    +0.000 C 
ATOM      3  C   UNL     1       5.681   6.960  16.277  0.00  0.00    +0.000 C 
ATOM      4  C   UNL     1       6.865   6.881  17.220  0.00  0.00    +0.000 C 
ATOM      5  C   UNL     1       7.120   5.427  17.624  0.00  0.00    +0.000 C 
ATOM      6  C   UNL     1       5.836   4.781  18.229  0.00  0.00    +0.000 C 
ATOM      7  O   UNL     1       5.927   3.994  19.174  0.00  0.00    +0.000 OA
ENDROOT
BRANCH   1  15
ATOM      8  C   UNL     1       2.766   6.328  19.671  0.00  0.00    +0.000 C 
ATOM      9  C   UNL     1       2.530   5.016  18.973  0.00  0.00    +0.000 A 
ATOM     10  C   UNL     1       1.429   4.254  19.419  0.00  0.00    +0.000 A 
ATOM     11  C   UNL     1       1.181   2.986  18.911  0.00  0.00    +0.000 A 
ATOM     12  F   UNL     1       0.141   2.276  19.368  0.00  0.00    +0.000 F 
ATOM     13  C   UNL     1       2.011   2.435  17.954  0.00  0.00    +0.000 A 
ATOM     14  C   UNL     1       3.119   3.162  17.516  0.00  0.00    +0.000 A 
ATOM     15  C   UNL     1       3.408   4.451  18.017  0.00  0.00    +0.000 A 
ENDBRANCH   1  15
BRANCH   5  16
ATOM     16  N   UNL     1       7.622   4.574  16.521  0.00  0.00    +0.000 NA
ATOM     17  H   UNL     1       7.529   3.588  16.764  0.00  0.00    +0.000 HD
BRANCH  16  18
ATOM     18  C   UNL     1       7.048   4.835  15.187  0.00  0.00    +0.000 C 
ATOM     19  C   UNL     1       6.163   3.646  14.779  0.00  0.00    +0.000 C 
ATOM     20  C   UNL     1       5.673   3.776  13.339  0.00  0.00    +0.000 C 
ATOM     21  O   UNL     1       6.753   3.991  12.436  0.00  0.00    +0.000 OA
ATOM     22  C   UNL     1       7.466   5.187  12.732  0.00  0.00    +0.000 C 
ATOM     23  C   UNL     1       8.108   5.095  14.108  0.00  0.00    +0.000 C 
ENDBRANCH  16  18
ENDBRANCH   5  16
TORSDOF 3
ENDMDL
MODEL 5
REMARK VINA RESULT:      -7.1      1.863      2.615
REMARK  Name = 
REMARK  4 active torsions:
REMARK  status: ('A' for Active; 'I' for Inactive)
REMARK    1  A    between atoms: C_1  and  C_2
REMARK    2  A    between atoms: C_8  and  N_9
REMARK    3  A    between atoms: C_13  and  N_14
REMARK    4  A    between atoms: N_14  and  C_15
REMARK                            x       y       z     vdW  Elec       q    Type
REMARK                         _______ _______ _______ _____ _____    ______ ____
ROOT
ATOM      1  N   UNL     1       5.162   5.418  18.347  0.00  0.00    +0.000 N 
ATOM      2  C   UNL     1       6.367   5.504  19.180  0.00  0.00    +0.000 C 
ATOM      3  C   UNL     1       7.663   5.552  18.395  0.00  0.00    +0.000 C 
ATOM      4  C   UNL     1       7.692   4.362  17.457  0.00  0.00    +0.000 C 
ATOM      5  C   UNL     1       6.530   4.446  16.465  0.00  0.00    +0.000 C 
ATOM      6  C   UNL     1       5.167   4.581  17.211  0.00  0.00    +0.000 C 
ATOM      7  O   UNL     1       4.164   4.010  16.775  0.00  0.00    +0.000 OA
ENDROOT
BRANCH   1  15
ATOM      8  C   UNL     1       3.492   7.852  17.646  0.00  0.00    +0.000 C 
ATOM      9  C   UNL     1       3.117   6.822  18.678  0.00  0.00    +0.000 A 
ATOM     10  C   UNL     1       1.966   7.094  19.449  0.00  0.00    +0.000 A 
ATOM     11  C   UNL     1       1.589   6.260  20.493  0.00  0.00    +0.000 A 
ATOM     12  F   UNL     1       0.505   6.553  21.223  0.00  0.00    +0.000 F 
ATOM     13  C   UNL     1       2.336   5.139  20.805  0.00  0.00    +0.000 A 
ATOM     14  C   UNL     1       3.490   4.866  20.071  0.00  0.00    +0.000 A 
ATOM     15  C   UNL     1       3.910   5.697  19.007  0.00  0.00    +0.000 A 
ENDBRANCH   1  15
BRANCH   5  16
ATOM     16  N   UNL     1       6.656   5.546  15.479  0.00  0.00    +0.000 NA
ATOM     17  H   UNL     1       7.545   6.029  15.599  0.00  0.00    +0.000 HD
BRANCH  16  18
ATOM     18  C   UNL     1       6.453   5.174  14.066  0.00  0.00    +0.000 C 
ATOM     19  C   UNL     1       5.789   3.789  14.001  0.00  0.00    +0.000 C 
ATOM     20  C   UNL     1       5.704   3.271  12.567  0.00  0.00    +0.000 C 
ATOM     21  O   UNL     1       6.975   3.301  11.924  0.00  0.00    +0.000 OA
ATOM     22  C   UNL     1       7.503   4.621  11.848  0.00  0.00    +0.000 C 
ATOM     23  C   UNL     1       7.749   5.174  13.244  0.00  0.00    +0.000 C 
ENDBRANCH  16  18
ENDBRANCH   5  16
TORSDOF 3
ENDMDL
MODEL 6
REMARK VINA RESULT:      -7.0      0.589      1.530
REMARK  Name = 
REMARK  4 active torsions:
REMARK  status: ('A' for Active; 'I' for Inactive)
REMARK    1  A    between atoms: C_1  and  C_2
REMARK    2  A    between atoms: C_8  and  N_9
REMARK    3  A    between atoms: C_13  and  N_14
REMARK    4  A    between atoms: N_14  and  C_15
REMARK                            x       y       z     vdW  Elec       q    Type
REMARK                         _______ _______ _______ _____ _____    ______ ____
ROOT
ATOM      1  N   UNL     1       4.556   5.273  18.347  0.00  0.00    +0.000 N 
ATOM      2  C   UNL     1       3.981   6.314  17.487  0.00  0.00    +0.000 C 
ATOM      3  C   UNL     1       4.877   6.738  16.339  0.00  0.00    +0.000 C 
ATOM      4  C   UNL     1       6.221   7.139  16.913  0.00  0.00    +0.000 C 
ATOM      5  C   UNL     1       6.872   5.943  17.611  0.00  0.00    +0.000 C 
ATOM      6  C   UNL     1       5.922   5.341  18.691  0.00  0.00    +0.000 C 
ATOM      7  O   UNL     1       6.384   4.916  19.753  0.00  0.00    +0.000 OA
ENDROOT
BRANCH   1  15
ATOM      8  C   UNL     1       2.437   6.797  19.892  0.00  0.00    +0.000 C 
ATOM      9  C   UNL     1       2.638   5.306  19.954  0.00  0.00    +0.000 A 
ATOM     10  C   UNL     1       1.858   4.604  20.897  0.00  0.00    +0.000 A 
ATOM     11  C   UNL     1       2.037   3.242  21.105  0.00  0.00    +0.000 A 
ATOM     12  F   UNL     1       1.298   2.605  22.022  0.00  0.00    +0.000 F 
ATOM     13  C   UNL     1       2.988   2.539  20.390  0.00  0.00    +0.000 A 
ATOM     14  C   UNL     1       3.786   3.220  19.470  0.00  0.00    +0.000 A 
ATOM     15  C   UNL     1       3.639   4.606  19.239  0.00  0.00    +0.000 A 
ENDBRANCH   1  15
BRANCH   5  16
ATOM     16  N   UNL     1       7.305   4.867  16.688  0.00  0.00    +0.000 NA
ATOM     17  H   UNL     1       7.069   3.953  17.073  0.00  0.00    +0.000 HD
BRANCH  16  18
ATOM     18  C   UNL     1       6.832   4.980  15.295  0.00  0.00    +0.000 C 
ATOM     19  C   UNL     1       5.994   3.738  14.946  0.00  0.00    +0.000 C 
ATOM     20  C   UNL     1       5.615   3.712  13.468  0.00  0.00    +0.000 C 
ATOM     21  O   UNL     1       6.758   3.854  12.631  0.00  0.00    +0.000 OA
ATOM     22  C   UNL     1       7.433   5.087  12.855  0.00  0.00    +0.000 C 
ATOM     23  C   UNL     1       7.968   5.148  14.277  0.00  0.00    +0.000 C 
ENDBRANCH  16  18
ENDBRANCH   5  16
TORSDOF 3
ENDMDL
MODEL 7
REMARK VINA RESULT:      -6.9      1.559      1.778
REMARK  Name = 
REMARK  4 active torsions:
REMARK  status: ('A' for Active; 'I' for Inactive)
REMARK    1  A    between atoms: C_1  and  C_2
REMARK    2  A    between atoms: C_8  and  N_9
REMARK    3  A    between atoms: C_13  and  N_14
REMARK    4  A    between atoms: N_14  and  C_15
REMARK                            x       y       z     vdW  Elec       q    Type
REMARK                         _______ _______ _______ _____ _____    ______ ____
ROOT
ATOM      1  N   UNL     1       4.891   4.426  18.607  0.00  0.00    +0.000 N 
ATOM      2  C   UNL     1       6.015   5.064  19.303  0.00  0.00    +0.000 C 
ATOM      3  C   UNL     1       7.003   5.757  18.385  0.00  0.00    +0.000 C 
ATOM      4  C   UNL     1       7.461   4.756  17.343  0.00  0.00    +0.000 C 
ATOM      5  C   UNL     1       6.271   4.291  16.501  0.00  0.00    +0.000 C 
ATOM      6  C   UNL     1       5.133   3.727  17.405  0.00  0.00    +0.000 C 
ATOM      7  O   UNL     1       4.474   2.752  17.033  0.00  0.00    +0.000 OA
ENDROOT
BRANCH   1  15
ATOM      8  C   UNL     1       4.963   1.957  20.367  0.00  0.00    +0.000 C 
ATOM      9  C   UNL     1       3.796   2.902  20.262  0.00  0.00    +0.000 A 
ATOM     10  C   UNL     1       2.619   2.526  20.942  0.00  0.00    +0.000 A 
ATOM     11  C   UNL     1       1.455   3.275  20.830  0.00  0.00    +0.000 A 
ATOM     12  F   UNL     1       0.345   2.884  21.469  0.00  0.00    +0.000 F 
ATOM     13  C   UNL     1       1.421   4.411  20.044  0.00  0.00    +0.000 A 
ATOM     14  C   UNL     1       2.569   4.787  19.344  0.00  0.00    +0.000 A 
ATOM     15  C   UNL     1       3.768   4.044  19.427  0.00  0.00    +0.000 A 
ENDBRANCH   1  15
BRANCH   5  16
ATOM     16  N   UNL     1       5.714   5.339  15.613  0.00  0.00    +0.000 NA
ATOM     17  H   UNL     1       6.056   6.258  15.892  0.00  0.00    +0.000 HD
BRANCH  16  18
ATOM     18  C   UNL     1       5.907   5.131  14.165  0.00  0.00    +0.000 C 
ATOM     19  C   UNL     1       5.255   3.799  13.758  0.00  0.00    +0.000 C 
ATOM     20  C   UNL     1       5.564   3.442  12.306  0.00  0.00    +0.000 C 
ATOM     21  O   UNL     1       6.964   3.468  12.046  0.00  0.00    +0.000 OA
ATOM     22  C   UNL     1       7.524   4.757  12.275  0.00  0.00    +0.000 C 
ATOM     23  C   UNL     1       7.381   5.145  13.739  0.00  0.00    +0.000 C 
ENDBRANCH  16  18
ENDBRANCH   5  16
TORSDOF 3
ENDMDL
MODEL 8
REMARK VINA RESULT:      -6.8      8.003     10.615
REMARK  Name = 
REMARK  4 active torsions:
REMARK  status: ('A' for Active; 'I' for Inactive)
REMARK    1  A    between atoms: C_1  and  C_2
REMARK    2  A    between atoms: C_8  and  N_9
REMARK    3  A    between atoms: C_13  and  N_14
REMARK    4  A    between atoms: N_14  and  C_15
REMARK                            x       y       z     vdW  Elec       q    Type
REMARK                         _______ _______ _______ _____ _____    ______ ____
ROOT
ATOM      1  N   UNL     1       0.632  10.850  19.097  0.00  0.00    +0.000 N 
ATOM      2  C   UNL     1       1.541  11.922  18.674  0.00  0.00    +0.000 C 
ATOM      3  C   UNL     1       1.040  13.320  18.985  0.00  0.00    +0.000 C 
ATOM      4  C   UNL     1      -0.346  13.468  18.390  0.00  0.00    +0.000 C 
ATOM      5  C   UNL     1      -1.304  12.463  19.034  0.00  0.00    +0.000 C 
ATOM      6  C   UNL     1      -0.757  11.008  18.908  0.00  0.00    +0.000 C 
ATOM      7  O   UNL     1      -1.533  10.072  18.699  0.00  0.00    +0.000 OA
ENDROOT
BRANCH   1  15
ATOM      8  C   UNL     1       0.764   9.232  21.659  0.00  0.00    +0.000 C 
ATOM      9  C   UNL     1       1.243   8.751  20.315  0.00  0.00    +0.000 A 
ATOM     10  C   UNL     1       1.909   7.508  20.293  0.00  0.00    +0.000 A 
ATOM     11  C   UNL     1       2.476   7.019  19.123  0.00  0.00    +0.000 A 
ATOM     12  F   UNL     1       3.122   5.846  19.134  0.00  0.00    +0.000 F 
ATOM     13  C   UNL     1       2.403   7.743  17.948  0.00  0.00    +0.000 A 
ATOM     14  C   UNL     1       1.770   8.987  17.955  0.00  0.00    +0.000 A 
ATOM     15  C   UNL     1       1.189   9.519  19.128  0.00  0.00    +0.000 A 
ENDBRANCH   1  15
BRANCH   5  16
ATOM     16  N   UNL     1      -1.610  12.747  20.457  0.00  0.00    +0.000 NA
ATOM     17  H   UNL     1      -0.977  13.458  20.821  0.00  0.00    +0.000 HD
BRANCH  16  18
ATOM     18  C   UNL     1      -3.011  13.094  20.762  0.00  0.00    +0.000 C 
ATOM     19  C   UNL     1      -3.317  12.713  22.220  0.00  0.00    +0.000 C 
ATOM     20  C   UNL     1      -4.797  12.890  22.550  0.00  0.00    +0.000 C 
ATOM     21  O   UNL     1      -5.627  12.203  21.619  0.00  0.00    +0.000 OA
ATOM     22  C   UNL     1      -5.447  12.682  20.290  0.00  0.00    +0.000 C 
ATOM     23  C   UNL     1      -4.023  12.424  19.822  0.00  0.00    +0.000 C 
ENDBRANCH  16  18
ENDBRANCH   5  16
TORSDOF 3
ENDMDL
MODEL 9
REMARK VINA RESULT:      -6.7      1.773      2.276
REMARK  Name = 
REMARK  4 active torsions:
REMARK  status: ('A' for Active; 'I' for Inactive)
REMARK    1  A    between atoms: C_1  and  C_2
REMARK    2  A    between atoms: C_8  and  N_9
REMARK    3  A    between atoms: C_13  and  N_14
REMARK    4  A    between atoms: N_14  and  C_15
REMARK                            x       y       z     vdW  Elec       q    Type
REMARK                         _______ _______ _______ _____ _____    ______ ____
ROOT
ATOM      1  N   UNL     1       5.095   5.383  18.441  0.00  0.00    +0.000 N 
ATOM      2  C   UNL     1       6.372   5.423  19.164  0.00  0.00    +0.000 C 
ATOM      3  C   UNL     1       7.593   5.470  18.267  0.00  0.00    +0.000 C 
ATOM      4  C   UNL     1       7.513   4.308  17.298  0.00  0.00    +0.000 C 
ATOM      5  C   UNL     1       6.268   4.443  16.418  0.00  0.00    +0.000 C 
ATOM      6  C   UNL     1       4.981   4.580  17.287  0.00  0.00    +0.000 C 
ATOM      7  O   UNL     1       3.932   4.040  16.927  0.00  0.00    +0.000 OA
ENDROOT
BRANCH   1  15
ATOM      8  C   UNL     1       3.783   3.271  20.179  0.00  0.00    +0.000 C 
ATOM      9  C   UNL     1       3.302   4.692  20.044  0.00  0.00    +0.000 A 
ATOM     10  C   UNL     1       2.083   5.006  20.680  0.00  0.00    +0.000 A 
ATOM     11  C   UNL     1       1.501   6.259  20.536  0.00  0.00    +0.000 A 
ATOM     12  F   UNL     1       0.332   6.524  21.134  0.00  0.00    +0.000 F 
ATOM     13  C   UNL     1       2.103   7.231  19.761  0.00  0.00    +0.000 A 
ATOM     14  C   UNL     1       3.297   6.932  19.103  0.00  0.00    +0.000 A 
ATOM     15  C   UNL     1       3.913   5.666  19.220  0.00  0.00    +0.000 A 
ENDBRANCH   1  15
BRANCH   5  16
ATOM     16  N   UNL     1       6.329   5.568  15.455  0.00  0.00    +0.000 NA
ATOM     17  H   UNL     1       7.148   6.147  15.637  0.00  0.00    +0.000 HD
BRANCH  16  18
ATOM     18  C   UNL     1       6.257   5.204  14.027  0.00  0.00    +0.000 C 
ATOM     19  C   UNL     1       5.527   3.857  13.888  0.00  0.00    +0.000 C 
ATOM     20  C   UNL     1       5.567   3.340  12.452  0.00  0.00    +0.000 C 
ATOM     21  O   UNL     1       6.898   3.296  11.948  0.00  0.00    +0.000 OA
ATOM     22  C   UNL     1       7.505   4.584  11.933  0.00  0.00    +0.000 C 
ATOM     23  C   UNL     1       7.631   5.128  13.348  0.00  0.00    +0.000 C 
ENDBRANCH  16  18
ENDBRANCH   5  16
TORSDOF 3
ENDMDL
