MODEL 1
REMARK VINA RESULT:      -6.8      0.000      0.000
REMARK  Name = 
REMARK  10 active torsions:
REMARK  status: ('A' for Active; 'I' for Inactive)
REMARK    1  A    between atoms: C_1  and  C_2
REMARK    2  A    between atoms: C_2  and  C_3
REMARK    3  A    between atoms: C_3  and  C_4
REMARK    4  A    between atoms: C_4  and  C_5
REMARK    5  A    between atoms: C_6  and  C_7
REMARK    6  A    between atoms: C_9  and  C_10
REMARK    7  A    between atoms: C_13  and  C_14
REMARK    8  A    between atoms: C_15  and  C_16
REMARK    9  A    between atoms: C_16  and  C_17
REMARK   10  A    between atoms: C_17  and  O_19
REMARK                            x       y       z     vdW  Elec       q    Type
REMARK                         _______ _______ _______ _____ _____    ______ ____
ROOT
ATOM      1  C   UNL     1       4.432   4.276  16.919  0.00  0.00    +0.000 A 
ATOM      2  C   UNL     1       4.977   3.688  15.754  0.00  0.00    +0.000 A 
ATOM      3  C   UNL     1       5.658   4.432  14.783  0.00  0.00    +0.000 A 
ATOM      4  C   UNL     1       6.246   3.770  13.573  0.00  0.00    +0.000 C 
ATOM      5  C   UNL     1       5.789   5.805  14.961  0.00  0.00    +0.000 A 
ATOM      6  C   UNL     1       5.216   6.419  16.073  0.00  0.00    +0.000 A 
ATOM      7  C   UNL     1       4.518   5.682  17.056  0.00  0.00    +0.000 A 
ENDROOT
BRANCH   1   9
ATOM      8  C   UNL     1       2.429   3.055  17.776  0.00  0.00    +0.000 C 
ATOM      9  C   UNL     1       3.738   3.377  17.874  0.00  0.00    +0.000 C 
BRANCH   8  10
ATOM     10  C   UNL     1       1.664   2.203  18.749  0.00  0.00    +0.000 C 
BRANCH  10  11
ATOM     11  C   UNL     1       0.582   2.973  19.515  0.00  0.00    +0.000 C 
BRANCH  11  13
ATOM     12  C   UNL     1       2.188   3.316  21.464  0.00  0.00    +0.000 C 
ATOM     13  C   UNL     1       1.104   3.929  20.591  0.00  0.00    +0.000 C 
ENDBRANCH  11  13
ENDBRANCH  10  11
ENDBRANCH   8  10
ENDBRANCH   1   9
BRANCH   7  14
ATOM     14  C   UNL     1       3.853   6.527  18.071  0.00  0.00    +0.000 C 
ATOM     15  C   UNL     1       2.556   6.852  18.159  0.00  0.00    +0.000 C 
BRANCH  15  16
ATOM     16  C   UNL     1       2.020   7.768  19.227  0.00  0.00    +0.000 C 
BRANCH  16  17
ATOM     17  C   UNL     1       1.647   9.117  18.639  0.00  0.00    +0.000 C 
ATOM     18  O   UNL     1       1.998   9.496  17.533  0.00  0.00    +0.000 OA
BRANCH  17  19
ATOM     19  O   UNL     1       0.862   9.870  19.448  0.00  0.00    +0.000 OA
ATOM     20  H   UNL     1       0.847  10.816  19.190  0.00  0.00    +0.000 HD
ENDBRANCH  17  19
ENDBRANCH  16  17
ENDBRANCH  15  16
ENDBRANCH   7  14
TORSDOF 8
ENDMDL
MODEL 2
REMARK VINA RESULT:      -6.7      2.833      5.551
REMARK  Name = 
REMARK  10 active torsions:
REMARK  status: ('A' for Active; 'I' for Inactive)
REMARK    1  A    between atoms: C_1  and  C_2
REMARK    2  A    between atoms: C_2  and  C_3
REMARK    3  A    between atoms: C_3  and  C_4
REMARK    4  A    between atoms: C_4  and  C_5
REMARK    5  A    between atoms: C_6  and  C_7
REMARK    6  A    between atoms: C_9  and  C_10
REMARK    7  A    between atoms: C_13  and  C_14
REMARK    8  A    between atoms: C_15  and  C_16
REMARK    9  A    between atoms: C_16  and  C_17
REMARK   10  A    between atoms: C_17  and  O_19
REMARK                            x       y       z     vdW  Elec       q    Type
REMARK                         _______ _______ _______ _____ _____    ______ ____
ROOT
ATOM      1  C   UNL     1       2.053   6.969  19.780  0.00  0.00    +0.000 A 
ATOM      2  C   UNL     1       1.451   8.082  20.413  0.00  0.00    +0.000 A 
ATOM      3  C   UNL     1       1.248   9.303  19.758  0.00  0.00    +0.000 A 
ATOM      4  C   UNL     1       0.583  10.452  20.453  0.00  0.00    +0.000 C 
ATOM      5  C   UNL     1       1.670   9.434  18.440  0.00  0.00    +0.000 A 
ATOM      6  C   UNL     1       2.314   8.371  17.808  0.00  0.00    +0.000 A 
ATOM      7  C   UNL     1       2.534   7.136  18.460  0.00  0.00    +0.000 A 
ENDROOT
BRANCH   1   9
ATOM      8  C   UNL     1       1.397   4.656  20.452  0.00  0.00    +0.000 C 
ATOM      9  C   UNL     1       2.205   5.730  20.583  0.00  0.00    +0.000 C 
BRANCH   8  10
ATOM     10  C   UNL     1       1.467   3.404  21.282  0.00  0.00    +0.000 C 
BRANCH  10  11
ATOM     11  C   UNL     1       2.798   2.655  21.146  0.00  0.00    +0.000 C 
BRANCH  11  13
ATOM     12  C   UNL     1       4.612   3.157  19.428  0.00  0.00    +0.000 C 
ATOM     13  C   UNL     1       3.290   2.461  19.709  0.00  0.00    +0.000 C 
ENDBRANCH  11  13
ENDBRANCH  10  11
ENDBRANCH   8  10
ENDBRANCH   1   9
BRANCH   7  14
ATOM     14  C   UNL     1       3.365   6.194  17.681  0.00  0.00    +0.000 C 
ATOM     15  C   UNL     1       4.588   6.395  17.170  0.00  0.00    +0.000 C 
BRANCH  15  16
ATOM     16  C   UNL     1       5.304   5.354  16.350  0.00  0.00    +0.000 C 
BRANCH  16  17
ATOM     17  C   UNL     1       6.792   5.369  16.646  0.00  0.00    +0.000 C 
ATOM     18  O   UNL     1       7.538   6.283  16.333  0.00  0.00    +0.000 OA
BRANCH  17  19
ATOM     19  O   UNL     1       7.229   4.275  17.319  0.00  0.00    +0.000 OA
ATOM     20  H   UNL     1       7.757   4.502  18.113  0.00  0.00    +0.000 HD
ENDBRANCH  17  19
ENDBRANCH  16  17
ENDBRANCH  15  16
ENDBRANCH   7  14
TORSDOF 8
ENDMDL
MODEL 3
REMARK VINA RESULT:      -6.7      4.278      5.784
REMARK  Name = 
REMARK  10 active torsions:
REMARK  status: ('A' for Active; 'I' for Inactive)
REMARK    1  A    between atoms: C_1  and  C_2
REMARK    2  A    between atoms: C_2  and  C_3
REMARK    3  A    between atoms: C_3  and  C_4
REMARK    4  A    between atoms: C_4  and  C_5
REMARK    5  A    between atoms: C_6  and  C_7
REMARK    6  A    between atoms: C_9  and  C_10
REMARK    7  A    between atoms: C_13  and  C_14
REMARK    8  A    between atoms: C_15  and  C_16
REMARK    9  A    between atoms: C_16  and  C_17
REMARK   10  A    between atoms: C_17  and  O_19
REMARK                            x       y       z     vdW  Elec       q    Type
REMARK                         _______ _______ _______ _____ _____    ______ ____
ROOT
ATOM      1  C   UNL     1       5.012   4.354  17.099  0.00  0.00    +0.000 A 
ATOM      2  C   UNL     1       5.704   4.718  18.278  0.00  0.00    +0.000 A 
ATOM      3  C   UNL     1       6.957   5.342  18.255  0.00  0.00    +0.000 A 
ATOM      4  C   UNL     1       7.648   5.737  19.525  0.00  0.00    +0.000 C 
ATOM      5  C   UNL     1       7.554   5.600  17.027  0.00  0.00    +0.000 A 
ATOM      6  C   UNL     1       6.920   5.205  15.849  0.00  0.00    +0.000 A 
ATOM      7  C   UNL     1       5.660   4.566  15.858  0.00  0.00    +0.000 A 
ENDROOT
BRANCH   1   9
ATOM      8  C   UNL     1       2.603   4.337  17.754  0.00  0.00    +0.000 C 
ATOM      9  C   UNL     1       3.689   3.703  17.259  0.00  0.00    +0.000 C 
BRANCH   8  10
ATOM     10  C   UNL     1       1.260   3.710  17.996  0.00  0.00    +0.000 C 
BRANCH  10  11
ATOM     11  C   UNL     1       1.277   2.633  19.088  0.00  0.00    +0.000 C 
BRANCH  11  13
ATOM     12  C   UNL     1       2.288   3.034  21.393  0.00  0.00    +0.000 C 
ATOM     13  C   UNL     1       1.054   3.150  20.512  0.00  0.00    +0.000 C 
ENDBRANCH  11  13
ENDBRANCH  10  11
ENDBRANCH   8  10
ENDBRANCH   1   9
BRANCH   7  14
ATOM     14  C   UNL     1       5.228   4.088  14.527  0.00  0.00    +0.000 C 
ATOM     15  C   UNL     1       5.990   3.800  13.463  0.00  0.00    +0.000 C 
BRANCH  15  16
ATOM     16  C   UNL     1       5.407   3.365  12.143  0.00  0.00    +0.000 C 
BRANCH  16  17
ATOM     17  C   UNL     1       6.141   2.151  11.606  0.00  0.00    +0.000 C 
ATOM     18  O   UNL     1       5.586   1.119  11.264  0.00  0.00    +0.000 OA
BRANCH  17  19
ATOM     19  O   UNL     1       7.484   2.316  11.516  0.00  0.00    +0.000 OA
ATOM     20  H   UNL     1       7.793   3.150  11.929  0.00  0.00    +0.000 HD
ENDBRANCH  17  19
ENDBRANCH  16  17
ENDBRANCH  15  16
ENDBRANCH   7  14
TORSDOF 8
ENDMDL
MODEL 4
REMARK VINA RESULT:      -6.6      1.242      1.496
REMARK  Name = 
REMARK  10 active torsions:
REMARK  status: ('A' for Active; 'I' for Inactive)
REMARK    1  A    between atoms: C_1  and  C_2
REMARK    2  A    between atoms: C_2  and  C_3
REMARK    3  A    between atoms: C_3  and  C_4
REMARK    4  A    between atoms: C_4  and  C_5
REMARK    5  A    between atoms: C_6  and  C_7
REMARK    6  A    between atoms: C_9  and  C_10
REMARK    7  A    between atoms: C_13  and  C_14
REMARK    8  A    between atoms: C_15  and  C_16
REMARK    9  A    between atoms: C_16  and  C_17
REMARK   10  A    between atoms: C_17  and  O_19
REMARK                            x       y       z     vdW  Elec       q    Type
REMARK                         _______ _______ _______ _____ _____    ______ ____
ROOT
ATOM      1  C   UNL     1       4.095   4.713  17.179  0.00  0.00    +0.000 A 
ATOM      2  C   UNL     1       4.696   3.978  16.130  0.00  0.00    +0.000 A 
ATOM      3  C   UNL     1       5.526   4.574  15.172  0.00  0.00    +0.000 A 
ATOM      4  C   UNL     1       6.166   3.759  14.089  0.00  0.00    +0.000 C 
ATOM      5  C   UNL     1       5.755   5.943  15.243  0.00  0.00    +0.000 A 
ATOM      6  C   UNL     1       5.135   6.701  16.235  0.00  0.00    +0.000 A 
ATOM      7  C   UNL     1       4.287   6.115  17.202  0.00  0.00    +0.000 A 
ENDROOT
BRANCH   1   9
ATOM      8  C   UNL     1       1.986   3.554  17.844  0.00  0.00    +0.000 C 
ATOM      9  C   UNL     1       3.242   3.962  18.133  0.00  0.00    +0.000 C 
BRANCH   8  10
ATOM     10  C   UNL     1       1.057   2.849  18.792  0.00  0.00    +0.000 C 
BRANCH  10  11
ATOM     11  C   UNL     1       0.842   3.603  20.110  0.00  0.00    +0.000 C 
BRANCH  11  13
ATOM     12  C   UNL     1       2.752   2.655  21.505  0.00  0.00    +0.000 C 
ATOM     13  C   UNL     1       1.248   2.836  21.371  0.00  0.00    +0.000 C 
ENDBRANCH  11  13
ENDBRANCH  10  11
ENDBRANCH   8  10
ENDBRANCH   1   9
BRANCH   7  14
ATOM     14  C   UNL     1       3.605   7.100  18.069  0.00  0.00    +0.000 C 
ATOM     15  C   UNL     1       2.292   7.355  18.158  0.00  0.00    +0.000 C 
BRANCH  15  16
ATOM     16  C   UNL     1       1.735   8.428  19.056  0.00  0.00    +0.000 C 
BRANCH  16  17
ATOM     17  C   UNL     1       1.695   7.955  20.497  0.00  0.00    +0.000 C 
ATOM     18  O   UNL     1       1.333   8.654  21.431  0.00  0.00    +0.000 OA
BRANCH  17  19
ATOM     19  O   UNL     1       2.078   6.666  20.662  0.00  0.00    +0.000 OA
ATOM     20  H   UNL     1       1.410   6.129  21.140  0.00  0.00    +0.000 HD
ENDBRANCH  17  19
ENDBRANCH  16  17
ENDBRANCH  15  16
ENDBRANCH   7  14
TORSDOF 8
ENDMDL
MODEL 5
REMARK VINA RESULT:      -6.6      3.429      6.409
REMARK  Name = 
REMARK  10 active torsions:
REMARK  status: ('A' for Active; 'I' for Inactive)
REMARK    1  A    between atoms: C_1  and  C_2
REMARK    2  A    between atoms: C_2  and  C_3
REMARK    3  A    between atoms: C_3  and  C_4
REMARK    4  A    between atoms: C_4  and  C_5
REMARK    5  A    between atoms: C_6  and  C_7
REMARK    6  A    between atoms: C_9  and  C_10
REMARK    7  A    between atoms: C_13  and  C_14
REMARK    8  A    between atoms: C_15  and  C_16
REMARK    9  A    between atoms: C_16  and  C_17
REMARK   10  A    between atoms: C_17  and  O_19
REMARK                            x       y       z     vdW  Elec       q    Type
REMARK                         _______ _______ _______ _____ _____    ______ ____
ROOT
ATOM      1  C   UNL     1       6.026   5.218  16.182  0.00  0.00    +0.000 A 
ATOM      2  C   UNL     1       6.838   6.345  16.445  0.00  0.00    +0.000 A 
ATOM      3  C   UNL     1       7.248   6.693  17.738  0.00  0.00    +0.000 A 
ATOM      4  C   UNL     1       8.131   7.881  17.975  0.00  0.00    +0.000 C 
ATOM      5  C   UNL     1       6.827   5.912  18.807  0.00  0.00    +0.000 A 
ATOM      6  C   UNL     1       5.983   4.825  18.584  0.00  0.00    +0.000 A 
ATOM      7  C   UNL     1       5.554   4.468  17.286  0.00  0.00    +0.000 A 
ENDROOT
BRANCH   1   9
ATOM      8  C   UNL     1       5.999   3.820  14.113  0.00  0.00    +0.000 C 
ATOM      9  C   UNL     1       5.665   4.954  14.767  0.00  0.00    +0.000 C 
BRANCH   8  10
ATOM     10  C   UNL     1       5.715   3.530  12.666  0.00  0.00    +0.000 C 
BRANCH  10  11
ATOM     11  C   UNL     1       6.967   3.557  11.781  0.00  0.00    +0.000 C 
BRANCH  11  13
ATOM     12  C   UNL     1       6.223   1.198  11.168  0.00  0.00    +0.000 C 
ATOM     13  C   UNL     1       7.358   2.210  11.167  0.00  0.00    +0.000 C 
ENDBRANCH  11  13
ENDBRANCH  10  11
ENDBRANCH   8  10
ENDBRANCH   1   9
BRANCH   7  14
ATOM     14  C   UNL     1       4.544   3.388  17.271  0.00  0.00    +0.000 C 
ATOM     15  C   UNL     1       3.344   3.367  17.869  0.00  0.00    +0.000 C 
BRANCH  15  16
ATOM     16  C   UNL     1       2.430   2.172  17.810  0.00  0.00    +0.000 C 
BRANCH  16  17
ATOM     17  C   UNL     1       1.432   2.202  18.952  0.00  0.00    +0.000 C 
ATOM     18  O   UNL     1       1.749   2.257  20.130  0.00  0.00    +0.000 OA
BRANCH  17  19
ATOM     19  O   UNL     1       0.137   2.183  18.551  0.00  0.00    +0.000 OA
ATOM     20  H   UNL     1      -0.269   1.293  18.615  0.00  0.00    +0.000 HD
ENDBRANCH  17  19
ENDBRANCH  16  17
ENDBRANCH  15  16
ENDBRANCH   7  14
TORSDOF 8
ENDMDL
MODEL 6
REMARK VINA RESULT:      -6.6      4.394      5.864
REMARK  Name = 
REMARK  10 active torsions:
REMARK  status: ('A' for Active; 'I' for Inactive)
REMARK    1  A    between atoms: C_1  and  C_2
REMARK    2  A    between atoms: C_2  and  C_3
REMARK    3  A    between atoms: C_3  and  C_4
REMARK    4  A    between atoms: C_4  and  C_5
REMARK    5  A    between atoms: C_6  and  C_7
REMARK    6  A    between atoms: C_9  and  C_10
REMARK    7  A    between atoms: C_13  and  C_14
REMARK    8  A    between atoms: C_15  and  C_16
REMARK    9  A    between atoms: C_16  and  C_17
REMARK   10  A    between atoms: C_17  and  O_19
REMARK                            x       y       z     vdW  Elec       q    Type
REMARK                         _______ _______ _______ _____ _____    ______ ____
ROOT
ATOM      1  C   UNL     1       5.161   4.236  16.938  0.00  0.00    +0.000 A 
ATOM      2  C   UNL     1       5.774   4.567  18.169  0.00  0.00    +0.000 A 
ATOM      3  C   UNL     1       6.900   5.395  18.251  0.00  0.00    +0.000 A 
ATOM      4  C   UNL     1       7.507   5.746  19.576  0.00  0.00    +0.000 C 
ATOM      5  C   UNL     1       7.448   5.898  17.077  0.00  0.00    +0.000 A 
ATOM      6  C   UNL     1       6.897   5.547  15.846  0.00  0.00    +0.000 A 
ATOM      7  C   UNL     1       5.767   4.704  15.748  0.00  0.00    +0.000 A 
ENDROOT
BRANCH   1   9
ATOM      8  C   UNL     1       3.416   2.914  18.139  0.00  0.00    +0.000 C 
ATOM      9  C   UNL     1       3.969   3.353  16.987  0.00  0.00    +0.000 C 
BRANCH   8  10
ATOM     10  C   UNL     1       2.252   1.970  18.245  0.00  0.00    +0.000 C 
BRANCH  10  11
ATOM     11  C   UNL     1       0.998   2.612  18.851  0.00  0.00    +0.000 C 
BRANCH  11  13
ATOM     12  C   UNL     1       1.222   4.490  20.560  0.00  0.00    +0.000 C 
ATOM     13  C   UNL     1       1.113   2.991  20.330  0.00  0.00    +0.000 C 
ENDBRANCH  11  13
ENDBRANCH  10  11
ENDBRANCH   8  10
ENDBRANCH   1   9
BRANCH   7  14
ATOM     14  C   UNL     1       5.429   4.324  14.359  0.00  0.00    +0.000 C 
ATOM     15  C   UNL     1       6.109   3.519  13.532  0.00  0.00    +0.000 C 
BRANCH  15  16
ATOM     16  C   UNL     1       5.671   3.255  12.115  0.00  0.00    +0.000 C 
BRANCH  16  17
ATOM     17  C   UNL     1       6.469   2.116  11.509  0.00  0.00    +0.000 C 
ATOM     18  O   UNL     1       7.603   2.239  11.074  0.00  0.00    +0.000 OA
BRANCH  17  19
ATOM     19  O   UNL     1       5.818   0.927  11.510  0.00  0.00    +0.000 OA
ATOM     20  H   UNL     1       5.540   0.647  12.408  0.00  0.00    +0.000 HD
ENDBRANCH  17  19
ENDBRANCH  16  17
ENDBRANCH  15  16
ENDBRANCH   7  14
TORSDOF 8
ENDMDL
MODEL 7
REMARK VINA RESULT:      -6.6      0.884      1.415
REMARK  Name = 
REMARK  10 active torsions:
REMARK  status: ('A' for Active; 'I' for Inactive)
REMARK    1  A    between atoms: C_1  and  C_2
REMARK    2  A    between atoms: C_2  and  C_3
REMARK    3  A    between atoms: C_3  and  C_4
REMARK    4  A    between atoms: C_4  and  C_5
REMARK    5  A    between atoms: C_6  and  C_7
REMARK    6  A    between atoms: C_9  and  C_10
REMARK    7  A    between atoms: C_13  and  C_14
REMARK    8  A    between atoms: C_15  and  C_16
REMARK    9  A    between atoms: C_16  and  C_17
REMARK   10  A    between atoms: C_17  and  O_19
REMARK                            x       y       z     vdW  Elec       q    Type
REMARK                         _______ _______ _______ _____ _____    ______ ____
ROOT
ATOM      1  C   UNL     1       4.278   4.375  17.160  0.00  0.00    +0.000 A 
ATOM      2  C   UNL     1       4.921   3.784  16.048  0.00  0.00    +0.000 A 
ATOM      3  C   UNL     1       5.594   4.537  15.078  0.00  0.00    +0.000 A 
ATOM      4  C   UNL     1       6.287   3.873  13.927  0.00  0.00    +0.000 C 
ATOM      5  C   UNL     1       5.618   5.921  15.203  0.00  0.00    +0.000 A 
ATOM      6  C   UNL     1       4.948   6.535  16.260  0.00  0.00    +0.000 A 
ATOM      7  C   UNL     1       4.256   5.789  17.240  0.00  0.00    +0.000 A 
ENDROOT
BRANCH   1   9
ATOM      8  C   UNL     1       4.045   3.252  19.377  0.00  0.00    +0.000 C 
ATOM      9  C   UNL     1       3.603   3.466  18.119  0.00  0.00    +0.000 C 
BRANCH   8  10
ATOM     10  C   UNL     1       3.439   2.296  20.366  0.00  0.00    +0.000 C 
BRANCH  10  11
ATOM     11  C   UNL     1       2.671   2.991  21.496  0.00  0.00    +0.000 C 
BRANCH  11  13
ATOM     12  C   UNL     1       0.831   4.325  20.342  0.00  0.00    +0.000 C 
ATOM     13  C   UNL     1       2.119   4.377  21.148  0.00  0.00    +0.000 C 
ENDBRANCH  11  13
ENDBRANCH  10  11
ENDBRANCH   8  10
ENDBRANCH   1   9
BRANCH   7  14
ATOM     14  C   UNL     1       3.483   6.622  18.186  0.00  0.00    +0.000 C 
ATOM     15  C   UNL     1       2.562   7.554  17.906  0.00  0.00    +0.000 C 
BRANCH  15  16
ATOM     16  C   UNL     1       1.882   8.368  18.976  0.00  0.00    +0.000 C 
BRANCH  16  17
ATOM     17  C   UNL     1       1.176   9.567  18.372  0.00  0.00    +0.000 C 
ATOM     18  O   UNL     1       0.065   9.942  18.710  0.00  0.00    +0.000 OA
BRANCH  17  19
ATOM     19  O   UNL     1       1.901  10.212  17.424  0.00  0.00    +0.000 OA
ATOM     20  H   UNL     1       2.362  11.005  17.772  0.00  0.00    +0.000 HD
ENDBRANCH  17  19
ENDBRANCH  16  17
ENDBRANCH  15  16
ENDBRANCH   7  14
TORSDOF 8
ENDMDL
MODEL 8
REMARK VINA RESULT:      -6.5      3.342      6.176
REMARK  Name = 
REMARK  10 active torsions:
REMARK  status: ('A' for Active; 'I' for Inactive)
REMARK    1  A    between atoms: C_1  and  C_2
REMARK    2  A    between atoms: C_2  and  C_3
REMARK    3  A    between atoms: C_3  and  C_4
REMARK    4  A    between atoms: C_4  and  C_5
REMARK    5  A    between atoms: C_6  and  C_7
REMARK    6  A    between atoms: C_9  and  C_10
REMARK    7  A    between atoms: C_13  and  C_14
REMARK    8  A    between atoms: C_15  and  C_16
REMARK    9  A    between atoms: C_16  and  C_17
REMARK   10  A    between atoms: C_17  and  O_19
REMARK                            x       y       z     vdW  Elec       q    Type
REMARK                         _______ _______ _______ _____ _____    ______ ____
ROOT
ATOM      1  C   UNL     1       6.348   4.728  16.171  0.00  0.00    +0.000 A 
ATOM      2  C   UNL     1       7.104   5.916  16.306  0.00  0.00    +0.000 A 
ATOM      3  C   UNL     1       7.070   6.703  17.465  0.00  0.00    +0.000 A 
ATOM      4  C   UNL     1       7.906   7.942  17.582  0.00  0.00    +0.000 C 
ATOM      5  C   UNL     1       6.251   6.311  18.517  0.00  0.00    +0.000 A 
ATOM      6  C   UNL     1       5.455   5.173  18.391  0.00  0.00    +0.000 A 
ATOM      7  C   UNL     1       5.471   4.376  17.225  0.00  0.00    +0.000 A 
ENDROOT
BRANCH   1   9
ATOM      8  C   UNL     1       6.763   4.573  13.714  0.00  0.00    +0.000 C 
ATOM      9  C   UNL     1       6.475   3.983  14.895  0.00  0.00    +0.000 C 
BRANCH   8  10
ATOM     10  C   UNL     1       6.840   3.877  12.385  0.00  0.00    +0.000 C 
BRANCH  10  11
ATOM     11  C   UNL     1       5.622   2.995  12.085  0.00  0.00    +0.000 C 
BRANCH  11  13
ATOM     12  C   UNL     1       3.491   2.982  10.687  0.00  0.00    +0.000 C 
ATOM     13  C   UNL     1       4.358   3.753  11.669  0.00  0.00    +0.000 C 
ENDBRANCH  11  13
ENDBRANCH  10  11
ENDBRANCH   8  10
ENDBRANCH   1   9
BRANCH   7  14
ATOM     14  C   UNL     1       4.449   3.308  17.222  0.00  0.00    +0.000 C 
ATOM     15  C   UNL     1       3.331   3.228  17.958  0.00  0.00    +0.000 C 
BRANCH  15  16
ATOM     16  C   UNL     1       2.396   2.049  17.887  0.00  0.00    +0.000 C 
BRANCH  16  17
ATOM     17  C   UNL     1       1.257   2.207  18.877  0.00  0.00    +0.000 C 
ATOM     18  O   UNL     1       0.082   2.280  18.553  0.00  0.00    +0.000 OA
BRANCH  17  19
ATOM     19  O   UNL     1       1.655   2.239  20.172  0.00  0.00    +0.000 OA
ATOM     20  H   UNL     1       1.367   1.450  20.678  0.00  0.00    +0.000 HD
ENDBRANCH  17  19
ENDBRANCH  16  17
ENDBRANCH  15  16
ENDBRANCH   7  14
TORSDOF 8
ENDMDL
MODEL 9
REMARK VINA RESULT:      -6.5      3.385      6.638
REMARK  Name = 
REMARK  10 active torsions:
REMARK  status: ('A' for Active; 'I' for Inactive)
REMARK    1  A    between atoms: C_1  and  C_2
REMARK    2  A    between atoms: C_2  and  C_3
REMARK    3  A    between atoms: C_3  and  C_4
REMARK    4  A    between atoms: C_4  and  C_5
REMARK    5  A    between atoms: C_6  and  C_7
REMARK    6  A    between atoms: C_9  and  C_10
REMARK    7  A    between atoms: C_13  and  C_14
REMARK    8  A    between atoms: C_15  and  C_16
REMARK    9  A    between atoms: C_16  and  C_17
REMARK   10  A    between atoms: C_17  and  O_19
REMARK                            x       y       z     vdW  Elec       q    Type
REMARK                         _______ _______ _______ _____ _____    ______ ____
ROOT
ATOM      1  C   UNL     1       4.263   4.765  18.458  0.00  0.00    +0.000 A 
ATOM      2  C   UNL     1       3.481   4.660  19.633  0.00  0.00    +0.000 A 
ATOM      3  C   UNL     1       2.411   3.764  19.748  0.00  0.00    +0.000 A 
ATOM      4  C   UNL     1       1.622   3.662  21.018  0.00  0.00    +0.000 C 
ATOM      5  C   UNL     1       2.092   2.958  18.661  0.00  0.00    +0.000 A 
ATOM      6  C   UNL     1       2.811   3.077  17.473  0.00  0.00    +0.000 A 
ATOM      7  C   UNL     1       3.887   3.983  17.339  0.00  0.00    +0.000 A 
ENDROOT
BRANCH   1   9
ATOM      8  C   UNL     1       6.650   5.428  18.763  0.00  0.00    +0.000 C 
ATOM      9  C   UNL     1       5.373   5.749  18.465  0.00  0.00    +0.000 C 
BRANCH   8  10
ATOM     10  C   UNL     1       7.798   6.394  18.848  0.00  0.00    +0.000 C 
BRANCH  10  11
ATOM     11  C   UNL     1       7.929   7.295  17.614  0.00  0.00    +0.000 C 
BRANCH  11  13
ATOM     12  C   UNL     1       8.677   9.609  18.378  0.00  0.00    +0.000 C 
ATOM     13  C   UNL     1       7.539   8.759  17.834  0.00  0.00    +0.000 C 
ENDBRANCH  11  13
ENDBRANCH  10  11
ENDBRANCH   8  10
ENDBRANCH   1   9
BRANCH   7  14
ATOM     14  C   UNL     1       4.420   4.073  15.963  0.00  0.00    +0.000 C 
ATOM     15  C   UNL     1       5.673   3.850  15.543  0.00  0.00    +0.000 C 
BRANCH  15  16
ATOM     16  C   UNL     1       6.090   4.027  14.107  0.00  0.00    +0.000 C 
BRANCH  16  17
ATOM     17  C   UNL     1       7.244   5.007  13.999  0.00  0.00    +0.000 C 
ATOM     18  O   UNL     1       7.701   5.403  12.939  0.00  0.00    +0.000 OA
BRANCH  17  19
ATOM     19  O   UNL     1       7.719   5.429  15.196  0.00  0.00    +0.000 OA
ATOM     20  H   UNL     1       8.155   4.714  15.707  0.00  0.00    +0.000 HD
ENDBRANCH  17  19
ENDBRANCH  16  17
ENDBRANCH  15  16
ENDBRANCH   7  14
TORSDOF 8
ENDMDL
