MODEL 1
REMARK VINA RESULT:      -9.1      0.000      0.000
REMARK  Name = 
REMARK  7 active torsions:
REMARK  status: ('A' for Active; 'I' for Inactive)
REMARK    1  A    between atoms: C_1  and  C_2
REMARK    2  A    between atoms: C_2  and  C_3
REMARK    3  A    between atoms: C_2  and  C_4
REMARK    4  A    between atoms: C_2  and  C_11
REMARK    5  A    between atoms: C_23  and  C_24
REMARK    6  A    between atoms: C_24  and  C_25
REMARK    7  A    between atoms: C_28  and  C_29
REMARK                            x       y       z     vdW  Elec       q    Type
REMARK                         _______ _______ _______ _____ _____    ______ ____
ROOT
ATOM      1  C   UNL     1       1.053   9.498  19.851  0.00  0.00    +0.000 A 
ATOM      2  C   UNL     1       0.658   8.810  21.015  0.00  0.00    +0.000 A 
ATOM      3  C   UNL     1       1.002   7.469  21.250  0.00  0.00    +0.000 A 
ATOM      4  C   UNL     1       1.780   6.835  20.280  0.00  0.00    +0.000 A 
ATOM      5  C   UNL     1       2.193   7.474  19.115  0.00  0.00    +0.000 A 
ATOM      6  C   UNL     1       1.828   8.807  18.894  0.00  0.00    +0.000 A 
ATOM      7  N   UNL     1       2.951   6.643  18.332  0.00  0.00    +0.000 NA
ATOM      8  C   UNL     1       3.101   5.541  19.039  0.00  0.00    +0.000 A 
ATOM      9  N   UNL     1       2.338   5.590  20.179  0.00  0.00    +0.000 N 
ATOM     10  C   UNL     1       2.269   4.501  21.129  0.00  0.00    +0.000 C 
ATOM     11  C   UNL     1       2.757   3.195  20.492  0.00  0.00    +0.000 C 
ATOM     12  N   UNL     1       4.049   3.373  19.827  0.00  0.00    +0.000 NA
ATOM     13  C   UNL     1       3.985   4.364  18.721  0.00  0.00    +0.000 C 
ATOM     14  H   UNL     1       4.392   2.488  19.459  0.00  0.00    +0.000 HD
ENDROOT
BRANCH   1  16
ATOM     15  C   UNL     1       1.297  11.320  18.221  0.00  0.00    +0.000 C 
ATOM     16  C   UNL     1       0.717  10.984  19.618  0.00  0.00    +0.000 C 
ATOM     17  C   UNL     1       1.351  11.971  20.619  0.00  0.00    +0.000 C 
BRANCH  16  18
ATOM     18  C   UNL     1      -0.818  11.262  19.618  0.00  0.00    +0.000 C 
ATOM     19  O   UNL     1      -1.326  11.971  20.494  0.00  0.00    +0.000 OA
ATOM     20  N   UNL     1      -1.617  10.700  18.637  0.00  0.00    +0.000 N 
ATOM     21  C   UNL     1      -1.259   9.825  17.533  0.00  0.00    +0.000 C 
ATOM     22  C   UNL     1      -2.235  10.218  16.439  0.00  0.00    +0.000 C 
ATOM     23  C   UNL     1      -3.513  10.506  17.216  0.00  0.00    +0.000 C 
ATOM     24  C   UNL     1      -3.026  11.058  18.554  0.00  0.00    +0.000 C 
ENDBRANCH  16  18
ENDBRANCH   1  16
BRANCH  13  25
ATOM     25  C   UNL     1       5.412   4.847  18.321  0.00  0.00    +0.000 C 
BRANCH  25  26
ATOM     26  C   UNL     1       5.676   4.803  16.826  0.00  0.00    +0.000 A 
ATOM     27  C   UNL     1       4.715   4.263  15.961  0.00  0.00    +0.000 A 
ATOM     28  C   UNL     1       5.027   4.009  14.625  0.00  0.00    +0.000 A 
ATOM     29  C   UNL     1       6.303   4.310  14.137  0.00  0.00    +0.000 A 
ATOM     30  C   UNL     1       7.237   4.933  14.971  0.00  0.00    +0.000 A 
ATOM     31  C   UNL     1       6.923   5.181  16.310  0.00  0.00    +0.000 A 
BRANCH  29  32
ATOM     32  C   UNL     1       6.707   3.881  12.769  0.00  0.00    +0.000 C 
ATOM     33  N   UNL     1       7.477   4.584  12.001  0.00  0.00    +0.000 NA
ATOM     34  N   UNL     1       6.225   2.716  12.250  0.00  0.00    +0.000 N 
ATOM     35  H   UNL     1       7.813   5.422  12.482  0.00  0.00    +0.000 HD
ATOM     36  H   UNL     1       5.281   2.468  12.523  0.00  0.00    +0.000 HD
ATOM     37  H   UNL     1       6.365   2.682  11.245  0.00  0.00    +0.000 HD
ENDBRANCH  29  32
ENDBRANCH  25  26
ENDBRANCH  13  25
TORSDOF 5
ENDMDL
MODEL 2
REMARK VINA RESULT:      -9.1      2.946      9.380
REMARK  Name = 
REMARK  7 active torsions:
REMARK  status: ('A' for Active; 'I' for Inactive)
REMARK    1  A    between atoms: C_1  and  C_2
REMARK    2  A    between atoms: C_2  and  C_3
REMARK    3  A    between atoms: C_2  and  C_4
REMARK    4  A    between atoms: C_2  and  C_11
REMARK    5  A    between atoms: C_23  and  C_24
REMARK    6  A    between atoms: C_24  and  C_25
REMARK    7  A    between atoms: C_28  and  C_29
REMARK                            x       y       z     vdW  Elec       q    Type
REMARK                         _______ _______ _______ _____ _____    ______ ____
ROOT
ATOM      1  C   UNL     1       2.769   4.867  18.932  0.00  0.00    +0.000 A 
ATOM      2  C   UNL     1       2.198   4.710  20.210  0.00  0.00    +0.000 A 
ATOM      3  C   UNL     1       1.642   5.786  20.922  0.00  0.00    +0.000 A 
ATOM      4  C   UNL     1       1.659   7.034  20.299  0.00  0.00    +0.000 A 
ATOM      5  C   UNL     1       2.211   7.236  19.039  0.00  0.00    +0.000 A 
ATOM      6  C   UNL     1       2.772   6.154  18.351  0.00  0.00    +0.000 A 
ATOM      7  N   UNL     1       2.095   8.544  18.646  0.00  0.00    +0.000 NA
ATOM      8  C   UNL     1       1.388   9.129  19.593  0.00  0.00    +0.000 A 
ATOM      9  N   UNL     1       1.182   8.270  20.644  0.00  0.00    +0.000 N 
ATOM     10  C   UNL     1       0.474   8.651  21.847  0.00  0.00    +0.000 C 
ATOM     11  C   UNL     1       0.405  10.177  21.975  0.00  0.00    +0.000 C 
ATOM     12  N   UNL     1      -0.072  10.797  20.737  0.00  0.00    +0.000 NA
ATOM     13  C   UNL     1       0.828  10.527  19.585  0.00  0.00    +0.000 C 
ATOM     14  H   UNL     1      -0.171  11.803  20.850  0.00  0.00    +0.000 HD
ENDROOT
BRANCH   1  16
ATOM     15  C   UNL     1       2.186   3.241  17.184  0.00  0.00    +0.000 C 
ATOM     16  C   UNL     1       3.333   3.677  18.130  0.00  0.00    +0.000 C 
ATOM     17  C   UNL     1       3.723   2.441  18.965  0.00  0.00    +0.000 C 
BRANCH  16  18
ATOM     18  C   UNL     1       4.583   4.063  17.279  0.00  0.00    +0.000 C 
ATOM     19  O   UNL     1       4.541   4.006  16.045  0.00  0.00    +0.000 OA
ATOM     20  N   UNL     1       5.749   4.459  17.913  0.00  0.00    +0.000 N 
ATOM     21  C   UNL     1       6.043   4.578  19.331  0.00  0.00    +0.000 C 
ATOM     22  C   UNL     1       7.013   5.743  19.394  0.00  0.00    +0.000 C 
ATOM     23  C   UNL     1       7.845   5.558  18.132  0.00  0.00    +0.000 C 
ATOM     24  C   UNL     1       6.874   4.943  17.126  0.00  0.00    +0.000 C 
ENDBRANCH  16  18
ENDBRANCH   1  16
BRANCH  13  25
ATOM     25  C   UNL     1       0.108  10.817  18.234  0.00  0.00    +0.000 C 
BRANCH  25  26
ATOM     26  C   UNL     1      -1.408  10.803  18.332  0.00  0.00    +0.000 A 
ATOM     27  C   UNL     1      -2.144   9.818  17.662  0.00  0.00    +0.000 A 
ATOM     28  C   UNL     1      -3.531   9.920  17.555  0.00  0.00    +0.000 A 
ATOM     29  C   UNL     1      -4.199  11.002  18.137  0.00  0.00    +0.000 A 
ATOM     30  C   UNL     1      -3.480  11.940  18.885  0.00  0.00    +0.000 A 
ATOM     31  C   UNL     1      -2.090  11.838  18.985  0.00  0.00    +0.000 A 
BRANCH  29  32
ATOM     32  C   UNL     1      -5.649  11.219  17.880  0.00  0.00    +0.000 C 
ATOM     33  N   UNL     1      -6.587  10.617  18.540  0.00  0.00    +0.000 NA
ATOM     34  N   UNL     1      -6.047  12.053  16.877  0.00  0.00    +0.000 N 
ATOM     35  H   UNL     1      -6.199  10.037  19.289  0.00  0.00    +0.000 HD
ATOM     36  H   UNL     1      -5.452  12.073  16.057  0.00  0.00    +0.000 HD
ATOM     37  H   UNL     1      -7.026  11.905  16.650  0.00  0.00    +0.000 HD
ENDBRANCH  29  32
ENDBRANCH  25  26
ENDBRANCH  13  25
TORSDOF 5
ENDMDL
MODEL 3
REMARK VINA RESULT:      -9.0      2.716      9.438
REMARK  Name = 
REMARK  7 active torsions:
REMARK  status: ('A' for Active; 'I' for Inactive)
REMARK    1  A    between atoms: C_1  and  C_2
REMARK    2  A    between atoms: C_2  and  C_3
REMARK    3  A    between atoms: C_2  and  C_4
REMARK    4  A    between atoms: C_2  and  C_11
REMARK    5  A    between atoms: C_23  and  C_24
REMARK    6  A    between atoms: C_24  and  C_25
REMARK    7  A    between atoms: C_28  and  C_29
REMARK                            x       y       z     vdW  Elec       q    Type
REMARK                         _______ _______ _______ _____ _____    ______ ____
ROOT
ATOM      1  C   UNL     1       2.986   5.068  19.175  0.00  0.00    +0.000 A 
ATOM      2  C   UNL     1       2.421   4.915  20.456  0.00  0.00    +0.000 A 
ATOM      3  C   UNL     1       1.755   5.961  21.115  0.00  0.00    +0.000 A 
ATOM      4  C   UNL     1       1.653   7.174  20.434  0.00  0.00    +0.000 A 
ATOM      5  C   UNL     1       2.194   7.372  19.168  0.00  0.00    +0.000 A 
ATOM      6  C   UNL     1       2.866   6.321  18.534  0.00  0.00    +0.000 A 
ATOM      7  N   UNL     1       1.951   8.642  18.714  0.00  0.00    +0.000 NA
ATOM      8  C   UNL     1       1.181   9.197  19.629  0.00  0.00    +0.000 A 
ATOM      9  N   UNL     1       1.053   8.371  20.719  0.00  0.00    +0.000 N 
ATOM     10  C   UNL     1       0.300   8.735  21.900  0.00  0.00    +0.000 C 
ATOM     11  C   UNL     1       0.077  10.250  21.955  0.00  0.00    +0.000 C 
ATOM     12  N   UNL     1      -0.447  10.762  20.687  0.00  0.00    +0.000 NA
ATOM     13  C   UNL     1       0.485  10.530  19.553  0.00  0.00    +0.000 C 
ATOM     14  H   UNL     1      -0.647  11.758  20.753  0.00  0.00    +0.000 HD
ENDROOT
BRANCH   1  16
ATOM     15  C   UNL     1       2.947   3.807  17.067  0.00  0.00    +0.000 C 
ATOM     16  C   UNL     1       3.673   3.905  18.432  0.00  0.00    +0.000 C 
ATOM     17  C   UNL     1       3.551   2.524  19.108  0.00  0.00    +0.000 C 
BRANCH  16  18
ATOM     18  C   UNL     1       5.193   4.159  18.190  0.00  0.00    +0.000 C 
ATOM     19  O   UNL     1       6.004   4.030  19.114  0.00  0.00    +0.000 OA
ATOM     20  N   UNL     1       5.633   4.544  16.935  0.00  0.00    +0.000 N 
ATOM     21  C   UNL     1       4.877   4.781  15.716  0.00  0.00    +0.000 C 
ATOM     22  C   UNL     1       5.832   4.350  14.618  0.00  0.00    +0.000 C 
ATOM     23  C   UNL     1       7.185   4.799  15.153  0.00  0.00    +0.000 C 
ATOM     24  C   UNL     1       7.059   4.656  16.668  0.00  0.00    +0.000 C 
ENDBRANCH  16  18
ENDBRANCH   1  16
BRANCH  13  25
ATOM     25  C   UNL     1      -0.248  10.684  18.187  0.00  0.00    +0.000 C 
BRANCH  25  26
ATOM     26  C   UNL     1      -1.761  10.744  18.307  0.00  0.00    +0.000 A 
ATOM     27  C   UNL     1      -2.546   9.698  17.805  0.00  0.00    +0.000 A 
ATOM     28  C   UNL     1      -3.930   9.836  17.703  0.00  0.00    +0.000 A 
ATOM     29  C   UNL     1      -4.546  11.019  18.122  0.00  0.00    +0.000 A 
ATOM     30  C   UNL     1      -3.779  12.032  18.708  0.00  0.00    +0.000 A 
ATOM     31  C   UNL     1      -2.393  11.892  18.804  0.00  0.00    +0.000 A 
BRANCH  29  32
ATOM     32  C   UNL     1      -5.993  11.251  17.855  0.00  0.00    +0.000 C 
ATOM     33  N   UNL     1      -6.429  12.154  17.034  0.00  0.00    +0.000 NA
ATOM     34  N   UNL     1      -6.935  10.528  18.524  0.00  0.00    +0.000 N 
ATOM     35  H   UNL     1      -5.656  12.625  16.557  0.00  0.00    +0.000 HD
ATOM     36  H   UNL     1      -6.704  10.276  19.478  0.00  0.00    +0.000 HD
ATOM     37  H   UNL     1      -7.850  10.961  18.442  0.00  0.00    +0.000 HD
ENDBRANCH  29  32
ENDBRANCH  25  26
ENDBRANCH  13  25
TORSDOF 5
ENDMDL
MODEL 4
REMARK VINA RESULT:      -9.0      0.693      1.227
REMARK  Name = 
REMARK  7 active torsions:
REMARK  status: ('A' for Active; 'I' for Inactive)
REMARK    1  A    between atoms: C_1  and  C_2
REMARK    2  A    between atoms: C_2  and  C_3
REMARK    3  A    between atoms: C_2  and  C_4
REMARK    4  A    between atoms: C_2  and  C_11
REMARK    5  A    between atoms: C_23  and  C_24
REMARK    6  A    between atoms: C_24  and  C_25
REMARK    7  A    between atoms: C_28  and  C_29
REMARK                            x       y       z     vdW  Elec       q    Type
REMARK                         _______ _______ _______ _____ _____    ______ ____
ROOT
ATOM      1  C   UNL     1       0.725  10.267  19.991  0.00  0.00    +0.000 A 
ATOM      2  C   UNL     1       0.426   9.535  21.156  0.00  0.00    +0.000 A 
ATOM      3  C   UNL     1       0.820   8.197  21.325  0.00  0.00    +0.000 A 
ATOM      4  C   UNL     1       1.549   7.616  20.288  0.00  0.00    +0.000 A 
ATOM      5  C   UNL     1       1.868   8.300  19.119  0.00  0.00    +0.000 A 
ATOM      6  C   UNL     1       1.455   9.628  18.964  0.00  0.00    +0.000 A 
ATOM      7  N   UNL     1       2.595   7.515  18.264  0.00  0.00    +0.000 NA
ATOM      8  C   UNL     1       2.821   6.397  18.924  0.00  0.00    +0.000 A 
ATOM      9  N   UNL     1       2.133   6.390  20.113  0.00  0.00    +0.000 N 
ATOM     10  C   UNL     1       2.154   5.272  21.030  0.00  0.00    +0.000 C 
ATOM     11  C   UNL     1       2.635   4.000  20.322  0.00  0.00    +0.000 C 
ATOM     12  N   UNL     1       3.875   4.234  19.581  0.00  0.00    +0.000 NA
ATOM     13  C   UNL     1       3.713   5.256  18.513  0.00  0.00    +0.000 C 
ATOM     14  H   UNL     1       4.217   3.371  19.164  0.00  0.00    +0.000 HD
ENDROOT
BRANCH   1  16
ATOM     15  C   UNL     1       1.013  12.207  18.510  0.00  0.00    +0.000 C 
ATOM     16  C   UNL     1       0.335  11.750  19.827  0.00  0.00    +0.000 C 
ATOM     17  C   UNL     1       0.833  12.693  20.941  0.00  0.00    +0.000 C 
BRANCH  16  18
ATOM     18  C   UNL     1      -1.206  11.958  19.711  0.00  0.00    +0.000 C 
ATOM     19  O   UNL     1      -1.793  12.730  20.478  0.00  0.00    +0.000 OA
ATOM     20  N   UNL     1      -1.922  11.265  18.750  0.00  0.00    +0.000 N 
ATOM     21  C   UNL     1      -1.465  10.298  17.765  0.00  0.00    +0.000 C 
ATOM     22  C   UNL     1      -2.387  10.535  16.583  0.00  0.00    +0.000 C 
ATOM     23  C   UNL     1      -3.720  10.844  17.252  0.00  0.00    +0.000 C 
ATOM     24  C   UNL     1      -3.336  11.550  18.551  0.00  0.00    +0.000 C 
ENDBRANCH  16  18
ENDBRANCH   1  16
BRANCH  13  25
ATOM     25  C   UNL     1       5.097   5.791  18.038  0.00  0.00    +0.000 C 
BRANCH  25  26
ATOM     26  C   UNL     1       5.615   5.116  16.779  0.00  0.00    +0.000 A 
ATOM     27  C   UNL     1       6.829   5.527  16.213  0.00  0.00    +0.000 A 
ATOM     28  C   UNL     1       7.208   5.081  14.947  0.00  0.00    +0.000 A 
ATOM     29  C   UNL     1       6.381   4.202  14.241  0.00  0.00    +0.000 A 
ATOM     30  C   UNL     1       5.213   3.716  14.837  0.00  0.00    +0.000 A 
ATOM     31  C   UNL     1       4.834   4.169  16.103  0.00  0.00    +0.000 A 
BRANCH  29  32
ATOM     32  C   UNL     1       6.682   3.861  12.823  0.00  0.00    +0.000 C 
ATOM     33  N   UNL     1       6.308   2.754  12.263  0.00  0.00    +0.000 NA
ATOM     34  N   UNL     1       7.424   4.712  12.058  0.00  0.00    +0.000 N 
ATOM     35  H   UNL     1       5.733   2.194  12.898  0.00  0.00    +0.000 HD
ATOM     36  H   UNL     1       8.150   5.224  12.546  0.00  0.00    +0.000 HD
ATOM     37  H   UNL     1       7.764   4.245  11.224  0.00  0.00    +0.000 HD
ENDBRANCH  29  32
ENDBRANCH  25  26
ENDBRANCH  13  25
TORSDOF 5
ENDMDL
MODEL 5
REMARK VINA RESULT:      -8.7      2.661      9.477
REMARK  Name = 
REMARK  7 active torsions:
REMARK  status: ('A' for Active; 'I' for Inactive)
REMARK    1  A    between atoms: C_1  and  C_2
REMARK    2  A    between atoms: C_2  and  C_3
REMARK    3  A    between atoms: C_2  and  C_4
REMARK    4  A    between atoms: C_2  and  C_11
REMARK    5  A    between atoms: C_23  and  C_24
REMARK    6  A    between atoms: C_24  and  C_25
REMARK    7  A    between atoms: C_28  and  C_29
REMARK                            x       y       z     vdW  Elec       q    Type
REMARK                         _______ _______ _______ _____ _____    ______ ____
ROOT
ATOM      1  C   UNL     1       3.262   4.845  19.272  0.00  0.00    +0.000 A 
ATOM      2  C   UNL     1       2.558   4.642  20.475  0.00  0.00    +0.000 A 
ATOM      3  C   UNL     1       1.786   5.650  21.075  0.00  0.00    +0.000 A 
ATOM      4  C   UNL     1       1.722   6.877  20.413  0.00  0.00    +0.000 A 
ATOM      5  C   UNL     1       2.400   7.124  19.223  0.00  0.00    +0.000 A 
ATOM      6  C   UNL     1       3.175   6.110  18.649  0.00  0.00    +0.000 A 
ATOM      7  N   UNL     1       2.169   8.396  18.772  0.00  0.00    +0.000 NA
ATOM      8  C   UNL     1       1.280   8.904  19.602  0.00  0.00    +0.000 A 
ATOM      9  N   UNL     1       1.054   8.047  20.651  0.00  0.00    +0.000 N 
ATOM     10  C   UNL     1       0.157   8.357  21.744  0.00  0.00    +0.000 C 
ATOM     11  C   UNL     1      -0.121   9.863  21.806  0.00  0.00    +0.000 C 
ATOM     12  N   UNL     1      -0.512  10.391  20.497  0.00  0.00    +0.000 NA
ATOM     13  C   UNL     1       0.553  10.217  19.474  0.00  0.00    +0.000 C 
ATOM     14  H   UNL     1      -0.751  11.378  20.561  0.00  0.00    +0.000 HD
ENDROOT
BRANCH   1  16
ATOM     15  C   UNL     1       3.272   3.368  17.309  0.00  0.00    +0.000 C 
ATOM     16  C   UNL     1       4.069   3.723  18.590  0.00  0.00    +0.000 C 
ATOM     17  C   UNL     1       4.215   2.422  19.405  0.00  0.00    +0.000 C 
BRANCH  16  18
ATOM     18  C   UNL     1       5.508   4.173  18.191  0.00  0.00    +0.000 C 
ATOM     19  O   UNL     1       6.398   4.252  19.046  0.00  0.00    +0.000 OA
ATOM     20  N   UNL     1       5.787   4.496  16.874  0.00  0.00    +0.000 N 
ATOM     21  C   UNL     1       4.913   4.504  15.713  0.00  0.00    +0.000 C 
ATOM     22  C   UNL     1       5.836   4.114  14.573  0.00  0.00    +0.000 C 
ATOM     23  C   UNL     1       7.141   4.806  14.945  0.00  0.00    +0.000 C 
ATOM     24  C   UNL     1       7.154   4.791  16.472  0.00  0.00    +0.000 C 
ENDBRANCH  16  18
ENDBRANCH   1  16
BRANCH  13  25
ATOM     25  C   UNL     1      -0.022  10.382  18.036  0.00  0.00    +0.000 C 
BRANCH  25  26
ATOM     26  C   UNL     1      -1.493  10.757  18.004  0.00  0.00    +0.000 A 
ATOM     27  C   UNL     1      -1.927  11.945  18.606  0.00  0.00    +0.000 A 
ATOM     28  C   UNL     1      -3.287  12.194  18.784  0.00  0.00    +0.000 A 
ATOM     29  C   UNL     1      -4.231  11.262  18.342  0.00  0.00    +0.000 A 
ATOM     30  C   UNL     1      -3.809  10.117  17.659  0.00  0.00    +0.000 A 
ATOM     31  C   UNL     1      -2.445   9.868  17.487  0.00  0.00    +0.000 A 
BRANCH  29  32
ATOM     32  C   UNL     1      -5.671  11.428  18.684  0.00  0.00    +0.000 C 
ATOM     33  N   UNL     1      -6.098  11.622  19.892  0.00  0.00    +0.000 NA
ATOM     34  N   UNL     1      -6.619  11.331  17.709  0.00  0.00    +0.000 N 
ATOM     35  H   UNL     1      -5.320  11.711  20.549  0.00  0.00    +0.000 HD
ATOM     36  H   UNL     1      -6.422  10.673  16.964  0.00  0.00    +0.000 HD
ATOM     37  H   UNL     1      -7.542  11.203  18.113  0.00  0.00    +0.000 HD
ENDBRANCH  29  32
ENDBRANCH  25  26
ENDBRANCH  13  25
TORSDOF 5
ENDMDL
MODEL 6
REMARK VINA RESULT:      -8.6      1.309      2.119
REMARK  Name = 
REMARK  7 active torsions:
REMARK  status: ('A' for Active; 'I' for Inactive)
REMARK    1  A    between atoms: C_1  and  C_2
REMARK    2  A    between atoms: C_2  and  C_3
REMARK    3  A    between atoms: C_2  and  C_4
REMARK    4  A    between atoms: C_2  and  C_11
REMARK    5  A    between atoms: C_23  and  C_24
REMARK    6  A    between atoms: C_24  and  C_25
REMARK    7  A    between atoms: C_28  and  C_29
REMARK                            x       y       z     vdW  Elec       q    Type
REMARK                         _______ _______ _______ _____ _____    ______ ____
ROOT
ATOM      1  C   UNL     1       1.299   9.663  19.600  0.00  0.00    +0.000 A 
ATOM      2  C   UNL     1       0.871   9.053  20.795  0.00  0.00    +0.000 A 
ATOM      3  C   UNL     1       1.150   7.710  21.095  0.00  0.00    +0.000 A 
ATOM      4  C   UNL     1       1.897   6.994  20.159  0.00  0.00    +0.000 A 
ATOM      5  C   UNL     1       2.341   7.554  18.966  0.00  0.00    +0.000 A 
ATOM      6  C   UNL     1       2.041   8.891  18.679  0.00  0.00    +0.000 A 
ATOM      7  N   UNL     1       3.059   6.651  18.227  0.00  0.00    +0.000 NA
ATOM      8  C   UNL     1       3.156   5.579  18.987  0.00  0.00    +0.000 A 
ATOM      9  N   UNL     1       2.395   5.720  20.121  0.00  0.00    +0.000 N 
ATOM     10  C   UNL     1       2.273   4.682  21.122  0.00  0.00    +0.000 C 
ATOM     11  C   UNL     1       2.698   3.325  20.551  0.00  0.00    +0.000 C 
ATOM     12  N   UNL     1       3.998   3.408  19.882  0.00  0.00    +0.000 NA
ATOM     13  C   UNL     1       3.983   4.347  18.729  0.00  0.00    +0.000 C 
ATOM     14  H   UNL     1       4.298   2.491  19.558  0.00  0.00    +0.000 HD
ENDROOT
BRANCH   1  16
ATOM     15  C   UNL     1      -0.298  11.175  18.504  0.00  0.00    +0.000 C 
ATOM     16  C   UNL     1       1.034  11.151  19.294  0.00  0.00    +0.000 C 
ATOM     17  C   UNL     1       2.094  11.845  18.413  0.00  0.00    +0.000 C 
BRANCH  16  18
ATOM     18  C   UNL     1       0.882  12.014  20.585  0.00  0.00    +0.000 C 
ATOM     19  O   UNL     1       1.881  12.471  21.153  0.00  0.00    +0.000 OA
ATOM     20  N   UNL     1      -0.378  12.257  21.104  0.00  0.00    +0.000 N 
ATOM     21  C   UNL     1      -1.680  11.812  20.634  0.00  0.00    +0.000 C 
ATOM     22  C   UNL     1      -2.601  12.960  21.004  0.00  0.00    +0.000 C 
ATOM     23  C   UNL     1      -2.038  13.426  22.340  0.00  0.00    +0.000 C 
ATOM     24  C   UNL     1      -0.537  13.165  22.230  0.00  0.00    +0.000 C 
ENDBRANCH  16  18
ENDBRANCH   1  16
BRANCH  13  25
ATOM     25  C   UNL     1       5.431   4.741  18.310  0.00  0.00    +0.000 C 
BRANCH  25  26
ATOM     26  C   UNL     1       5.665   4.708  16.810  0.00  0.00    +0.000 A 
ATOM     27  C   UNL     1       4.700   4.147  15.963  0.00  0.00    +0.000 A 
ATOM     28  C   UNL     1       4.990   3.905  14.621  0.00  0.00    +0.000 A 
ATOM     29  C   UNL     1       6.247   4.239  14.107  0.00  0.00    +0.000 A 
ATOM     30  C   UNL     1       7.183   4.882  14.924  0.00  0.00    +0.000 A 
ATOM     31  C   UNL     1       6.890   5.119  16.269  0.00  0.00    +0.000 A 
BRANCH  29  32
ATOM     32  C   UNL     1       6.632   3.824  12.729  0.00  0.00    +0.000 C 
ATOM     33  N   UNL     1       6.233   2.720  12.181  0.00  0.00    +0.000 NA
ATOM     34  N   UNL     1       7.483   4.597  11.997  0.00  0.00    +0.000 N 
ATOM     35  H   UNL     1       5.578   2.221  12.788  0.00  0.00    +0.000 HD
ATOM     36  H   UNL     1       8.201   5.084  12.521  0.00  0.00    +0.000 HD
ATOM     37  H   UNL     1       7.856   4.078  11.208  0.00  0.00    +0.000 HD
ENDBRANCH  29  32
ENDBRANCH  25  26
ENDBRANCH  13  25
TORSDOF 5
ENDMDL
MODEL 7
REMARK VINA RESULT:      -8.6      1.081      1.401
REMARK  Name = 
REMARK  7 active torsions:
REMARK  status: ('A' for Active; 'I' for Inactive)
REMARK    1  A    between atoms: C_1  and  C_2
REMARK    2  A    between atoms: C_2  and  C_3
REMARK    3  A    between atoms: C_2  and  C_4
REMARK    4  A    between atoms: C_2  and  C_11
REMARK    5  A    between atoms: C_23  and  C_24
REMARK    6  A    between atoms: C_24  and  C_25
REMARK    7  A    between atoms: C_28  and  C_29
REMARK                            x       y       z     vdW  Elec       q    Type
REMARK                         _______ _______ _______ _____ _____    ______ ____
ROOT
ATOM      1  C   UNL     1       0.527  10.046  20.363  0.00  0.00    +0.000 A 
ATOM      2  C   UNL     1       0.082   9.200  21.398  0.00  0.00    +0.000 A 
ATOM      3  C   UNL     1       0.468   7.853  21.486  0.00  0.00    +0.000 A 
ATOM      4  C   UNL     1       1.340   7.378  20.506  0.00  0.00    +0.000 A 
ATOM      5  C   UNL     1       1.806   8.176  19.466  0.00  0.00    +0.000 A 
ATOM      6  C   UNL     1       1.399   9.512  19.388  0.00  0.00    +0.000 A 
ATOM      7  N   UNL     1       2.654   7.481  18.644  0.00  0.00    +0.000 NA
ATOM      8  C   UNL     1       2.803   6.303  19.216  0.00  0.00    +0.000 A 
ATOM      9  N   UNL     1       1.960   6.177  20.292  0.00  0.00    +0.000 N 
ATOM     10  C   UNL     1       1.872   4.972  21.089  0.00  0.00    +0.000 C 
ATOM     11  C   UNL     1       2.462   3.777  20.331  0.00  0.00    +0.000 C 
ATOM     12  N   UNL     1       3.789   4.085  19.794  0.00  0.00    +0.000 NA
ATOM     13  C   UNL     1       3.759   5.208  18.820  0.00  0.00    +0.000 C 
ATOM     14  H   UNL     1       4.196   3.268  19.344  0.00  0.00    +0.000 HD
ENDROOT
BRANCH   1  16
ATOM     15  C   UNL     1       1.429  12.309  20.682  0.00  0.00    +0.000 C 
ATOM     16  C   UNL     1       0.142  11.537  20.295  0.00  0.00    +0.000 C 
ATOM     17  C   UNL     1      -0.963  11.982  21.275  0.00  0.00    +0.000 C 
BRANCH  16  18
ATOM     18  C   UNL     1      -0.312  11.977  18.869  0.00  0.00    +0.000 C 
ATOM     19  O   UNL     1       0.321  12.840  18.249  0.00  0.00    +0.000 OA
ATOM     20  N   UNL     1      -1.438  11.406  18.300  0.00  0.00    +0.000 N 
ATOM     21  C   UNL     1      -2.346  10.406  18.836  0.00  0.00    +0.000 C 
ATOM     22  C   UNL     1      -2.781   9.628  17.608  0.00  0.00    +0.000 C 
ATOM     23  C   UNL     1      -2.878  10.711  16.541  0.00  0.00    +0.000 C 
ATOM     24  C   UNL     1      -1.793  11.716  16.923  0.00  0.00    +0.000 C 
ENDBRANCH  16  18
ENDBRANCH   1  16
BRANCH  13  25
ATOM     25  C   UNL     1       5.187   5.789  18.593  0.00  0.00    +0.000 C 
BRANCH  25  26
ATOM     26  C   UNL     1       5.729   5.555  17.194  0.00  0.00    +0.000 A 
ATOM     27  C   UNL     1       5.037   6.055  16.083  0.00  0.00    +0.000 A 
ATOM     28  C   UNL     1       5.391   5.662  14.792  0.00  0.00    +0.000 A 
ATOM     29  C   UNL     1       6.456   4.777  14.599  0.00  0.00    +0.000 A 
ATOM     30  C   UNL     1       7.208   4.345  15.697  0.00  0.00    +0.000 A 
ATOM     31  C   UNL     1       6.847   4.736  16.989  0.00  0.00    +0.000 A 
BRANCH  29  32
ATOM     32  C   UNL     1       6.730   4.211  13.249  0.00  0.00    +0.000 C 
ATOM     33  N   UNL     1       6.244   3.082  12.839  0.00  0.00    +0.000 NA
ATOM     34  N   UNL     1       7.566   4.863  12.393  0.00  0.00    +0.000 N 
ATOM     35  H   UNL     1       5.607   2.680  13.532  0.00  0.00    +0.000 HD
ATOM     36  H   UNL     1       8.339   5.359  12.821  0.00  0.00    +0.000 HD
ATOM     37  H   UNL     1       7.861   4.251  11.638  0.00  0.00    +0.000 HD
ENDBRANCH  29  32
ENDBRANCH  25  26
ENDBRANCH  13  25
TORSDOF 5
ENDMDL
MODEL 8
REMARK VINA RESULT:      -8.5      1.400      2.293
REMARK  Name = 
REMARK  7 active torsions:
REMARK  status: ('A' for Active; 'I' for Inactive)
REMARK    1  A    between atoms: C_1  and  C_2
REMARK    2  A    between atoms: C_2  and  C_3
REMARK    3  A    between atoms: C_2  and  C_4
REMARK    4  A    between atoms: C_2  and  C_11
REMARK    5  A    between atoms: C_23  and  C_24
REMARK    6  A    between atoms: C_24  and  C_25
REMARK    7  A    between atoms: C_28  and  C_29
REMARK                            x       y       z     vdW  Elec       q    Type
REMARK                         _______ _______ _______ _____ _____    ______ ____
ROOT
ATOM      1  C   UNL     1       1.150   9.612  19.661  0.00  0.00    +0.000 A 
ATOM      2  C   UNL     1       0.587   8.980  20.786  0.00  0.00    +0.000 A 
ATOM      3  C   UNL     1       0.839   7.633  21.097  0.00  0.00    +0.000 A 
ATOM      4  C   UNL     1       1.698   6.937  20.246  0.00  0.00    +0.000 A 
ATOM      5  C   UNL     1       2.277   7.520  19.123  0.00  0.00    +0.000 A 
ATOM      6  C   UNL     1       2.003   8.859  18.824  0.00  0.00    +0.000 A 
ATOM      7  N   UNL     1       3.084   6.633  18.461  0.00  0.00    +0.000 NA
ATOM      8  C   UNL     1       3.098   5.549  19.211  0.00  0.00    +0.000 A 
ATOM      9  N   UNL     1       2.207   5.666  20.248  0.00  0.00    +0.000 N 
ATOM     10  C   UNL     1       1.973   4.612  21.211  0.00  0.00    +0.000 C 
ATOM     11  C   UNL     1       2.474   3.267  20.674  0.00  0.00    +0.000 C 
ATOM     12  N   UNL     1       3.843   3.368  20.166  0.00  0.00    +0.000 NA
ATOM     13  C   UNL     1       3.959   4.325  19.034  0.00  0.00    +0.000 C 
ATOM     14  H   UNL     1       4.187   2.458  19.866  0.00  0.00    +0.000 HD
ENDROOT
BRANCH   1  16
ATOM     15  C   UNL     1      -0.443  11.153  18.601  0.00  0.00    +0.000 C 
ATOM     16  C   UNL     1       0.914  11.103  19.349  0.00  0.00    +0.000 C 
ATOM     17  C   UNL     1       1.961  11.762  18.427  0.00  0.00    +0.000 C 
BRANCH  16  18
ATOM     18  C   UNL     1       0.825  11.981  20.635  0.00  0.00    +0.000 C 
ATOM     19  O   UNL     1       1.853  12.407  21.174  0.00  0.00    +0.000 OA
ATOM     20  N   UNL     1      -0.413  12.274  21.182  0.00  0.00    +0.000 N 
ATOM     21  C   UNL     1      -1.741  11.873  20.749  0.00  0.00    +0.000 C 
ATOM     22  C   UNL     1      -2.610  13.057  21.130  0.00  0.00    +0.000 C 
ATOM     23  C   UNL     1      -1.998  13.513  22.448  0.00  0.00    +0.000 C 
ATOM     24  C   UNL     1      -0.511  13.197  22.304  0.00  0.00    +0.000 C 
ENDBRANCH  16  18
ENDBRANCH   1  16
BRANCH  13  25
ATOM     25  C   UNL     1       5.444   4.734  18.798  0.00  0.00    +0.000 C 
BRANCH  25  26
ATOM     26  C   UNL     1       5.930   4.484  17.381  0.00  0.00    +0.000 A 
ATOM     27  C   UNL     1       7.228   4.858  17.010  0.00  0.00    +0.000 A 
ATOM     28  C   UNL     1       7.613   4.845  15.670  0.00  0.00    +0.000 A 
ATOM     29  C   UNL     1       6.706   4.438  14.686  0.00  0.00    +0.000 A 
ATOM     30  C   UNL     1       5.439   3.977  15.059  0.00  0.00    +0.000 A 
ATOM     31  C   UNL     1       5.055   3.996  16.401  0.00  0.00    +0.000 A 
BRANCH  29  32
ATOM     32  C   UNL     1       7.041   4.588  13.243  0.00  0.00    +0.000 C 
ATOM     33  N   UNL     1       7.808   5.527  12.785  0.00  0.00    +0.000 NA
ATOM     34  N   UNL     1       6.495   3.743  12.324  0.00  0.00    +0.000 N 
ATOM     35  H   UNL     1       8.195   6.092  13.545  0.00  0.00    +0.000 HD
ATOM     36  H   UNL     1       5.553   3.424  12.521  0.00  0.00    +0.000 HD
ATOM     37  H   UNL     1       6.596   4.114  11.385  0.00  0.00    +0.000 HD
ENDBRANCH  29  32
ENDBRANCH  25  26
ENDBRANCH  13  25
TORSDOF 5
ENDMDL
MODEL 9
REMARK VINA RESULT:      -8.4      1.005      1.633
REMARK  Name = 
REMARK  7 active torsions:
REMARK  status: ('A' for Active; 'I' for Inactive)
REMARK    1  A    between atoms: C_1  and  C_2
REMARK    2  A    between atoms: C_2  and  C_3
REMARK    3  A    between atoms: C_2  and  C_4
REMARK    4  A    between atoms: C_2  and  C_11
REMARK    5  A    between atoms: C_23  and  C_24
REMARK    6  A    between atoms: C_24  and  C_25
REMARK    7  A    between atoms: C_28  and  C_29
REMARK                            x       y       z     vdW  Elec       q    Type
REMARK                         _______ _______ _______ _____ _____    ______ ____
ROOT
ATOM      1  C   UNL     1       1.102   9.386  19.778  0.00  0.00    +0.000 A 
ATOM      2  C   UNL     1       0.721   8.713  20.955  0.00  0.00    +0.000 A 
ATOM      3  C   UNL     1       1.080   7.380  21.209  0.00  0.00    +0.000 A 
ATOM      4  C   UNL     1       1.859   6.739  20.245  0.00  0.00    +0.000 A 
ATOM      5  C   UNL     1       2.260   7.363  19.068  0.00  0.00    +0.000 A 
ATOM      6  C   UNL     1       1.880   8.688  18.827  0.00  0.00    +0.000 A 
ATOM      7  N   UNL     1       3.022   6.527  18.295  0.00  0.00    +0.000 NA
ATOM      8  C   UNL     1       3.188   5.438  19.019  0.00  0.00    +0.000 A 
ATOM      9  N   UNL     1       2.431   5.498  20.162  0.00  0.00    +0.000 N 
ATOM     10  C   UNL     1       2.377   4.423  21.130  0.00  0.00    +0.000 C 
ATOM     11  C   UNL     1       2.876   3.112  20.512  0.00  0.00    +0.000 C 
ATOM     12  N   UNL     1       4.162   3.293  19.837  0.00  0.00    +0.000 NA
ATOM     13  C   UNL     1       4.082   4.265  18.715  0.00  0.00    +0.000 C 
ATOM     14  H   UNL     1       4.513   2.406  19.481  0.00  0.00    +0.000 HD
ENDROOT
BRANCH   1  16
ATOM     15  C   UNL     1       1.792  11.361  18.489  0.00  0.00    +0.000 C 
ATOM     16  C   UNL     1       0.749  10.865  19.522  0.00  0.00    +0.000 C 
ATOM     17  C   UNL     1       0.855  11.793  20.750  0.00  0.00    +0.000 C 
BRANCH  16  18
ATOM     18  C   UNL     1      -0.684  11.050  18.936  0.00  0.00    +0.000 C 
ATOM     19  O   UNL     1      -1.021  10.452  17.907  0.00  0.00    +0.000 OA
ATOM     20  N   UNL     1      -1.580  11.897  19.566  0.00  0.00    +0.000 N 
ATOM     21  C   UNL     1      -1.409  12.714  20.756  0.00  0.00    +0.000 C 
ATOM     22  C   UNL     1      -2.789  12.712  21.388  0.00  0.00    +0.000 C 
ATOM     23  C   UNL     1      -3.713  12.749  20.179  0.00  0.00    +0.000 C 
ATOM     24  C   UNL     1      -2.957  11.974  19.101  0.00  0.00    +0.000 C 
ENDBRANCH  16  18
ENDBRANCH   1  16
BRANCH  13  25
ATOM     25  C   UNL     1       5.502   4.757  18.300  0.00  0.00    +0.000 C 
BRANCH  25  26
ATOM     26  C   UNL     1       5.747   4.722  16.801  0.00  0.00    +0.000 A 
ATOM     27  C   UNL     1       4.722   4.323  15.933  0.00  0.00    +0.000 A 
ATOM     28  C   UNL     1       4.991   4.070  14.588  0.00  0.00    +0.000 A 
ATOM     29  C   UNL     1       6.289   4.233  14.093  0.00  0.00    +0.000 A 
ATOM     30  C   UNL     1       7.297   4.718  14.933  0.00  0.00    +0.000 A 
ATOM     31  C   UNL     1       7.025   4.966  16.281  0.00  0.00    +0.000 A 
BRANCH  29  32
ATOM     32  C   UNL     1       6.628   3.796  12.710  0.00  0.00    +0.000 C 
ATOM     33  N   UNL     1       6.291   2.643  12.225  0.00  0.00    +0.000 NA
ATOM     34  N   UNL     1       7.369   4.606  11.901  0.00  0.00    +0.000 N 
ATOM     35  H   UNL     1       5.715   2.117  12.888  0.00  0.00    +0.000 HD
ATOM     36  H   UNL     1       8.072   5.170  12.365  0.00  0.00    +0.000 HD
ATOM     37  H   UNL     1       7.738   4.088  11.110  0.00  0.00    +0.000 HD
ENDBRANCH  29  32
ENDBRANCH  25  26
ENDBRANCH  13  25
TORSDOF 5
ENDMDL
