MODEL 1
REMARK VINA RESULT:      -9.3      0.000      0.000
REMARK  Name = 
REMARK  5 active torsions:
REMARK  status: ('A' for Active; 'I' for Inactive)
REMARK    1  A    between atoms: C_1  and  O_2
REMARK    2  A    between atoms: O_2  and  C_3
REMARK    3  A    between atoms: C_6  and  C_7
REMARK    4  A    between atoms: C_8  and  C_9
REMARK    5  A    between atoms: C_18  and  O_19
REMARK                            x       y       z     vdW  Elec       q    Type
REMARK                         _______ _______ _______ _____ _____    ______ ____
ROOT
ATOM      1  C   UNL     1       2.753   5.827  18.281  0.00  0.00    +0.000 A 
ATOM      2  C   UNL     1       3.924   5.740  17.515  0.00  0.00    +0.000 A 
ATOM      3  O   UNL     1       3.759   4.609  16.743  0.00  0.00    +0.000 OA
ATOM      4  C   UNL     1       3.183   3.747  17.649  0.00  0.00    +0.000 A 
ATOM      5  C   UNL     1       3.329   2.372  17.535  0.00  0.00    +0.000 A 
ATOM      6  C   UNL     1       3.780   1.798  18.713  0.00  0.00    +0.000 A 
ATOM      7  C   UNL     1       3.852   2.531  19.909  0.00  0.00    +0.000 A 
ATOM      8  C   UNL     1       3.346   3.857  20.008  0.00  0.00    +0.000 A 
ATOM      9  C   UNL     1       2.941   4.496  18.812  0.00  0.00    +0.000 A 
ENDROOT
BRANCH   1  13
ATOM     10  C   UNL     1       1.065   9.588  19.490  0.00  0.00    +0.000 A 
ATOM     11  C   UNL     1       1.335   8.577  20.387  0.00  0.00    +0.000 A 
ATOM     12  C   UNL     1       2.026   7.428  19.964  0.00  0.00    +0.000 A 
ATOM     13  C   UNL     1       2.387   7.226  18.606  0.00  0.00    +0.000 A 
ATOM     14  C   UNL     1       2.193   8.288  17.730  0.00  0.00    +0.000 A 
ATOM     15  C   UNL     1       1.542   9.472  18.181  0.00  0.00    +0.000 A 
BRANCH  10  17
ATOM     16  C   UNL     1      -0.940  10.867  19.383  0.00  0.00    +0.000 C 
ATOM     17  O   UNL     1       0.299  10.585  20.015  0.00  0.00    +0.000 OA
ENDBRANCH  10  17
ENDBRANCH   1  13
BRANCH   2  18
ATOM     18  C   UNL     1       5.298   6.108  17.957  0.00  0.00    +0.000 A 
ATOM     19  C   UNL     1       6.089   6.987  17.223  0.00  0.00    +0.000 A 
ATOM     20  C   UNL     1       7.431   7.183  17.570  0.00  0.00    +0.000 A 
ATOM     21  C   UNL     1       8.002   6.500  18.636  0.00  0.00    +0.000 A 
ATOM     22  C   UNL     1       7.252   5.584  19.356  0.00  0.00    +0.000 A 
ATOM     23  C   UNL     1       5.923   5.387  19.002  0.00  0.00    +0.000 A 
ENDBRANCH   2  18
BRANCH   6  24
ATOM     24  O   UNL     1       4.310   0.536  18.695  0.00  0.00    +0.000 OA
ATOM     25  H   UNL     1       4.140   0.114  19.552  0.00  0.00    +0.000 HD
ENDBRANCH   6  24
TORSDOF 4
ENDMDL
MODEL 2
REMARK VINA RESULT:      -9.3      0.279      1.017
REMARK  Name = 
REMARK  5 active torsions:
REMARK  status: ('A' for Active; 'I' for Inactive)
REMARK    1  A    between atoms: C_1  and  O_2
REMARK    2  A    between atoms: O_2  and  C_3
REMARK    3  A    between atoms: C_6  and  C_7
REMARK    4  A    between atoms: C_8  and  C_9
REMARK    5  A    between atoms: C_18  and  O_19
REMARK                            x       y       z     vdW  Elec       q    Type
REMARK                         _______ _______ _______ _____ _____    ______ ____
ROOT
ATOM      1  C   UNL     1       2.900   5.645  18.228  0.00  0.00    +0.000 A 
ATOM      2  C   UNL     1       4.016   5.502  17.393  0.00  0.00    +0.000 A 
ATOM      3  O   UNL     1       3.778   4.347  16.677  0.00  0.00    +0.000 OA
ATOM      4  C   UNL     1       3.244   3.533  17.651  0.00  0.00    +0.000 A 
ATOM      5  C   UNL     1       3.354   2.151  17.581  0.00  0.00    +0.000 A 
ATOM      6  C   UNL     1       3.868   1.612  18.749  0.00  0.00    +0.000 A 
ATOM      7  C   UNL     1       4.033   2.387  19.909  0.00  0.00    +0.000 A 
ATOM      8  C   UNL     1       3.562   3.727  19.989  0.00  0.00    +0.000 A 
ATOM      9  C   UNL     1       3.094   4.330  18.798  0.00  0.00    +0.000 A 
ENDROOT
BRANCH   1  13
ATOM     10  C   UNL     1       1.327   9.498  19.296  0.00  0.00    +0.000 A 
ATOM     11  C   UNL     1       1.471   8.478  20.213  0.00  0.00    +0.000 A 
ATOM     12  C   UNL     1       2.131   7.291  19.847  0.00  0.00    +0.000 A 
ATOM     13  C   UNL     1       2.585   7.063  18.522  0.00  0.00    +0.000 A 
ATOM     14  C   UNL     1       2.518   8.129  17.632  0.00  0.00    +0.000 A 
ATOM     15  C   UNL     1       1.898   9.349  18.029  0.00  0.00    +0.000 A 
BRANCH  10  17
ATOM     16  C   UNL     1      -0.729  10.694  19.227  0.00  0.00    +0.000 C 
ATOM     17  O   UNL     1       0.577  10.536  19.758  0.00  0.00    +0.000 OA
ENDBRANCH  10  17
ENDBRANCH   1  13
BRANCH   2  18
ATOM     18  C   UNL     1       5.423   5.854  17.731  0.00  0.00    +0.000 A 
ATOM     19  C   UNL     1       6.073   5.291  18.826  0.00  0.00    +0.000 A 
ATOM     20  C   UNL     1       7.332   5.763  19.217  0.00  0.00    +0.000 A 
ATOM     21  C   UNL     1       7.947   6.806  18.537  0.00  0.00    +0.000 A 
ATOM     22  C   UNL     1       7.305   7.417  17.474  0.00  0.00    +0.000 A 
ATOM     23  C   UNL     1       6.052   6.950  17.094  0.00  0.00    +0.000 A 
ENDBRANCH   2  18
BRANCH   6  24
ATOM     24  O   UNL     1       4.369   0.338  18.747  0.00  0.00    +0.000 OA
ATOM     25  H   UNL     1       3.864  -0.197  19.379  0.00  0.00    +0.000 HD
ENDBRANCH   6  24
TORSDOF 4
ENDMDL
MODEL 3
REMARK VINA RESULT:      -9.1      1.671      4.082
REMARK  Name = 
REMARK  5 active torsions:
REMARK  status: ('A' for Active; 'I' for Inactive)
REMARK    1  A    between atoms: C_1  and  O_2
REMARK    2  A    between atoms: O_2  and  C_3
REMARK    3  A    between atoms: C_6  and  C_7
REMARK    4  A    between atoms: C_8  and  C_9
REMARK    5  A    between atoms: C_18  and  O_19
REMARK                            x       y       z     vdW  Elec       q    Type
REMARK                         _______ _______ _______ _____ _____    ______ ____
ROOT
ATOM      1  C   UNL     1       3.704   6.853  18.812  0.00  0.00    +0.000 A 
ATOM      2  C   UNL     1       3.655   5.597  19.433  0.00  0.00    +0.000 A 
ATOM      3  O   UNL     1       4.966   5.309  19.753  0.00  0.00    +0.000 OA
ATOM      4  C   UNL     1       5.622   5.757  18.629  0.00  0.00    +0.000 A 
ATOM      5  C   UNL     1       6.835   5.213  18.232  0.00  0.00    +0.000 A 
ATOM      6  C   UNL     1       6.817   4.816  16.905  0.00  0.00    +0.000 A 
ATOM      7  C   UNL     1       5.752   5.147  16.051  0.00  0.00    +0.000 A 
ATOM      8  C   UNL     1       4.703   6.016  16.463  0.00  0.00    +0.000 A 
ATOM      9  C   UNL     1       4.654   6.386  17.827  0.00  0.00    +0.000 A 
ENDROOT
BRANCH   1  13
ATOM     10  C   UNL     1       0.530   9.724  19.193  0.00  0.00    +0.000 A 
ATOM     11  C   UNL     1       1.109   9.419  17.980  0.00  0.00    +0.000 A 
ATOM     12  C   UNL     1       2.036   8.365  17.887  0.00  0.00    +0.000 A 
ATOM     13  C   UNL     1       2.471   7.647  19.031  0.00  0.00    +0.000 A 
ATOM     14  C   UNL     1       1.815   7.898  20.231  0.00  0.00    +0.000 A 
ATOM     15  C   UNL     1       0.836   8.931  20.303  0.00  0.00    +0.000 A 
BRANCH  10  17
ATOM     16  C   UNL     1      -1.398  10.796  18.301  0.00  0.00    +0.000 C 
ATOM     17  O   UNL     1      -0.261  10.831  19.150  0.00  0.00    +0.000 OA
ENDBRANCH  10  17
ENDBRANCH   1  13
BRANCH   2  18
ATOM     18  C   UNL     1       2.743   4.473  19.082  0.00  0.00    +0.000 A 
ATOM     19  C   UNL     1       1.542   4.273  19.755  0.00  0.00    +0.000 A 
ATOM     20  C   UNL     1       0.788   3.116  19.520  0.00  0.00    +0.000 A 
ATOM     21  C   UNL     1       1.227   2.145  18.629  0.00  0.00    +0.000 A 
ATOM     22  C   UNL     1       2.441   2.295  17.980  0.00  0.00    +0.000 A 
ATOM     23  C   UNL     1       3.189   3.441  18.223  0.00  0.00    +0.000 A 
ENDBRANCH   2  18
BRANCH   6  24
ATOM     24  O   UNL     1       7.775   3.955  16.440  0.00  0.00    +0.000 OA
ATOM     25  H   UNL     1       7.463   3.045  16.564  0.00  0.00    +0.000 HD
ENDBRANCH   6  24
TORSDOF 4
ENDMDL
MODEL 4
REMARK VINA RESULT:      -8.7      2.692      5.671
REMARK  Name = 
REMARK  5 active torsions:
REMARK  status: ('A' for Active; 'I' for Inactive)
REMARK    1  A    between atoms: C_1  and  O_2
REMARK    2  A    between atoms: O_2  and  C_3
REMARK    3  A    between atoms: C_6  and  C_7
REMARK    4  A    between atoms: C_8  and  C_9
REMARK    5  A    between atoms: C_18  and  O_19
REMARK                            x       y       z     vdW  Elec       q    Type
REMARK                         _______ _______ _______ _____ _____    ______ ____
ROOT
ATOM      1  C   UNL     1       4.621   3.660  18.115  0.00  0.00    +0.000 A 
ATOM      2  C   UNL     1       4.497   4.830  18.876  0.00  0.00    +0.000 A 
ATOM      3  O   UNL     1       4.466   4.399  20.187  0.00  0.00    +0.000 OA
ATOM      4  C   UNL     1       3.674   3.278  20.082  0.00  0.00    +0.000 A 
ATOM      5  C   UNL     1       2.915   2.825  21.152  0.00  0.00    +0.000 A 
ATOM      6  C   UNL     1       1.588   2.634  20.803  0.00  0.00    +0.000 A 
ATOM      7  C   UNL     1       1.162   2.694  19.465  0.00  0.00    +0.000 A 
ATOM      8  C   UNL     1       2.084   2.821  18.389  0.00  0.00    +0.000 A 
ATOM      9  C   UNL     1       3.436   3.085  18.711  0.00  0.00    +0.000 A 
ENDROOT
BRANCH   1  13
ATOM     10  C   UNL     1       6.941   4.951  14.737  0.00  0.00    +0.000 A 
ATOM     11  C   UNL     1       7.482   4.819  15.998  0.00  0.00    +0.000 A 
ATOM     12  C   UNL     1       6.721   4.249  17.034  0.00  0.00    +0.000 A 
ATOM     13  C   UNL     1       5.363   3.877  16.851  0.00  0.00    +0.000 A 
ATOM     14  C   UNL     1       4.856   3.928  15.557  0.00  0.00    +0.000 A 
ATOM     15  C   UNL     1       5.655   4.456  14.501  0.00  0.00    +0.000 A 
BRANCH  10  17
ATOM     16  C   UNL     1       7.800   5.155  12.527  0.00  0.00    +0.000 C 
ATOM     17  O   UNL     1       7.752   5.615  13.869  0.00  0.00    +0.000 OA
ENDBRANCH  10  17
ENDBRANCH   1  13
BRANCH   2  18
ATOM     18  C   UNL     1       3.719   6.045  18.507  0.00  0.00    +0.000 A 
ATOM     19  C   UNL     1       4.112   6.871  17.458  0.00  0.00    +0.000 A 
ATOM     20  C   UNL     1       3.461   8.092  17.241  0.00  0.00    +0.000 A 
ATOM     21  C   UNL     1       2.428   8.509  18.071  0.00  0.00    +0.000 A 
ATOM     22  C   UNL     1       2.047   7.731  19.151  0.00  0.00    +0.000 A 
ATOM     23  C   UNL     1       2.702   6.524  19.366  0.00  0.00    +0.000 A 
ENDBRANCH   2  18
BRANCH   6  24
ATOM     24  O   UNL     1       0.635   2.533  21.781  0.00  0.00    +0.000 OA
ATOM     25  H   UNL     1       0.972   1.959  22.486  0.00  0.00    +0.000 HD
ENDBRANCH   6  24
TORSDOF 4
ENDMDL
MODEL 5
REMARK VINA RESULT:      -8.5      2.715      5.781
REMARK  Name = 
REMARK  5 active torsions:
REMARK  status: ('A' for Active; 'I' for Inactive)
REMARK    1  A    between atoms: C_1  and  O_2
REMARK    2  A    between atoms: O_2  and  C_3
REMARK    3  A    between atoms: C_6  and  C_7
REMARK    4  A    between atoms: C_8  and  C_9
REMARK    5  A    between atoms: C_18  and  O_19
REMARK                            x       y       z     vdW  Elec       q    Type
REMARK                         _______ _______ _______ _____ _____    ______ ____
ROOT
ATOM      1  C   UNL     1       4.568   4.184  18.098  0.00  0.00    +0.000 A 
ATOM      2  C   UNL     1       4.326   5.274  18.943  0.00  0.00    +0.000 A 
ATOM      3  O   UNL     1       4.319   4.742  20.216  0.00  0.00    +0.000 OA
ATOM      4  C   UNL     1       3.636   3.565  20.011  0.00  0.00    +0.000 A 
ATOM      5  C   UNL     1       2.910   2.962  21.028  0.00  0.00    +0.000 A 
ATOM      6  C   UNL     1       1.611   2.677  20.639  0.00  0.00    +0.000 A 
ATOM      7  C   UNL     1       1.197   2.801  19.302  0.00  0.00    +0.000 A 
ATOM      8  C   UNL     1       2.117   3.096  18.257  0.00  0.00    +0.000 A 
ATOM      9  C   UNL     1       3.434   3.457  18.625  0.00  0.00    +0.000 A 
ENDROOT
BRANCH   1  13
ATOM     10  C   UNL     1       6.592   4.588  14.329  0.00  0.00    +0.000 A 
ATOM     11  C   UNL     1       5.262   4.236  14.420  0.00  0.00    +0.000 A 
ATOM     12  C   UNL     1       4.609   4.266  15.665  0.00  0.00    +0.000 A 
ATOM     13  C   UNL     1       5.302   4.566  16.868  0.00  0.00    +0.000 A 
ATOM     14  C   UNL     1       6.616   5.008  16.755  0.00  0.00    +0.000 A 
ATOM     15  C   UNL     1       7.251   5.028  15.481  0.00  0.00    +0.000 A 
BRANCH  10  17
ATOM     16  C   UNL     1       6.459   3.492  12.221  0.00  0.00    +0.000 C 
ATOM     17  O   UNL     1       7.114   4.408  13.084  0.00  0.00    +0.000 OA
ENDBRANCH  10  17
ENDBRANCH   1  13
BRANCH   2  18
ATOM     18  C   UNL     1       3.443   6.438  18.652  0.00  0.00    +0.000 A 
ATOM     19  C   UNL     1       3.681   7.281  17.571  0.00  0.00    +0.000 A 
ATOM     20  C   UNL     1       2.938   8.459  17.420  0.00  0.00    +0.000 A 
ATOM     21  C   UNL     1       1.966   8.816  18.347  0.00  0.00    +0.000 A 
ATOM     22  C   UNL     1       1.740   8.021  19.457  0.00  0.00    +0.000 A 
ATOM     23  C   UNL     1       2.486   6.857  19.607  0.00  0.00    +0.000 A 
ENDBRANCH   2  18
BRANCH   6  24
ATOM     24  O   UNL     1       0.659   2.413  21.588  0.00  0.00    +0.000 OA
ATOM     25  H   UNL     1       0.037   3.157  21.621  0.00  0.00    +0.000 HD
ENDBRANCH   6  24
TORSDOF 4
ENDMDL
MODEL 6
REMARK VINA RESULT:      -8.1      0.882      1.126
REMARK  Name = 
REMARK  5 active torsions:
REMARK  status: ('A' for Active; 'I' for Inactive)
REMARK    1  A    between atoms: C_1  and  O_2
REMARK    2  A    between atoms: O_2  and  C_3
REMARK    3  A    between atoms: C_6  and  C_7
REMARK    4  A    between atoms: C_8  and  C_9
REMARK    5  A    between atoms: C_18  and  O_19
REMARK                            x       y       z     vdW  Elec       q    Type
REMARK                         _______ _______ _______ _____ _____    ______ ____
ROOT
ATOM      1  C   UNL     1       2.528   5.482  18.491  0.00  0.00    +0.000 A 
ATOM      2  C   UNL     1       3.214   5.265  17.288  0.00  0.00    +0.000 A 
ATOM      3  O   UNL     1       2.767   4.040  16.841  0.00  0.00    +0.000 OA
ATOM      4  C   UNL     1       2.719   3.326  18.017  0.00  0.00    +0.000 A 
ATOM      5  C   UNL     1       2.863   1.946  18.034  0.00  0.00    +0.000 A 
ATOM      6  C   UNL     1       3.835   1.536  18.932  0.00  0.00    +0.000 A 
ATOM      7  C   UNL     1       4.416   2.429  19.847  0.00  0.00    +0.000 A 
ATOM      8  C   UNL     1       3.949   3.765  19.991  0.00  0.00    +0.000 A 
ATOM      9  C   UNL     1       3.006   4.236  19.048  0.00  0.00    +0.000 A 
ENDROOT
BRANCH   1  13
ATOM     10  C   UNL     1       1.192   9.419  19.577  0.00  0.00    +0.000 A 
ATOM     11  C   UNL     1       1.429   8.435  20.513  0.00  0.00    +0.000 A 
ATOM     12  C   UNL     1       2.010   7.215  20.120  0.00  0.00    +0.000 A 
ATOM     13  C   UNL     1       2.286   6.920  18.759  0.00  0.00    +0.000 A 
ATOM     14  C   UNL     1       2.130   7.950  17.838  0.00  0.00    +0.000 A 
ATOM     15  C   UNL     1       1.594   9.202  18.256  0.00  0.00    +0.000 A 
BRANCH  10  17
ATOM     16  C   UNL     1      -0.628  10.941  19.397  0.00  0.00    +0.000 C 
ATOM     17  O   UNL     1       0.532  10.496  20.083  0.00  0.00    +0.000 OA
ENDBRANCH  10  17
ENDBRANCH   1  13
BRANCH   2  18
ATOM     18  C   UNL     1       4.617   5.666  16.987  0.00  0.00    +0.000 A 
ATOM     19  C   UNL     1       5.302   5.153  15.890  0.00  0.00    +0.000 A 
ATOM     20  C   UNL     1       6.668   5.416  15.727  0.00  0.00    +0.000 A 
ATOM     21  C   UNL     1       7.366   6.176  16.657  0.00  0.00    +0.000 A 
ATOM     22  C   UNL     1       6.721   6.661  17.782  0.00  0.00    +0.000 A 
ATOM     23  C   UNL     1       5.368   6.390  17.944  0.00  0.00    +0.000 A 
ENDBRANCH   2  18
BRANCH   6  24
ATOM     24  O   UNL     1       4.358   0.274  18.839  0.00  0.00    +0.000 OA
ATOM     25  H   UNL     1       4.500   0.064  17.903  0.00  0.00    +0.000 HD
ENDBRANCH   6  24
TORSDOF 4
ENDMDL
MODEL 7
REMARK VINA RESULT:      -8.0      0.733      1.208
REMARK  Name = 
REMARK  5 active torsions:
REMARK  status: ('A' for Active; 'I' for Inactive)
REMARK    1  A    between atoms: C_1  and  O_2
REMARK    2  A    between atoms: O_2  and  C_3
REMARK    3  A    between atoms: C_6  and  C_7
REMARK    4  A    between atoms: C_8  and  C_9
REMARK    5  A    between atoms: C_18  and  O_19
REMARK                            x       y       z     vdW  Elec       q    Type
REMARK                         _______ _______ _______ _____ _____    ______ ____
ROOT
ATOM      1  C   UNL     1       2.534   5.458  18.409  0.00  0.00    +0.000 A 
ATOM      2  C   UNL     1       3.665   5.459  17.582  0.00  0.00    +0.000 A 
ATOM      3  O   UNL     1       3.565   4.298  16.842  0.00  0.00    +0.000 OA
ATOM      4  C   UNL     1       3.120   3.410  17.796  0.00  0.00    +0.000 A 
ATOM      5  C   UNL     1       3.387   2.052  17.701  0.00  0.00    +0.000 A 
ATOM      6  C   UNL     1       3.950   1.551  18.863  0.00  0.00    +0.000 A 
ATOM      7  C   UNL     1       4.018   2.317  20.039  0.00  0.00    +0.000 A 
ATOM      8  C   UNL     1       3.397   3.594  20.140  0.00  0.00    +0.000 A 
ATOM      9  C   UNL     1       2.872   4.163  18.956  0.00  0.00    +0.000 A 
ENDROOT
BRANCH   1  13
ATOM     10  C   UNL     1       1.761   9.647  18.971  0.00  0.00    +0.000 A 
ATOM     11  C   UNL     1       1.843   9.072  17.721  0.00  0.00    +0.000 A 
ATOM     12  C   UNL     1       1.946   7.675  17.594  0.00  0.00    +0.000 A 
ATOM     13  C   UNL     1       2.057   6.825  18.726  0.00  0.00    +0.000 A 
ATOM     14  C   UNL     1       1.881   7.403  19.979  0.00  0.00    +0.000 A 
ATOM     15  C   UNL     1       1.721   8.814  20.094  0.00  0.00    +0.000 A 
BRANCH  10  17
ATOM     16  C   UNL     1       1.076  11.697  19.966  0.00  0.00    +0.000 C 
ATOM     17  O   UNL     1       1.774  11.008  18.941  0.00  0.00    +0.000 OA
ENDBRANCH  10  17
ENDBRANCH   1  13
BRANCH   2  18
ATOM     18  C   UNL     1       5.021   5.962  17.940  0.00  0.00    +0.000 A 
ATOM     19  C   UNL     1       5.678   6.907  17.158  0.00  0.00    +0.000 A 
ATOM     20  C   UNL     1       7.013   7.236  17.424  0.00  0.00    +0.000 A 
ATOM     21  C   UNL     1       7.709   6.619  18.455  0.00  0.00    +0.000 A 
ATOM     22  C   UNL     1       7.097   5.640  19.220  0.00  0.00    +0.000 A 
ATOM     23  C   UNL     1       5.774   5.312  18.946  0.00  0.00    +0.000 A 
ENDBRANCH   2  18
BRANCH   6  24
ATOM     24  O   UNL     1       4.594   0.343  18.842  0.00  0.00    +0.000 OA
ATOM     25  H   UNL     1       4.578  -0.035  19.735  0.00  0.00    +0.000 HD
ENDBRANCH   6  24
TORSDOF 4
ENDMDL
MODEL 8
REMARK VINA RESULT:      -7.9      2.568      8.786
REMARK  Name = 
REMARK  5 active torsions:
REMARK  status: ('A' for Active; 'I' for Inactive)
REMARK    1  A    between atoms: C_1  and  O_2
REMARK    2  A    between atoms: O_2  and  C_3
REMARK    3  A    between atoms: C_6  and  C_7
REMARK    4  A    between atoms: C_8  and  C_9
REMARK    5  A    between atoms: C_18  and  O_19
REMARK                            x       y       z     vdW  Elec       q    Type
REMARK                         _______ _______ _______ _____ _____    ______ ____
ROOT
ATOM      1  C   UNL     1       0.830  10.564  20.068  0.00  0.00    +0.000 A 
ATOM      2  C   UNL     1       0.012  11.369  19.264  0.00  0.00    +0.000 A 
ATOM      3  O   UNL     1       0.206  12.652  19.733  0.00  0.00    +0.000 OA
ATOM      4  C   UNL     1       0.240  12.438  21.092  0.00  0.00    +0.000 A 
ATOM      5  C   UNL     1      -0.130  13.428  21.991  0.00  0.00    +0.000 A 
ATOM      6  C   UNL     1      -1.072  12.977  22.902  0.00  0.00    +0.000 A 
ATOM      7  C   UNL     1      -1.411  11.618  22.999  0.00  0.00    +0.000 A 
ATOM      8  C   UNL     1      -0.716  10.617  22.264  0.00  0.00    +0.000 A 
ATOM      9  C   UNL     1       0.204  11.046  21.278  0.00  0.00    +0.000 A 
ENDROOT
BRANCH   1  13
ATOM     10  C   UNL     1       2.804   7.073  18.524  0.00  0.00    +0.000 A 
ATOM     11  C   UNL     1       2.230   7.104  19.778  0.00  0.00    +0.000 A 
ATOM     12  C   UNL     1       1.466   8.217  20.174  0.00  0.00    +0.000 A 
ATOM     13  C   UNL     1       1.333   9.366  19.352  0.00  0.00    +0.000 A 
ATOM     14  C   UNL     1       1.836   9.288  18.058  0.00  0.00    +0.000 A 
ATOM     15  C   UNL     1       2.561   8.133  17.646  0.00  0.00    +0.000 A 
BRANCH  10  17
ATOM     16  C   UNL     1       4.048   5.276  19.466  0.00  0.00    +0.000 C 
ATOM     17  O   UNL     1       3.599   5.987  18.322  0.00  0.00    +0.000 OA
ENDBRANCH  10  17
ENDBRANCH   1  13
BRANCH   2  18
ATOM     18  C   UNL     1      -1.325  11.003  18.719  0.00  0.00    +0.000 A 
ATOM     19  C   UNL     1      -1.467  10.054  17.712  0.00  0.00    +0.000 A 
ATOM     20  C   UNL     1      -2.713   9.853  17.105  0.00  0.00    +0.000 A 
ATOM     21  C   UNL     1      -3.821  10.602  17.481  0.00  0.00    +0.000 A 
ATOM     22  C   UNL     1      -3.700  11.586  18.447  0.00  0.00    +0.000 A 
ATOM     23  C   UNL     1      -2.459  11.787  19.041  0.00  0.00    +0.000 A 
ENDBRANCH   2  18
BRANCH   6  24
ATOM     24  O   UNL     1      -1.805  13.879  23.625  0.00  0.00    +0.000 OA
ATOM     25  H   UNL     1      -2.162  13.433  24.409  0.00  0.00    +0.000 HD
ENDBRANCH   6  24
TORSDOF 4
ENDMDL
MODEL 9
REMARK VINA RESULT:      -7.7      2.115      5.006
REMARK  Name = 
REMARK  5 active torsions:
REMARK  status: ('A' for Active; 'I' for Inactive)
REMARK    1  A    between atoms: C_1  and  O_2
REMARK    2  A    between atoms: O_2  and  C_3
REMARK    3  A    between atoms: C_6  and  C_7
REMARK    4  A    between atoms: C_8  and  C_9
REMARK    5  A    between atoms: C_18  and  O_19
REMARK                            x       y       z     vdW  Elec       q    Type
REMARK                         _______ _______ _______ _____ _____    ______ ____
ROOT
ATOM      1  C   UNL     1       4.801   4.789  18.747  0.00  0.00    +0.000 A 
ATOM      2  C   UNL     1       3.890   5.451  19.580  0.00  0.00    +0.000 A 
ATOM      3  O   UNL     1       3.379   4.466  20.401  0.00  0.00    +0.000 OA
ATOM      4  C   UNL     1       3.228   3.427  19.510  0.00  0.00    +0.000 A 
ATOM      5  C   UNL     1       2.274   2.439  19.705  0.00  0.00    +0.000 A 
ATOM      6  C   UNL     1       1.476   2.260  18.586  0.00  0.00    +0.000 A 
ATOM      7  C   UNL     1       1.781   2.872  17.358  0.00  0.00    +0.000 A 
ATOM      8  C   UNL     1       2.989   3.599  17.161  0.00  0.00    +0.000 A 
ATOM      9  C   UNL     1       3.791   3.857  18.297  0.00  0.00    +0.000 A 
ENDROOT
BRANCH   1  13
ATOM     10  C   UNL     1       8.006   7.599  18.211  0.00  0.00    +0.000 A 
ATOM     11  C   UNL     1       8.038   6.619  19.180  0.00  0.00    +0.000 A 
ATOM     12  C   UNL     1       7.036   5.632  19.214  0.00  0.00    +0.000 A 
ATOM     13  C   UNL     1       5.927   5.658  18.328  0.00  0.00    +0.000 A 
ATOM     14  C   UNL     1       5.952   6.593  17.300  0.00  0.00    +0.000 A 
ATOM     15  C   UNL     1       7.002   7.554  17.240  0.00  0.00    +0.000 A 
BRANCH  10  17
ATOM     16  C   UNL     1       8.584   9.906  18.310  0.00  0.00    +0.000 C 
ATOM     17  O   UNL     1       8.975   8.543  18.368  0.00  0.00    +0.000 OA
ENDBRANCH  10  17
ENDBRANCH   1  13
BRANCH   2  18
ATOM     18  C   UNL     1       3.007   6.588  19.197  0.00  0.00    +0.000 A 
ATOM     19  C   UNL     1       3.116   7.209  17.957  0.00  0.00    +0.000 A 
ATOM     20  C   UNL     1       2.392   8.378  17.689  0.00  0.00    +0.000 A 
ATOM     21  C   UNL     1       1.570   8.947  18.653  0.00  0.00    +0.000 A 
ATOM     22  C   UNL     1       1.478   8.378  19.912  0.00  0.00    +0.000 A 
ATOM     23  C   UNL     1       2.205   7.222  20.175  0.00  0.00    +0.000 A 
ENDBRANCH   2  18
BRANCH   6  24
ATOM     24  O   UNL     1       0.283   1.598  18.699  0.00  0.00    +0.000 OA
ATOM     25  H   UNL     1       0.284   1.094  19.528  0.00  0.00    +0.000 HD
ENDBRANCH   6  24
TORSDOF 4
ENDMDL
