MODEL 1
REMARK VINA RESULT:      -6.5      0.000      0.000
REMARK  Name = 
REMARK  10 active torsions:
REMARK  status: ('A' for Active; 'I' for Inactive)
REMARK    1  A    between atoms: C_1  and  C_2
REMARK    2  A    between atoms: C_2  and  N_3
REMARK    3  A    between atoms: C_5  and  C_6
REMARK    4  A    between atoms: C_7  and  C_8
REMARK    5  A    between atoms: N_9  and  C_10
REMARK    6  A    between atoms: C_10  and  C_11
REMARK    7  A    between atoms: C_22  and  C_23
REMARK    8  A    between atoms: C_22  and  C_24
REMARK    9  A    between atoms: C_25  and  C_26
REMARK   10  A    between atoms: C_25  and  C_27
REMARK                            x       y       z     vdW  Elec       q    Type
REMARK                         _______ _______ _______ _____ _____    ______ ____
ROOT
ATOM      1  C   UNL     1      -1.854  15.392  19.801  0.00  0.00    +0.000 C 
ATOM      2  C   UNL     1      -0.656  14.787  19.574  0.00  0.00    +0.000 C 
ENDROOT
BRANCH   1   5
ATOM      3  N   UNL     1      -4.520  16.619  19.823  0.00  0.00    +0.000 N 
ATOM      4  C   UNL     1      -3.416  17.381  20.343  0.00  0.00    +0.000 C 
ATOM      5  C   UNL     1      -2.182  16.874  19.948  0.00  0.00    +0.000 C 
ATOM      6  C   UNL     1      -3.909  17.612  21.879  0.00  0.00    +0.000 C 
ATOM      7  C   UNL     1      -3.045  18.478  22.798  0.00  0.00    +0.000 C 
ATOM      8  C   UNL     1      -5.378  18.189  22.178  0.00  0.00    +0.000 C 
ATOM      9  C   UNL     1      -4.148  16.141  22.110  0.00  0.00    +0.000 A 
ATOM     10  C   UNL     1      -4.903  15.750  20.931  0.00  0.00    +0.000 A 
ATOM     11  C   UNL     1      -5.332  14.447  20.820  0.00  0.00    +0.000 A 
ATOM     12  C   UNL     1      -4.805  13.515  21.735  0.00  0.00    +0.000 A 
ATOM     13  C   UNL     1      -3.744  13.861  22.627  0.00  0.00    +0.000 A 
ATOM     14  C   UNL     1      -2.895  12.890  23.219  0.00  0.00    +0.000 A 
ATOM     15  C   UNL     1      -1.695  13.245  23.863  0.00  0.00    +0.000 A 
ATOM     16  C   UNL     1      -1.368  14.576  24.028  0.00  0.00    +0.000 A 
ATOM     17  C   UNL     1      -2.265  15.536  23.575  0.00  0.00    +0.000 A 
ATOM     18  C   UNL     1      -3.423  15.220  22.828  0.00  0.00    +0.000 A 
BRANCH   3  20
ATOM     19  C   UNL     1      -6.475  16.551  18.312  0.00  0.00    +0.000 C 
ATOM     20  C   UNL     1      -5.490  17.464  19.073  0.00  0.00    +0.000 C 
ENDBRANCH   3  20
ENDBRANCH   1   5
BRANCH   2  21
ATOM     21  C   UNL     1      -0.406  13.279  19.598  0.00  0.00    +0.000 C 
ATOM     22  N   UNL     1      -1.265  12.310  19.836  0.00  0.00    +0.000 N 
ATOM     23  C   UNL     1      -0.553  11.102  20.084  0.00  0.00    +0.000 A 
ATOM     24  C   UNL     1      -0.624  10.220  21.149  0.00  0.00    +0.000 A 
ATOM     25  C   UNL     1       0.404   9.251  21.269  0.00  0.00    +0.000 A 
ATOM     26  C   UNL     1       1.261   9.017  20.172  0.00  0.00    +0.000 A 
ATOM     27  C   UNL     1       1.943   7.798  19.989  0.00  0.00    +0.000 A 
ATOM     28  C   UNL     1       2.362   7.410  18.713  0.00  0.00    +0.000 A 
ATOM     29  C   UNL     1       2.133   8.260  17.636  0.00  0.00    +0.000 A 
ATOM     30  C   UNL     1       1.662   9.561  17.867  0.00  0.00    +0.000 A 
ATOM     31  C   UNL     1       1.286   9.981  19.158  0.00  0.00    +0.000 A 
ATOM     32  C   UNL     1       0.642  11.182  19.445  0.00  0.00    +0.000 A 
ATOM     33  C   UNL     1       1.043  12.631  19.698  0.00  0.00    +0.000 C 
ATOM     34  C   UNL     1       2.273  12.993  18.887  0.00  0.00    +0.000 C 
ATOM     35  C   UNL     1       1.392  12.924  21.203  0.00  0.00    +0.000 C 
BRANCH  22  36
ATOM     36  C   UNL     1      -2.542  12.108  19.068  0.00  0.00    +0.000 C 
ATOM     37  C   UNL     1      -2.237  11.489  17.692  0.00  0.00    +0.000 C 
ENDBRANCH  22  36
ENDBRANCH   2  21
TORSDOF 4
ENDMDL
MODEL 2
REMARK VINA RESULT:      -6.4      7.132     12.098
REMARK  Name = 
REMARK  10 active torsions:
REMARK  status: ('A' for Active; 'I' for Inactive)
REMARK    1  A    between atoms: C_1  and  C_2
REMARK    2  A    between atoms: C_2  and  N_3
REMARK    3  A    between atoms: C_5  and  C_6
REMARK    4  A    between atoms: C_7  and  C_8
REMARK    5  A    between atoms: N_9  and  C_10
REMARK    6  A    between atoms: C_10  and  C_11
REMARK    7  A    between atoms: C_22  and  C_23
REMARK    8  A    between atoms: C_22  and  C_24
REMARK    9  A    between atoms: C_25  and  C_26
REMARK   10  A    between atoms: C_25  and  C_27
REMARK                            x       y       z     vdW  Elec       q    Type
REMARK                         _______ _______ _______ _____ _____    ______ ____
ROOT
ATOM      1  C   UNL     1       7.617  14.288  18.986  0.00  0.00    +0.000 C 
ATOM      2  C   UNL     1       6.437  14.952  18.857  0.00  0.00    +0.000 C 
ENDROOT
BRANCH   1   5
ATOM      3  N   UNL     1      10.404  14.383  18.067  0.00  0.00    +0.000 N 
ATOM      4  C   UNL     1       9.677  13.152  17.910  0.00  0.00    +0.000 C 
ATOM      5  C   UNL     1       8.301  13.323  18.023  0.00  0.00    +0.000 C 
ATOM      6  C   UNL     1      10.592  12.147  18.809  0.00  0.00    +0.000 C 
ATOM      7  C   UNL     1      10.219  10.664  18.851  0.00  0.00    +0.000 C 
ATOM      8  C   UNL     1      12.180  12.073  18.573  0.00  0.00    +0.000 C 
ATOM      9  C   UNL     1      10.543  13.049  20.016  0.00  0.00    +0.000 A 
ATOM     10  C   UNL     1      10.855  14.353  19.455  0.00  0.00    +0.000 A 
ATOM     11  C   UNL     1      10.932  15.437  20.299  0.00  0.00    +0.000 A 
ATOM     12  C   UNL     1      10.465  15.263  21.616  0.00  0.00    +0.000 A 
ATOM     13  C   UNL     1       9.781  14.074  22.015  0.00  0.00    +0.000 A 
ATOM     14  C   UNL     1       8.919  14.029  23.141  0.00  0.00    +0.000 A 
ATOM     15  C   UNL     1       8.041  12.951  23.364  0.00  0.00    +0.000 A 
ATOM     16  C   UNL     1       8.080  11.848  22.536  0.00  0.00    +0.000 A 
ATOM     17  C   UNL     1       9.022  11.824  21.513  0.00  0.00    +0.000 A 
ATOM     18  C   UNL     1       9.841  12.930  21.192  0.00  0.00    +0.000 A 
BRANCH   3  20
ATOM     19  C   UNL     1      12.240  15.835  17.277  0.00  0.00    +0.000 C 
ATOM     20  C   UNL     1      11.309  14.658  16.918  0.00  0.00    +0.000 C 
ENDBRANCH   3  20
ENDBRANCH   1   5
BRANCH   2  21
ATOM     21  C   UNL     1       5.761  15.780  19.951  0.00  0.00    +0.000 C 
ATOM     22  N   UNL     1       6.265  16.765  20.663  0.00  0.00    +0.000 N 
ATOM     23  C   UNL     1       5.416  17.024  21.776  0.00  0.00    +0.000 A 
ATOM     24  C   UNL     1       5.703  17.085  23.129  0.00  0.00    +0.000 A 
ATOM     25  C   UNL     1       4.611  17.077  24.033  0.00  0.00    +0.000 A 
ATOM     26  C   UNL     1       3.310  17.317  23.542  0.00  0.00    +0.000 A 
ATOM     27  C   UNL     1       2.274  17.821  24.354  0.00  0.00    +0.000 A 
ATOM     28  C   UNL     1       1.194  18.498  23.778  0.00  0.00    +0.000 A 
ATOM     29  C   UNL     1       1.136  18.630  22.395  0.00  0.00    +0.000 A 
ATOM     30  C   UNL     1       2.049  17.930  21.592  0.00  0.00    +0.000 A 
ATOM     31  C   UNL     1       3.110  17.202  22.162  0.00  0.00    +0.000 A 
ATOM     32  C   UNL     1       4.159  16.634  21.443  0.00  0.00    +0.000 A 
ATOM     33  C   UNL     1       4.418  15.338  20.680  0.00  0.00    +0.000 C 
ATOM     34  C   UNL     1       3.140  14.835  20.036  0.00  0.00    +0.000 C 
ATOM     35  C   UNL     1       4.950  14.176  21.597  0.00  0.00    +0.000 C 
BRANCH  22  36
ATOM     36  C   UNL     1       6.874  18.007  20.070  0.00  0.00    +0.000 C 
ATOM     37  C   UNL     1       8.274  18.243  20.665  0.00  0.00    +0.000 C 
ENDBRANCH  22  36
ENDBRANCH   2  21
TORSDOF 4
ENDMDL
MODEL 3
REMARK VINA RESULT:      -6.2      2.901      4.237
REMARK  Name = 
REMARK  10 active torsions:
REMARK  status: ('A' for Active; 'I' for Inactive)
REMARK    1  A    between atoms: C_1  and  C_2
REMARK    2  A    between atoms: C_2  and  N_3
REMARK    3  A    between atoms: C_5  and  C_6
REMARK    4  A    between atoms: C_7  and  C_8
REMARK    5  A    between atoms: N_9  and  C_10
REMARK    6  A    between atoms: C_10  and  C_11
REMARK    7  A    between atoms: C_22  and  C_23
REMARK    8  A    between atoms: C_22  and  C_24
REMARK    9  A    between atoms: C_25  and  C_26
REMARK   10  A    between atoms: C_25  and  C_27
REMARK                            x       y       z     vdW  Elec       q    Type
REMARK                         _______ _______ _______ _____ _____    ______ ____
ROOT
ATOM      1  C   UNL     1      -3.644  15.912  20.621  0.00  0.00    +0.000 C 
ATOM      2  C   UNL     1      -2.486  16.623  20.546  0.00  0.00    +0.000 C 
ENDROOT
BRANCH   1   5
ATOM      3  N   UNL     1      -5.949  14.239  21.329  0.00  0.00    +0.000 N 
ATOM      4  C   UNL     1      -6.002  15.641  21.648  0.00  0.00    +0.000 C 
ATOM      5  C   UNL     1      -5.056  16.385  20.952  0.00  0.00    +0.000 C 
ATOM      6  C   UNL     1      -6.162  15.573  23.269  0.00  0.00    +0.000 C 
ATOM      7  C   UNL     1      -6.348  16.883  24.037  0.00  0.00    +0.000 C 
ATOM      8  C   UNL     1      -7.297  14.647  23.931  0.00  0.00    +0.000 C 
ATOM      9  C   UNL     1      -4.958  14.679  23.432  0.00  0.00    +0.000 A 
ATOM     10  C   UNL     1      -5.180  13.656  22.424  0.00  0.00    +0.000 A 
ATOM     11  C   UNL     1      -4.271  12.628  22.310  0.00  0.00    +0.000 A 
ATOM     12  C   UNL     1      -3.056  12.763  23.010  0.00  0.00    +0.000 A 
ATOM     13  C   UNL     1      -2.704  13.980  23.668  0.00  0.00    +0.000 A 
ATOM     14  C   UNL     1      -1.362  14.321  23.980  0.00  0.00    +0.000 A 
ATOM     15  C   UNL     1      -0.995  15.624  24.367  0.00  0.00    +0.000 A 
ATOM     16  C   UNL     1      -1.967  16.585  24.558  0.00  0.00    +0.000 A 
ATOM     17  C   UNL     1      -3.297  16.220  24.391  0.00  0.00    +0.000 A 
ATOM     18  C   UNL     1      -3.696  14.957  23.898  0.00  0.00    +0.000 A 
BRANCH   3  20
ATOM     19  C   UNL     1      -7.037  12.466  19.995  0.00  0.00    +0.000 C 
ATOM     20  C   UNL     1      -7.266  13.709  20.881  0.00  0.00    +0.000 C 
ENDBRANCH   3  20
ENDBRANCH   1   5
BRANCH   2  21
ATOM     21  C   UNL     1      -1.090  16.027  20.359  0.00  0.00    +0.000 C 
ATOM     22  N   UNL     1      -0.691  14.792  20.580  0.00  0.00    +0.000 N 
ATOM     23  C   UNL     1       0.732  14.755  20.594  0.00  0.00    +0.000 A 
ATOM     24  C   UNL     1       1.609  14.262  21.546  0.00  0.00    +0.000 A 
ATOM     25  C   UNL     1       2.976  14.615  21.426  0.00  0.00    +0.000 A 
ATOM     26  C   UNL     1       3.439  15.172  20.214  0.00  0.00    +0.000 A 
ATOM     27  C   UNL     1       4.785  15.088  19.806  0.00  0.00    +0.000 A 
ATOM     28  C   UNL     1       5.118  15.187  18.452  0.00  0.00    +0.000 A 
ATOM     29  C   UNL     1       4.110  15.410  17.520  0.00  0.00    +0.000 A 
ATOM     30  C   UNL     1       2.814  15.717  17.960  0.00  0.00    +0.000 A 
ATOM     31  C   UNL     1       2.480  15.672  19.327  0.00  0.00    +0.000 A 
ATOM     32  C   UNL     1       1.186  15.783  19.831  0.00  0.00    +0.000 A 
ATOM     33  C   UNL     1       0.226  16.907  20.206  0.00  0.00    +0.000 C 
ATOM     34  C   UNL     1       0.434  18.108  19.304  0.00  0.00    +0.000 C 
ATOM     35  C   UNL     1       0.413  17.413  21.684  0.00  0.00    +0.000 C 
BRANCH  22  36
ATOM     36  C   UNL     1      -1.317  13.578  19.950  0.00  0.00    +0.000 C 
ATOM     37  C   UNL     1      -0.598  13.237  18.633  0.00  0.00    +0.000 C 
ENDBRANCH  22  36
ENDBRANCH   2  21
TORSDOF 4
ENDMDL
MODEL 4
REMARK VINA RESULT:      -6.2      7.135     11.875
REMARK  Name = 
REMARK  10 active torsions:
REMARK  status: ('A' for Active; 'I' for Inactive)
REMARK    1  A    between atoms: C_1  and  C_2
REMARK    2  A    between atoms: C_2  and  N_3
REMARK    3  A    between atoms: C_5  and  C_6
REMARK    4  A    between atoms: C_7  and  C_8
REMARK    5  A    between atoms: N_9  and  C_10
REMARK    6  A    between atoms: C_10  and  C_11
REMARK    7  A    between atoms: C_22  and  C_23
REMARK    8  A    between atoms: C_22  and  C_24
REMARK    9  A    between atoms: C_25  and  C_26
REMARK   10  A    between atoms: C_25  and  C_27
REMARK                            x       y       z     vdW  Elec       q    Type
REMARK                         _______ _______ _______ _____ _____    ______ ____
ROOT
ATOM      1  C   UNL     1       7.472  14.509  19.106  0.00  0.00    +0.000 C 
ATOM      2  C   UNL     1       6.341  15.262  19.035  0.00  0.00    +0.000 C 
ENDROOT
BRANCH   1   5
ATOM      3  N   UNL     1      10.198  15.239  18.295  0.00  0.00    +0.000 N 
ATOM      4  C   UNL     1       9.681  13.964  17.874  0.00  0.00    +0.000 C 
ATOM      5  C   UNL     1       8.296  13.884  17.985  0.00  0.00    +0.000 C 
ATOM      6  C   UNL     1      10.756  12.959  18.574  0.00  0.00    +0.000 C 
ATOM      7  C   UNL     1      10.630  11.458  18.305  0.00  0.00    +0.000 C 
ATOM      8  C   UNL     1      12.333  13.193  18.368  0.00  0.00    +0.000 C 
ATOM      9  C   UNL     1      10.570  13.576  19.937  0.00  0.00    +0.000 A 
ATOM     10  C   UNL     1      10.659  15.000  19.659  0.00  0.00    +0.000 A 
ATOM     11  C   UNL     1      10.566  15.888  20.707  0.00  0.00    +0.000 A 
ATOM     12  C   UNL     1      10.144  15.375  21.949  0.00  0.00    +0.000 A 
ATOM     13  C   UNL     1       9.668  14.036  22.083  0.00  0.00    +0.000 A 
ATOM     14  C   UNL     1       8.834  13.623  23.154  0.00  0.00    +0.000 A 
ATOM     15  C   UNL     1       8.146  12.395  23.132  0.00  0.00    +0.000 A 
ATOM     16  C   UNL     1       8.359  11.505  22.099  0.00  0.00    +0.000 A 
ATOM     17  C   UNL     1       9.283  11.842  21.116  0.00  0.00    +0.000 A 
ATOM     18  C   UNL     1       9.907  13.108  21.047  0.00  0.00    +0.000 A 
BRANCH   3  20
ATOM     19  C   UNL     1      10.758  17.403  17.242  0.00  0.00    +0.000 C 
ATOM     20  C   UNL     1      11.036  15.885  17.249  0.00  0.00    +0.000 C 
ENDBRANCH   3  20
ENDBRANCH   1   5
BRANCH   2  21
ATOM     21  C   UNL     1       5.500  15.713  20.230  0.00  0.00    +0.000 C 
ATOM     22  N   UNL     1       4.219  15.511  20.453  0.00  0.00    +0.000 N 
ATOM     23  C   UNL     1       3.783  16.372  21.500  0.00  0.00    +0.000 A 
ATOM     24  C   UNL     1       2.736  17.277  21.542  0.00  0.00    +0.000 A 
ATOM     25  C   UNL     1       2.711  18.203  22.614  0.00  0.00    +0.000 A 
ATOM     26  C   UNL     1       3.541  17.982  23.734  0.00  0.00    +0.000 A 
ATOM     27  C   UNL     1       3.249  18.506  25.009  0.00  0.00    +0.000 A 
ATOM     28  C   UNL     1       3.769  17.898  26.156  0.00  0.00    +0.000 A 
ATOM     29  C   UNL     1       4.608  16.797  26.019  0.00  0.00    +0.000 A 
ATOM     30  C   UNL     1       5.069  16.431  24.746  0.00  0.00    +0.000 A 
ATOM     31  C   UNL     1       4.592  17.071  23.587  0.00  0.00    +0.000 A 
ATOM     32  C   UNL     1       4.855  16.653  22.284  0.00  0.00    +0.000 A 
ATOM     33  C   UNL     1       5.965  16.838  21.254  0.00  0.00    +0.000 C 
ATOM     34  C   UNL     1       7.312  16.963  21.940  0.00  0.00    +0.000 C 
ATOM     35  C   UNL     1       5.784  18.129  20.374  0.00  0.00    +0.000 C 
BRANCH  22  36
ATOM     36  C   UNL     1       3.572  14.153  20.483  0.00  0.00    +0.000 C 
ATOM     37  C   UNL     1       2.546  14.034  19.341  0.00  0.00    +0.000 C 
ENDBRANCH  22  36
ENDBRANCH   2  21
TORSDOF 4
ENDMDL
MODEL 5
REMARK VINA RESULT:      -6.1      9.012     12.303
REMARK  Name = 
REMARK  10 active torsions:
REMARK  status: ('A' for Active; 'I' for Inactive)
REMARK    1  A    between atoms: C_1  and  C_2
REMARK    2  A    between atoms: C_2  and  N_3
REMARK    3  A    between atoms: C_5  and  C_6
REMARK    4  A    between atoms: C_7  and  C_8
REMARK    5  A    between atoms: N_9  and  C_10
REMARK    6  A    between atoms: C_10  and  C_11
REMARK    7  A    between atoms: C_22  and  C_23
REMARK    8  A    between atoms: C_22  and  C_24
REMARK    9  A    between atoms: C_25  and  C_26
REMARK   10  A    between atoms: C_25  and  C_27
REMARK                            x       y       z     vdW  Elec       q    Type
REMARK                         _______ _______ _______ _____ _____    ______ ____
ROOT
ATOM      1  C   UNL     1      10.502  14.863  21.224  0.00  0.00    +0.000 C 
ATOM      2  C   UNL     1      10.162  15.378  22.437  0.00  0.00    +0.000 C 
ENDROOT
BRANCH   1   5
ATOM      3  N   UNL     1      10.714  14.123  18.391  0.00  0.00    +0.000 N 
ATOM      4  C   UNL     1      11.417  15.294  18.843  0.00  0.00    +0.000 C 
ATOM      5  C   UNL     1      11.554  15.336  20.227  0.00  0.00    +0.000 C 
ATOM      6  C   UNL     1      10.719  16.439  17.916  0.00  0.00    +0.000 C 
ATOM      7  C   UNL     1      11.244  17.873  18.012  0.00  0.00    +0.000 C 
ATOM      8  C   UNL     1      10.616  16.238  16.325  0.00  0.00    +0.000 C 
ATOM      9  C   UNL     1       9.324  16.037  18.327  0.00  0.00    +0.000 A 
ATOM     10  C   UNL     1       9.349  14.592  18.174  0.00  0.00    +0.000 A 
ATOM     11  C   UNL     1       8.202  13.877  18.436  0.00  0.00    +0.000 A 
ATOM     12  C   UNL     1       7.148  14.562  19.071  0.00  0.00    +0.000 A 
ATOM     13  C   UNL     1       7.315  15.886  19.579  0.00  0.00    +0.000 A 
ATOM     14  C   UNL     1       6.480  16.429  20.589  0.00  0.00    +0.000 A 
ATOM     15  C   UNL     1       6.816  17.610  21.278  0.00  0.00    +0.000 A 
ATOM     16  C   UNL     1       7.929  18.334  20.902  0.00  0.00    +0.000 A 
ATOM     17  C   UNL     1       8.674  17.883  19.819  0.00  0.00    +0.000 A 
ATOM     18  C   UNL     1       8.432  16.648  19.176  0.00  0.00    +0.000 A 
BRANCH   3  20
ATOM     19  C   UNL     1      11.583  11.881  17.825  0.00  0.00    +0.000 C 
ATOM     20  C   UNL     1      11.486  13.354  17.377  0.00  0.00    +0.000 C 
ENDBRANCH   3  20
ENDBRANCH   1   5
BRANCH   2  21
ATOM     21  C   UNL     1       8.981  14.921  23.294  0.00  0.00    +0.000 C 
ATOM     22  N   UNL     1       7.876  14.317  22.911  0.00  0.00    +0.000 N 
ATOM     23  C   UNL     1       6.919  14.375  23.964  0.00  0.00    +0.000 A 
ATOM     24  C   UNL     1       5.612  14.831  23.967  0.00  0.00    +0.000 A 
ATOM     25  C   UNL     1       4.989  15.034  25.224  0.00  0.00    +0.000 A 
ATOM     26  C   UNL     1       5.583  14.489  26.382  0.00  0.00    +0.000 A 
ATOM     27  C   UNL     1       4.844  14.190  27.544  0.00  0.00    +0.000 A 
ATOM     28  C   UNL     1       5.313  13.235  28.451  0.00  0.00    +0.000 A 
ATOM     29  C   UNL     1       6.535  12.615  28.211  0.00  0.00    +0.000 A 
ATOM     30  C   UNL     1       7.361  13.084  27.179  0.00  0.00    +0.000 A 
ATOM     31  C   UNL     1       6.919  14.083  26.291  0.00  0.00    +0.000 A 
ATOM     32  C   UNL     1       7.595  14.475  25.138  0.00  0.00    +0.000 A 
ATOM     33  C   UNL     1       8.723  15.436  24.777  0.00  0.00    +0.000 C 
ATOM     34  C   UNL     1       9.727  15.528  25.909  0.00  0.00    +0.000 C 
ATOM     35  C   UNL     1       8.223  16.901  24.496  0.00  0.00    +0.000 C 
BRANCH  22  36
ATOM     36  C   UNL     1       7.845  13.024  22.143  0.00  0.00    +0.000 C 
ATOM     37  C   UNL     1       8.208  11.851  23.070  0.00  0.00    +0.000 C 
ENDBRANCH  22  36
ENDBRANCH   2  21
TORSDOF 4
ENDMDL
MODEL 6
REMARK VINA RESULT:      -6.0      2.926      4.911
REMARK  Name = 
REMARK  10 active torsions:
REMARK  status: ('A' for Active; 'I' for Inactive)
REMARK    1  A    between atoms: C_1  and  C_2
REMARK    2  A    between atoms: C_2  and  N_3
REMARK    3  A    between atoms: C_5  and  C_6
REMARK    4  A    between atoms: C_7  and  C_8
REMARK    5  A    between atoms: N_9  and  C_10
REMARK    6  A    between atoms: C_10  and  C_11
REMARK    7  A    between atoms: C_22  and  C_23
REMARK    8  A    between atoms: C_22  and  C_24
REMARK    9  A    between atoms: C_25  and  C_26
REMARK   10  A    between atoms: C_25  and  C_27
REMARK                            x       y       z     vdW  Elec       q    Type
REMARK                         _______ _______ _______ _____ _____    ______ ____
ROOT
ATOM      1  C   UNL     1      -3.342  15.711  21.068  0.00  0.00    +0.000 C 
ATOM      2  C   UNL     1      -2.444  15.076  20.268  0.00  0.00    +0.000 C 
ENDROOT
BRANCH   1   5
ATOM      3  N   UNL     1      -4.906  13.259  21.466  0.00  0.00    +0.000 N 
ATOM      4  C   UNL     1      -5.557  14.524  21.679  0.00  0.00    +0.000 C 
ATOM      5  C   UNL     1      -4.862  15.588  21.114  0.00  0.00    +0.000 C 
ATOM      6  C   UNL     1      -5.979  14.383  23.247  0.00  0.00    +0.000 C 
ATOM      7  C   UNL     1      -6.799  15.507  23.884  0.00  0.00    +0.000 C 
ATOM      8  C   UNL     1      -6.768  13.079  23.757  0.00  0.00    +0.000 C 
ATOM      9  C   UNL     1      -4.577  14.033  23.678  0.00  0.00    +0.000 A 
ATOM     10  C   UNL     1      -4.191  13.015  22.714  0.00  0.00    +0.000 A 
ATOM     11  C   UNL     1      -2.951  12.429  22.829  0.00  0.00    +0.000 A 
ATOM     12  C   UNL     1      -2.038  13.023  23.722  0.00  0.00    +0.000 A 
ATOM     13  C   UNL     1      -2.316  14.275  24.352  0.00  0.00    +0.000 A 
ATOM     14  C   UNL     1      -1.296  15.112  24.873  0.00  0.00    +0.000 A 
ATOM     15  C   UNL     1      -1.543  16.450  25.233  0.00  0.00    +0.000 A 
ATOM     16  C   UNL     1      -2.828  16.950  25.188  0.00  0.00    +0.000 A 
ATOM     17  C   UNL     1      -3.856  16.093  24.813  0.00  0.00    +0.000 A 
ATOM     18  C   UNL     1      -3.633  14.780  24.340  0.00  0.00    +0.000 A 
BRANCH   3  20
ATOM     19  C   UNL     1      -5.482  12.176  19.321  0.00  0.00    +0.000 C 
ATOM     20  C   UNL     1      -5.804  12.259  20.828  0.00  0.00    +0.000 C 
ENDBRANCH   3  20
ENDBRANCH   1   5
BRANCH   2  21
ATOM     21  C   UNL     1      -0.948  15.387  20.194  0.00  0.00    +0.000 C 
ATOM     22  N   UNL     1      -0.361  16.521  19.873  0.00  0.00    +0.000 N 
ATOM     23  C   UNL     1       1.017  16.280  19.611  0.00  0.00    +0.000 A 
ATOM     24  C   UNL     1       1.791  16.599  18.508  0.00  0.00    +0.000 A 
ATOM     25  C   UNL     1       3.063  15.984  18.399  0.00  0.00    +0.000 A 
ATOM     26  C   UNL     1       3.615  15.338  19.526  0.00  0.00    +0.000 A 
ATOM     27  C   UNL     1       5.002  15.154  19.692  0.00  0.00    +0.000 A 
ATOM     28  C   UNL     1       5.542  14.982  20.970  0.00  0.00    +0.000 A 
ATOM     29  C   UNL     1       4.690  14.954  22.068  0.00  0.00    +0.000 A 
ATOM     30  C   UNL     1       3.302  14.909  21.868  0.00  0.00    +0.000 A 
ATOM     31  C   UNL     1       2.748  15.029  20.579  0.00  0.00    +0.000 A 
ATOM     32  C   UNL     1       1.389  15.177  20.311  0.00  0.00    +0.000 A 
ATOM     33  C   UNL     1       0.179  14.266  20.139  0.00  0.00    +0.000 C 
ATOM     34  C   UNL     1       0.305  13.040  21.023  0.00  0.00    +0.000 C 
ATOM     35  C   UNL     1       0.002  13.743  18.666  0.00  0.00    +0.000 C 
BRANCH  22  36
ATOM     36  C   UNL     1      -0.620  17.830  20.569  0.00  0.00    +0.000 C 
ATOM     37  C   UNL     1      -0.318  17.696  22.073  0.00  0.00    +0.000 C 
ENDBRANCH  22  36
ENDBRANCH   2  21
TORSDOF 4
ENDMDL
MODEL 7
REMARK VINA RESULT:      -6.0      2.955      7.582
REMARK  Name = 
REMARK  10 active torsions:
REMARK  status: ('A' for Active; 'I' for Inactive)
REMARK    1  A    between atoms: C_1  and  C_2
REMARK    2  A    between atoms: C_2  and  N_3
REMARK    3  A    between atoms: C_5  and  C_6
REMARK    4  A    between atoms: C_7  and  C_8
REMARK    5  A    between atoms: N_9  and  C_10
REMARK    6  A    between atoms: C_10  and  C_11
REMARK    7  A    between atoms: C_22  and  C_23
REMARK    8  A    between atoms: C_22  and  C_24
REMARK    9  A    between atoms: C_25  and  C_26
REMARK   10  A    between atoms: C_25  and  C_27
REMARK                            x       y       z     vdW  Elec       q    Type
REMARK                         _______ _______ _______ _____ _____    ______ ____
ROOT
ATOM      1  C   UNL     1       1.555  16.102  22.548  0.00  0.00    +0.000 C 
ATOM      2  C   UNL     1       0.422  16.853  22.617  0.00  0.00    +0.000 C 
ENDROOT
BRANCH   1   5
ATOM      3  N   UNL     1       3.904  14.453  21.932  0.00  0.00    +0.000 N 
ATOM      4  C   UNL     1       4.051  15.884  21.904  0.00  0.00    +0.000 C 
ATOM      5  C   UNL     1       3.016  16.542  22.560  0.00  0.00    +0.000 C 
ATOM      6  C   UNL     1       4.496  16.109  20.352  0.00  0.00    +0.000 C 
ATOM      7  C   UNL     1       4.851  17.525  19.895  0.00  0.00    +0.000 C 
ATOM      8  C   UNL     1       5.705  15.255  19.727  0.00  0.00    +0.000 C 
ATOM      9  C   UNL     1       3.317  15.335  19.816  0.00  0.00    +0.000 A 
ATOM     10  C   UNL     1       3.328  14.131  20.631  0.00  0.00    +0.000 A 
ATOM     11  C   UNL     1       2.386  13.157  20.387  0.00  0.00    +0.000 A 
ATOM     12  C   UNL     1       1.319  13.493  19.530  0.00  0.00    +0.000 A 
ATOM     13  C   UNL     1       1.123  14.830  19.069  0.00  0.00    +0.000 A 
ATOM     14  C   UNL     1      -0.132  15.303  18.606  0.00  0.00    +0.000 A 
ATOM     15  C   UNL     1      -0.389  16.675  18.421  0.00  0.00    +0.000 A 
ATOM     16  C   UNL     1       0.627  17.594  18.588  0.00  0.00    +0.000 A 
ATOM     17  C   UNL     1       1.896  17.125  18.905  0.00  0.00    +0.000 A 
ATOM     18  C   UNL     1       2.166  15.771  19.205  0.00  0.00    +0.000 A 
BRANCH   3  20
ATOM     19  C   UNL     1       5.453  14.391  23.856  0.00  0.00    +0.000 C 
ATOM     20  C   UNL     1       5.105  13.770  22.487  0.00  0.00    +0.000 C 
ENDBRANCH   3  20
ENDBRANCH   1   5
BRANCH   2  21
ATOM     21  C   UNL     1      -1.003  16.326  22.440  0.00  0.00    +0.000 C 
ATOM     22  N   UNL     1      -2.118  17.010  22.299  0.00  0.00    +0.000 N 
ATOM     23  C   UNL     1      -3.230  16.143  22.497  0.00  0.00    +0.000 A 
ATOM     24  C   UNL     1      -4.316  16.255  23.348  0.00  0.00    +0.000 A 
ATOM     25  C   UNL     1      -5.122  15.105  23.539  0.00  0.00    +0.000 A 
ATOM     26  C   UNL     1      -4.988  14.015  22.651  0.00  0.00    +0.000 A 
ATOM     27  C   UNL     1      -6.024  13.087  22.428  0.00  0.00    +0.000 A 
ATOM     28  C   UNL     1      -6.067  12.352  21.240  0.00  0.00    +0.000 A 
ATOM     29  C   UNL     1      -5.054  12.519  20.302  0.00  0.00    +0.000 A 
ATOM     30  C   UNL     1      -3.917  13.270  20.635  0.00  0.00    +0.000 A 
ATOM     31  C   UNL     1      -3.840  13.973  21.852  0.00  0.00    +0.000 A 
ATOM     32  C   UNL     1      -2.838  14.882  22.181  0.00  0.00    +0.000 A 
ATOM     33  C   UNL     1      -1.430  14.829  22.766  0.00  0.00    +0.000 C 
ATOM     34  C   UNL     1      -0.725  13.554  22.343  0.00  0.00    +0.000 C 
ATOM     35  C   UNL     1      -1.412  14.854  24.339  0.00  0.00    +0.000 C 
BRANCH  22  36
ATOM     36  C   UNL     1      -2.344  18.042  21.228  0.00  0.00    +0.000 C 
ATOM     37  C   UNL     1      -3.369  17.523  20.204  0.00  0.00    +0.000 C 
ENDBRANCH  22  36
ENDBRANCH   2  21
TORSDOF 4
ENDMDL
MODEL 8
REMARK VINA RESULT:      -5.9      2.547      5.056
REMARK  Name = 
REMARK  10 active torsions:
REMARK  status: ('A' for Active; 'I' for Inactive)
REMARK    1  A    between atoms: C_1  and  C_2
REMARK    2  A    between atoms: C_2  and  N_3
REMARK    3  A    between atoms: C_5  and  C_6
REMARK    4  A    between atoms: C_7  and  C_8
REMARK    5  A    between atoms: N_9  and  C_10
REMARK    6  A    between atoms: C_10  and  C_11
REMARK    7  A    between atoms: C_22  and  C_23
REMARK    8  A    between atoms: C_22  and  C_24
REMARK    9  A    between atoms: C_25  and  C_26
REMARK   10  A    between atoms: C_25  and  C_27
REMARK                            x       y       z     vdW  Elec       q    Type
REMARK                         _______ _______ _______ _____ _____    ______ ____
ROOT
ATOM      1  C   UNL     1      -1.404  15.146  22.520  0.00  0.00    +0.000 C 
ATOM      2  C   UNL     1      -0.964  16.079  21.633  0.00  0.00    +0.000 C 
ENDROOT
BRANCH   1   5
ATOM      3  N   UNL     1      -4.305  15.110  22.072  0.00  0.00    +0.000 N 
ATOM      4  C   UNL     1      -3.817  14.844  23.399  0.00  0.00    +0.000 C 
ATOM      5  C   UNL     1      -2.498  15.248  23.577  0.00  0.00    +0.000 C 
ATOM      6  C   UNL     1      -4.398  13.340  23.635  0.00  0.00    +0.000 C 
ATOM      7  C   UNL     1      -4.180  12.681  24.999  0.00  0.00    +0.000 C 
ATOM      8  C   UNL     1      -5.950  13.021  23.368  0.00  0.00    +0.000 C 
ATOM      9  C   UNL     1      -3.793  12.818  22.356  0.00  0.00    +0.000 A 
ATOM     10  C   UNL     1      -4.176  13.829  21.385  0.00  0.00    +0.000 A 
ATOM     11  C   UNL     1      -3.813  13.656  20.068  0.00  0.00    +0.000 A 
ATOM     12  C   UNL     1      -2.884  12.635  19.785  0.00  0.00    +0.000 A 
ATOM     13  C   UNL     1      -2.215  11.923  20.827  0.00  0.00    +0.000 A 
ATOM     14  C   UNL     1      -0.988  11.240  20.621  0.00  0.00    +0.000 A 
ATOM     15  C   UNL     1      -0.200  10.786  21.696  0.00  0.00    +0.000 A 
ATOM     16  C   UNL     1      -0.665  10.902  22.989  0.00  0.00    +0.000 A 
ATOM     17  C   UNL     1      -1.930  11.443  23.190  0.00  0.00    +0.000 A 
ATOM     18  C   UNL     1      -2.701  12.009  22.149  0.00  0.00    +0.000 A 
BRANCH   3  20
ATOM     19  C   UNL     1      -5.582  16.806  23.336  0.00  0.00    +0.000 C 
ATOM     20  C   UNL     1      -5.558  15.913  22.077  0.00  0.00    +0.000 C 
ENDBRANCH   3  20
ENDBRANCH   1   5
BRANCH   2  21
ATOM     21  C   UNL     1       0.251  15.928  20.716  0.00  0.00    +0.000 C 
ATOM     22  N   UNL     1       0.276  15.788  19.407  0.00  0.00    +0.000 N 
ATOM     23  C   UNL     1       1.571  15.353  19.006  0.00  0.00    +0.000 A 
ATOM     24  C   UNL     1       1.956  14.268  18.236  0.00  0.00    +0.000 A 
ATOM     25  C   UNL     1       3.329  13.917  18.237  0.00  0.00    +0.000 A 
ATOM     26  C   UNL     1       4.274  14.833  18.746  0.00  0.00    +0.000 A 
ATOM     27  C   UNL     1       5.627  14.825  18.352  0.00  0.00    +0.000 A 
ATOM     28  C   UNL     1       6.400  15.985  18.464  0.00  0.00    +0.000 A 
ATOM     29  C   UNL     1       5.828  17.131  19.006  0.00  0.00    +0.000 A 
ATOM     30  C   UNL     1       4.560  17.059  19.601  0.00  0.00    +0.000 A 
ATOM     31  C   UNL     1       3.793  15.880  19.540  0.00  0.00    +0.000 A 
ATOM     32  C   UNL     1       2.463  15.777  19.939  0.00  0.00    +0.000 A 
ATOM     33  C   UNL     1       1.702  15.541  21.239  0.00  0.00    +0.000 C 
ATOM     34  C   UNL     1       2.451  16.144  22.412  0.00  0.00    +0.000 C 
ATOM     35  C   UNL     1       1.498  14.016  21.569  0.00  0.00    +0.000 C 
BRANCH  22  36
ATOM     36  C   UNL     1      -0.357  16.755  18.444  0.00  0.00    +0.000 C 
ATOM     37  C   UNL     1       0.228  18.164  18.651  0.00  0.00    +0.000 C 
ENDBRANCH  22  36
ENDBRANCH   2  21
TORSDOF 4
ENDMDL
MODEL 9
REMARK VINA RESULT:      -5.8      6.671     11.563
REMARK  Name = 
REMARK  10 active torsions:
REMARK  status: ('A' for Active; 'I' for Inactive)
REMARK    1  A    between atoms: C_1  and  C_2
REMARK    2  A    between atoms: C_2  and  N_3
REMARK    3  A    between atoms: C_5  and  C_6
REMARK    4  A    between atoms: C_7  and  C_8
REMARK    5  A    between atoms: N_9  and  C_10
REMARK    6  A    between atoms: C_10  and  C_11
REMARK    7  A    between atoms: C_22  and  C_23
REMARK    8  A    between atoms: C_22  and  C_24
REMARK    9  A    between atoms: C_25  and  C_26
REMARK   10  A    between atoms: C_25  and  C_27
REMARK                            x       y       z     vdW  Elec       q    Type
REMARK                         _______ _______ _______ _____ _____    ______ ____
ROOT
ATOM      1  C   UNL     1       7.511  14.510  18.542  0.00  0.00    +0.000 C 
ATOM      2  C   UNL     1       6.160  14.389  18.638  0.00  0.00    +0.000 C 
ENDROOT
BRANCH   1   5
ATOM      3  N   UNL     1      10.405  14.937  18.290  0.00  0.00    +0.000 N 
ATOM      4  C   UNL     1       9.905  13.591  18.201  0.00  0.00    +0.000 C 
ATOM      5  C   UNL     1       8.536  13.542  17.959  0.00  0.00    +0.000 C 
ATOM      6  C   UNL     1      10.680  12.900  19.457  0.00  0.00    +0.000 C 
ATOM      7  C   UNL     1      10.500  11.398  19.686  0.00  0.00    +0.000 C 
ATOM      8  C   UNL     1      12.271  13.062  19.612  0.00  0.00    +0.000 C 
ATOM      9  C   UNL     1      10.208  13.950  20.431  0.00  0.00    +0.000 A 
ATOM     10  C   UNL     1      10.485  15.190  19.725  0.00  0.00    +0.000 A 
ATOM     11  C   UNL     1      10.205  16.385  20.347  0.00  0.00    +0.000 A 
ATOM     12  C   UNL     1       9.442  16.332  21.530  0.00  0.00    +0.000 A 
ATOM     13  C   UNL     1       8.836  15.117  21.975  0.00  0.00    +0.000 A 
ATOM     14  C   UNL     1       7.727  15.094  22.859  0.00  0.00    +0.000 A 
ATOM     15  C   UNL     1       6.966  13.929  23.070  0.00  0.00    +0.000 A 
ATOM     16  C   UNL     1       7.356  12.738  22.493  0.00  0.00    +0.000 A 
ATOM     17  C   UNL     1       8.524  12.722  21.738  0.00  0.00    +0.000 A 
ATOM     18  C   UNL     1       9.250  13.890  21.415  0.00  0.00    +0.000 A 
BRANCH   3  20
ATOM     19  C   UNL     1      11.545  16.681  16.962  0.00  0.00    +0.000 C 
ATOM     20  C   UNL     1      11.532  15.188  17.350  0.00  0.00    +0.000 C 
ENDBRANCH   3  20
ENDBRANCH   1   5
BRANCH   2  21
ATOM     21  C   UNL     1       5.234  15.351  19.384  0.00  0.00    +0.000 C 
ATOM     22  N   UNL     1       5.557  16.383  20.133  0.00  0.00    +0.000 N 
ATOM     23  C   UNL     1       4.422  16.790  20.890  0.00  0.00    +0.000 A 
ATOM     24  C   UNL     1       4.271  16.979  22.253  0.00  0.00    +0.000 A 
ATOM     25  C   UNL     1       2.953  17.108  22.757  0.00  0.00    +0.000 A 
ATOM     26  C   UNL     1       1.892  17.348  21.856  0.00  0.00    +0.000 A 
ATOM     27  C   UNL     1       0.692  17.975  22.247  0.00  0.00    +0.000 A 
ATOM     28  C   UNL     1      -0.100  18.631  21.301  0.00  0.00    +0.000 A 
ATOM     29  C   UNL     1       0.290  18.622  19.966  0.00  0.00    +0.000 A 
ATOM     30  C   UNL     1       1.357  17.806  19.560  0.00  0.00    +0.000 A 
ATOM     31  C   UNL     1       2.130  17.099  20.501  0.00  0.00    +0.000 A 
ATOM     32  C   UNL     1       3.309  16.418  20.206  0.00  0.00    +0.000 A 
ATOM     33  C   UNL     1       3.702  15.041  19.679  0.00  0.00    +0.000 C 
ATOM     34  C   UNL     1       2.660  14.526  18.706  0.00  0.00    +0.000 C 
ATOM     35  C   UNL     1       3.835  13.960  20.814  0.00  0.00    +0.000 C 
BRANCH  22  36
ATOM     36  C   UNL     1       6.408  17.532  19.664  0.00  0.00    +0.000 C 
ATOM     37  C   UNL     1       6.594  18.550  20.803  0.00  0.00    +0.000 C 
ENDBRANCH  22  36
ENDBRANCH   2  21
TORSDOF 4
ENDMDL
