MODEL 1
REMARK VINA RESULT:      -7.9      0.000      0.000
REMARK  Name = 
REMARK  5 active torsions:
REMARK  status: ('A' for Active; 'I' for Inactive)
REMARK    1  A    between atoms: C_1  and  C_2
REMARK    2  A    between atoms: C_6  and  C_7
REMARK    3  A    between atoms: C_7  and  N_8
REMARK    4  A    between atoms: C_19  and  C_20
REMARK    5  A    between atoms: C_20  and  O_22
REMARK                            x       y       z     vdW  Elec       q    Type
REMARK                         _______ _______ _______ _____ _____    ______ ____
ROOT
ATOM      1  C   UNL     1       3.578   1.830  18.789  0.00  0.00    +0.000 C 
ATOM      2  C   UNL     1       4.013   3.105  19.527  0.00  0.00    +0.000 C 
ATOM      3  C   UNL     1       2.956   3.437  20.597  0.00  0.00    +0.000 C 
ATOM      4  O   UNL     1       2.349   4.718  20.642  0.00  0.00    +0.000 OA
ATOM      5  C   UNL     1       2.657   5.619  19.673  0.00  0.00    +0.000 A 
ATOM      6  C   UNL     1       1.969   6.855  19.766  0.00  0.00    +0.000 A 
ATOM      7  C   UNL     1       2.299   7.859  18.848  0.00  0.00    +0.000 A 
ATOM      8  F   UNL     1       1.747   9.080  18.934  0.00  0.00    +0.000 F 
ATOM      9  C   UNL     1       3.205   7.649  17.829  0.00  0.00    +0.000 A 
ATOM     10  C   UNL     1       3.843   6.407  17.744  0.00  0.00    +0.000 A 
ATOM     11  C   UNL     1       4.828   6.213  16.669  0.00  0.00    +0.000 A 
ATOM     12  O   UNL     1       5.026   7.101  15.825  0.00  0.00    +0.000 OA
ATOM     13  C   UNL     1       5.605   4.962  16.615  0.00  0.00    +0.000 A 
ATOM     14  C   UNL     1       5.311   4.050  17.563  0.00  0.00    +0.000 A 
ATOM     15  N   UNL     1       4.312   4.173  18.553  0.00  0.00    +0.000 N 
ATOM     16  C   UNL     1       3.599   5.374  18.669  0.00  0.00    +0.000 A 
ENDROOT
BRANCH  13  17
ATOM     17  C   UNL     1       6.643   4.736  15.569  0.00  0.00    +0.000 C 
ATOM     18  O   UNL     1       6.603   3.805  14.778  0.00  0.00    +0.000 OA
BRANCH  17  19
ATOM     19  O   UNL     1       7.652   5.643  15.531  0.00  0.00    +0.000 OA
ATOM     20  H   UNL     1       7.381   6.595  15.562  0.00  0.00    +0.000 HD
ENDBRANCH  17  19
ENDBRANCH  13  17
BRANCH   6  21
ATOM     21  C   UNL     1       0.886   7.057  20.806  0.00  0.00    +0.000 C 
BRANCH  21  22
ATOM     22  N   UNL     1       0.738   8.443  21.215  0.00  0.00    +0.000 N 
ATOM     23  C   UNL     1      -0.259   9.299  20.837  0.00  0.00    +0.000 A 
ATOM     24  C   UNL     1       0.118  10.522  21.341  0.00  0.00    +0.000 A 
ATOM     25  N   UNL     1       1.238  10.402  22.123  0.00  0.00    +0.000 NA
ATOM     26  C   UNL     1       1.576   9.134  22.045  0.00  0.00    +0.000 A 
ENDBRANCH  21  22
ENDBRANCH   6  21
TORSDOF 4
ENDMDL
MODEL 2
REMARK VINA RESULT:      -7.8      1.189      1.396
REMARK  Name = 
REMARK  5 active torsions:
REMARK  status: ('A' for Active; 'I' for Inactive)
REMARK    1  A    between atoms: C_1  and  C_2
REMARK    2  A    between atoms: C_6  and  C_7
REMARK    3  A    between atoms: C_7  and  N_8
REMARK    4  A    between atoms: C_19  and  C_20
REMARK    5  A    between atoms: C_20  and  O_22
REMARK                            x       y       z     vdW  Elec       q    Type
REMARK                         _______ _______ _______ _____ _____    ______ ____
ROOT
ATOM      1  C   UNL     1       3.187   2.578  19.592  0.00  0.00    +0.000 C 
ATOM      2  C   UNL     1       3.514   3.976  20.138  0.00  0.00    +0.000 C 
ATOM      3  C   UNL     1       2.222   4.593  20.707  0.00  0.00    +0.000 C 
ATOM      4  O   UNL     1       1.776   5.869  20.276  0.00  0.00    +0.000 OA
ATOM      5  C   UNL     1       2.467   6.498  19.289  0.00  0.00    +0.000 A 
ATOM      6  C   UNL     1       1.924   7.745  18.884  0.00  0.00    +0.000 A 
ATOM      7  C   UNL     1       2.631   8.487  17.930  0.00  0.00    +0.000 A 
ATOM      8  F   UNL     1       2.218   9.712  17.566  0.00  0.00    +0.000 F 
ATOM      9  C   UNL     1       3.778   8.006  17.332  0.00  0.00    +0.000 A 
ATOM     10  C   UNL     1       4.269   6.758  17.729  0.00  0.00    +0.000 A 
ATOM     11  C   UNL     1       5.509   6.276  17.102  0.00  0.00    +0.000 A 
ATOM     12  O   UNL     1       6.054   6.929  16.198  0.00  0.00    +0.000 OA
ATOM     13  C   UNL     1       6.120   5.023  17.575  0.00  0.00    +0.000 A 
ATOM     14  C   UNL     1       5.449   4.375  18.549  0.00  0.00    +0.000 A 
ATOM     15  N   UNL     1       4.214   4.768  19.109  0.00  0.00    +0.000 N 
ATOM     16  C   UNL     1       3.638   5.987  18.724  0.00  0.00    +0.000 A 
ENDROOT
BRANCH  13  17
ATOM     17  C   UNL     1       7.398   4.515  16.998  0.00  0.00    +0.000 C 
ATOM     18  O   UNL     1       8.314   4.081  17.682  0.00  0.00    +0.000 OA
BRANCH  17  19
ATOM     19  O   UNL     1       7.490   4.548  15.645  0.00  0.00    +0.000 OA
ATOM     20  H   UNL     1       6.823   4.008  15.151  0.00  0.00    +0.000 HD
ENDBRANCH  17  19
ENDBRANCH  13  17
BRANCH   6  21
ATOM     21  C   UNL     1       0.604   8.229  19.446  0.00  0.00    +0.000 C 
BRANCH  21  22
ATOM     22  N   UNL     1       0.758   9.092  20.605  0.00  0.00    +0.000 N 
ATOM     23  C   UNL     1       0.832   8.691  21.910  0.00  0.00    +0.000 A 
ATOM     24  C   UNL     1       0.807   9.859  22.637  0.00  0.00    +0.000 A 
ATOM     25  N   UNL     1       0.857  10.950  21.808  0.00  0.00    +0.000 NA
ATOM     26  C   UNL     1       0.847  10.456  20.590  0.00  0.00    +0.000 A 
ENDBRANCH  21  22
ENDBRANCH   6  21
TORSDOF 4
ENDMDL
MODEL 3
REMARK VINA RESULT:      -7.4      1.727      2.057
REMARK  Name = 
REMARK  5 active torsions:
REMARK  status: ('A' for Active; 'I' for Inactive)
REMARK    1  A    between atoms: C_1  and  C_2
REMARK    2  A    between atoms: C_6  and  C_7
REMARK    3  A    between atoms: C_7  and  N_8
REMARK    4  A    between atoms: C_19  and  C_20
REMARK    5  A    between atoms: C_20  and  O_22
REMARK                            x       y       z     vdW  Elec       q    Type
REMARK                         _______ _______ _______ _____ _____    ______ ____
ROOT
ATOM      1  C   UNL     1       2.220   2.989  19.557  0.00  0.00    +0.000 C 
ATOM      2  C   UNL     1       2.924   4.261  20.055  0.00  0.00    +0.000 C 
ATOM      3  C   UNL     1       1.917   5.084  20.881  0.00  0.00    +0.000 C 
ATOM      4  O   UNL     1       1.669   6.446  20.572  0.00  0.00    +0.000 OA
ATOM      5  C   UNL     1       2.273   6.985  19.480  0.00  0.00    +0.000 A 
ATOM      6  C   UNL     1       1.931   8.336  19.215  0.00  0.00    +0.000 A 
ATOM      7  C   UNL     1       2.580   8.980  18.155  0.00  0.00    +0.000 A 
ATOM      8  F   UNL     1       2.365  10.281  17.905  0.00  0.00    +0.000 F 
ATOM      9  C   UNL     1       3.469   8.319  17.333  0.00  0.00    +0.000 A 
ATOM     10  C   UNL     1       3.760   6.977  17.600  0.00  0.00    +0.000 A 
ATOM     11  C   UNL     1       4.733   6.299  16.730  0.00  0.00    +0.000 A 
ATOM     12  O   UNL     1       5.219   6.884  15.749  0.00  0.00    +0.000 OA
ATOM     13  C   UNL     1       5.153   4.924  17.047  0.00  0.00    +0.000 A 
ATOM     14  C   UNL     1       4.561   4.364  18.122  0.00  0.00    +0.000 A 
ATOM     15  N   UNL     1       3.563   4.958  18.923  0.00  0.00    +0.000 N 
ATOM     16  C   UNL     1       3.186   6.287  18.684  0.00  0.00    +0.000 A 
ENDROOT
BRANCH  13  17
ATOM     17  C   UNL     1       6.167   4.209  16.219  0.00  0.00    +0.000 C 
ATOM     18  O   UNL     1       5.889   3.274  15.482  0.00  0.00    +0.000 OA
BRANCH  17  19
ATOM     19  O   UNL     1       7.440   4.667  16.318  0.00  0.00    +0.000 OA
ATOM     20  H   UNL     1       7.787   4.789  17.238  0.00  0.00    +0.000 HD
ENDBRANCH  17  19
ENDBRANCH  13  17
BRANCH   6  21
ATOM     21  C   UNL     1       0.869   9.037  20.038  0.00  0.00    +0.000 C 
BRANCH  21  22
ATOM     22  N   UNL     1       0.053   9.952  19.258  0.00  0.00    +0.000 N 
ATOM     23  C   UNL     1      -0.109  11.291  19.486  0.00  0.00    +0.000 A 
ATOM     24  C   UNL     1      -1.085  11.682  18.600  0.00  0.00    +0.000 A 
ATOM     25  N   UNL     1      -1.417  10.654  17.756  0.00  0.00    +0.000 NA
ATOM     26  C   UNL     1      -0.699   9.630  18.163  0.00  0.00    +0.000 A 
ENDBRANCH  21  22
ENDBRANCH   6  21
TORSDOF 4
ENDMDL
MODEL 4
REMARK VINA RESULT:      -7.4      1.085      1.250
REMARK  Name = 
REMARK  5 active torsions:
REMARK  status: ('A' for Active; 'I' for Inactive)
REMARK    1  A    between atoms: C_1  and  C_2
REMARK    2  A    between atoms: C_6  and  C_7
REMARK    3  A    between atoms: C_7  and  N_8
REMARK    4  A    between atoms: C_19  and  C_20
REMARK    5  A    between atoms: C_20  and  O_22
REMARK                            x       y       z     vdW  Elec       q    Type
REMARK                         _______ _______ _______ _____ _____    ______ ____
ROOT
ATOM      1  C   UNL     1       3.021   2.534  19.741  0.00  0.00    +0.000 C 
ATOM      2  C   UNL     1       3.445   3.922  20.244  0.00  0.00    +0.000 C 
ATOM      3  C   UNL     1       2.261   4.550  21.003  0.00  0.00    +0.000 C 
ATOM      4  O   UNL     1       1.775   5.836  20.653  0.00  0.00    +0.000 OA
ATOM      5  C   UNL     1       2.320   6.466  19.579  0.00  0.00    +0.000 A 
ATOM      6  C   UNL     1       1.742   7.724  19.269  0.00  0.00    +0.000 A 
ATOM      7  C   UNL     1       2.309   8.466  18.227  0.00  0.00    +0.000 A 
ATOM      8  F   UNL     1       1.864   9.699  17.938  0.00  0.00    +0.000 F 
ATOM      9  C   UNL     1       3.348   7.975  17.461  0.00  0.00    +0.000 A 
ATOM     10  C   UNL     1       3.874   6.717  17.771  0.00  0.00    +0.000 A 
ATOM     11  C   UNL     1       5.000   6.226  16.963  0.00  0.00    +0.000 A 
ATOM     12  O   UNL     1       5.415   6.880  15.993  0.00  0.00    +0.000 OA
ATOM     13  C   UNL     1       5.657   4.960  17.330  0.00  0.00    +0.000 A 
ATOM     14  C   UNL     1       5.129   4.311  18.387  0.00  0.00    +0.000 A 
ATOM     15  N   UNL     1       3.997   4.714  19.128  0.00  0.00    +0.000 N 
ATOM     16  C   UNL     1       3.387   5.944  18.842  0.00  0.00    +0.000 A 
ENDROOT
BRANCH  13  17
ATOM     17  C   UNL     1       6.828   4.441  16.566  0.00  0.00    +0.000 C 
ATOM     18  O   UNL     1       7.955   4.371  17.035  0.00  0.00    +0.000 OA
BRANCH  17  19
ATOM     19  O   UNL     1       6.571   4.029  15.298  0.00  0.00    +0.000 OA
ATOM     20  H   UNL     1       6.908   4.614  14.575  0.00  0.00    +0.000 HD
ENDBRANCH  17  19
ENDBRANCH  13  17
BRANCH   6  21
ATOM     21  C   UNL     1       0.526   8.219  20.025  0.00  0.00    +0.000 C 
BRANCH  21  22
ATOM     22  N   UNL     1       0.612   9.624  20.387  0.00  0.00    +0.000 N 
ATOM     23  C   UNL     1      -0.075  10.655  19.806  0.00  0.00    +0.000 A 
ATOM     24  C   UNL     1       0.457  11.791  20.369  0.00  0.00    +0.000 A 
ATOM     25  N   UNL     1       1.344  11.473  21.365  0.00  0.00    +0.000 NA
ATOM     26  C   UNL     1       1.400  10.159  21.366  0.00  0.00    +0.000 A 
ENDBRANCH  21  22
ENDBRANCH   6  21
TORSDOF 4
ENDMDL
MODEL 5
REMARK VINA RESULT:      -7.4      5.928      8.899
REMARK  Name = 
REMARK  5 active torsions:
REMARK  status: ('A' for Active; 'I' for Inactive)
REMARK    1  A    between atoms: C_1  and  C_2
REMARK    2  A    between atoms: C_6  and  C_7
REMARK    3  A    between atoms: C_7  and  N_8
REMARK    4  A    between atoms: C_19  and  C_20
REMARK    5  A    between atoms: C_20  and  O_22
REMARK                            x       y       z     vdW  Elec       q    Type
REMARK                         _______ _______ _______ _____ _____    ______ ____
ROOT
ATOM      1  C   UNL     1      -3.086  10.937  15.492  0.00  0.00    +0.000 C 
ATOM      2  C   UNL     1      -3.528  10.511  16.900  0.00  0.00    +0.000 C 
ATOM      3  C   UNL     1      -4.875  11.189  17.216  0.00  0.00    +0.000 C 
ATOM      4  O   UNL     1      -5.039  11.961  18.395  0.00  0.00    +0.000 OA
ATOM      5  C   UNL     1      -3.960  12.159  19.197  0.00  0.00    +0.000 A 
ATOM      6  C   UNL     1      -4.199  12.983  20.326  0.00  0.00    +0.000 A 
ATOM      7  C   UNL     1      -3.154  13.162  21.240  0.00  0.00    +0.000 A 
ATOM      8  F   UNL     1      -3.340  13.860  22.371  0.00  0.00    +0.000 F 
ATOM      9  C   UNL     1      -1.899  12.629  21.028  0.00  0.00    +0.000 A 
ATOM     10  C   UNL     1      -1.685  11.848  19.887  0.00  0.00    +0.000 A 
ATOM     11  C   UNL     1      -0.349  11.264  19.695  0.00  0.00    +0.000 A 
ATOM     12  O   UNL     1       0.572  11.520  20.486  0.00  0.00    +0.000 OA
ATOM     13  C   UNL     1      -0.116  10.343  18.570  0.00  0.00    +0.000 A 
ATOM     14  C   UNL     1      -1.170  10.136  17.755  0.00  0.00    +0.000 A 
ATOM     15  N   UNL     1      -2.437  10.749  17.864  0.00  0.00    +0.000 N 
ATOM     16  C   UNL     1      -2.709  11.582  18.959  0.00  0.00    +0.000 A 
ENDROOT
BRANCH  13  17
ATOM     17  C   UNL     1       1.209   9.694  18.357  0.00  0.00    +0.000 C 
ATOM     18  O   UNL     1       1.590   8.726  19.000  0.00  0.00    +0.000 OA
BRANCH  17  19
ATOM     19  O   UNL     1       1.984  10.236  17.384  0.00  0.00    +0.000 OA
ATOM     20  H   UNL     1       2.886   9.843  17.278  0.00  0.00    +0.000 HD
ENDBRANCH  17  19
ENDBRANCH  13  17
BRANCH   6  21
ATOM     21  C   UNL     1      -5.537  13.671  20.507  0.00  0.00    +0.000 C 
BRANCH  21  22
ATOM     22  N   UNL     1      -6.377  13.033  21.506  0.00  0.00    +0.000 N 
ATOM     23  C   UNL     1      -6.580  13.461  22.789  0.00  0.00    +0.000 A 
ATOM     24  C   UNL     1      -7.307  12.455  23.383  0.00  0.00    +0.000 A 
ATOM     25  N   UNL     1      -7.662  11.503  22.464  0.00  0.00    +0.000 NA
ATOM     26  C   UNL     1      -7.105  11.889  21.337  0.00  0.00    +0.000 A 
ENDBRANCH  21  22
ENDBRANCH   6  21
TORSDOF 4
ENDMDL
MODEL 6
REMARK VINA RESULT:      -7.4      2.370      4.088
REMARK  Name = 
REMARK  5 active torsions:
REMARK  status: ('A' for Active; 'I' for Inactive)
REMARK    1  A    between atoms: C_1  and  C_2
REMARK    2  A    between atoms: C_6  and  C_7
REMARK    3  A    between atoms: C_7  and  N_8
REMARK    4  A    between atoms: C_19  and  C_20
REMARK    5  A    between atoms: C_20  and  O_22
REMARK                            x       y       z     vdW  Elec       q    Type
REMARK                         _______ _______ _______ _____ _____    ______ ____
ROOT
ATOM      1  C   UNL     1       5.987   6.509  17.110  0.00  0.00    +0.000 C 
ATOM      2  C   UNL     1       4.453   6.534  17.030  0.00  0.00    +0.000 C 
ATOM      3  C   UNL     1       3.989   8.003  16.994  0.00  0.00    +0.000 C 
ATOM      4  O   UNL     1       3.033   8.483  17.925  0.00  0.00    +0.000 OA
ATOM      5  C   UNL     1       2.598   7.644  18.901  0.00  0.00    +0.000 A 
ATOM      6  C   UNL     1       1.682   8.221  19.819  0.00  0.00    +0.000 A 
ATOM      7  C   UNL     1       1.129   7.390  20.801  0.00  0.00    +0.000 A 
ATOM      8  F   UNL     1       0.193   7.852  21.645  0.00  0.00    +0.000 F 
ATOM      9  C   UNL     1       1.509   6.071  20.940  0.00  0.00    +0.000 A 
ATOM     10  C   UNL     1       2.439   5.541  20.041  0.00  0.00    +0.000 A 
ATOM     11  C   UNL     1       2.807   4.125  20.188  0.00  0.00    +0.000 A 
ATOM     12  O   UNL     1       2.358   3.449  21.127  0.00  0.00    +0.000 OA
ATOM     13  C   UNL     1       3.694   3.500  19.192  0.00  0.00    +0.000 A 
ATOM     14  C   UNL     1       4.145   4.314  18.217  0.00  0.00    +0.000 A 
ATOM     15  N   UNL     1       3.879   5.695  18.099  0.00  0.00    +0.000 N 
ATOM     16  C   UNL     1       2.990   6.306  18.995  0.00  0.00    +0.000 A 
ENDROOT
BRANCH  13  17
ATOM     17  C   UNL     1       4.063   2.057  19.275  0.00  0.00    +0.000 C 
ATOM     18  O   UNL     1       3.529   1.190  18.598  0.00  0.00    +0.000 OA
BRANCH  17  19
ATOM     19  O   UNL     1       5.053   1.750  20.151  0.00  0.00    +0.000 OA
ATOM     20  H   UNL     1       5.953   1.620  19.761  0.00  0.00    +0.000 HD
ENDBRANCH  17  19
ENDBRANCH  13  17
BRANCH   6  21
ATOM     21  C   UNL     1       1.349   9.697  19.749  0.00  0.00    +0.000 C 
BRANCH  21  22
ATOM     22  N   UNL     1       0.066   9.964  19.122  0.00  0.00    +0.000 N 
ATOM     23  C   UNL     1      -0.283   9.676  17.832  0.00  0.00    +0.000 A 
ATOM     24  C   UNL     1      -1.518  10.258  17.664  0.00  0.00    +0.000 A 
ATOM     25  N   UNL     1      -1.981  10.769  18.849  0.00  0.00    +0.000 NA
ATOM     26  C   UNL     1      -1.014  10.558  19.715  0.00  0.00    +0.000 A 
ENDBRANCH  21  22
ENDBRANCH   6  21
TORSDOF 4
ENDMDL
MODEL 7
REMARK VINA RESULT:      -7.3      2.851      6.609
REMARK  Name = 
REMARK  5 active torsions:
REMARK  status: ('A' for Active; 'I' for Inactive)
REMARK    1  A    between atoms: C_1  and  C_2
REMARK    2  A    between atoms: C_6  and  C_7
REMARK    3  A    between atoms: C_7  and  N_8
REMARK    4  A    between atoms: C_19  and  C_20
REMARK    5  A    between atoms: C_20  and  O_22
REMARK                            x       y       z     vdW  Elec       q    Type
REMARK                         _______ _______ _______ _____ _____    ______ ____
ROOT
ATOM      1  C   UNL     1       2.222   3.157  21.957  0.00  0.00    +0.000 C 
ATOM      2  C   UNL     1       1.767   3.406  20.511  0.00  0.00    +0.000 C 
ATOM      3  C   UNL     1       2.530   2.439  19.586  0.00  0.00    +0.000 C 
ATOM      4  O   UNL     1       3.257   2.927  18.470  0.00  0.00    +0.000 OA
ATOM      5  C   UNL     1       3.337   4.270  18.283  0.00  0.00    +0.000 A 
ATOM      6  C   UNL     1       4.125   4.673  17.174  0.00  0.00    +0.000 A 
ATOM      7  C   UNL     1       4.183   6.039  16.874  0.00  0.00    +0.000 A 
ATOM      8  F   UNL     1       4.840   6.478  15.789  0.00  0.00    +0.000 F 
ATOM      9  C   UNL     1       3.566   6.988  17.663  0.00  0.00    +0.000 A 
ATOM     10  C   UNL     1       2.824   6.561  18.770  0.00  0.00    +0.000 A 
ATOM     11  C   UNL     1       2.149   7.586  19.581  0.00  0.00    +0.000 A 
ATOM     12  O   UNL     1       2.299   8.792  19.328  0.00  0.00    +0.000 OA
ATOM     13  C   UNL     1       1.266   7.171  20.683  0.00  0.00    +0.000 A 
ATOM     14  C   UNL     1       1.176   5.842  20.893  0.00  0.00    +0.000 A 
ATOM     15  N   UNL     1       1.878   4.841  20.188  0.00  0.00    +0.000 N 
ATOM     16  C   UNL     1       2.678   5.199  19.094  0.00  0.00    +0.000 A 
ENDROOT
BRANCH  13  17
ATOM     17  C   UNL     1       0.528   8.171  21.508  0.00  0.00    +0.000 C 
ATOM     18  O   UNL     1      -0.679   8.123  21.695  0.00  0.00    +0.000 OA
BRANCH  17  19
ATOM     19  O   UNL     1       1.284   9.153  22.061  0.00  0.00    +0.000 OA
ATOM     20  H   UNL     1       0.791   9.946  22.392  0.00  0.00    +0.000 HD
ENDBRANCH  17  19
ENDBRANCH  13  17
BRANCH   6  21
ATOM     21  C   UNL     1       4.903   3.651  16.371  0.00  0.00    +0.000 C 
BRANCH  21  22
ATOM     22  N   UNL     1       5.875   4.249  15.473  0.00  0.00    +0.000 N 
ATOM     23  C   UNL     1       5.811   4.273  14.107  0.00  0.00    +0.000 A 
ATOM     24  C   UNL     1       7.020   4.794  13.709  0.00  0.00    +0.000 A 
ATOM     25  N   UNL     1       7.753   5.208  14.791  0.00  0.00    +0.000 NA
ATOM     26  C   UNL     1       7.028   4.886  15.840  0.00  0.00    +0.000 A 
ENDBRANCH  21  22
ENDBRANCH   6  21
TORSDOF 4
ENDMDL
MODEL 8
REMARK VINA RESULT:      -7.3      1.159      1.229
REMARK  Name = 
REMARK  5 active torsions:
REMARK  status: ('A' for Active; 'I' for Inactive)
REMARK    1  A    between atoms: C_1  and  C_2
REMARK    2  A    between atoms: C_6  and  C_7
REMARK    3  A    between atoms: C_7  and  N_8
REMARK    4  A    between atoms: C_19  and  C_20
REMARK    5  A    between atoms: C_20  and  O_22
REMARK                            x       y       z     vdW  Elec       q    Type
REMARK                         _______ _______ _______ _____ _____    ______ ____
ROOT
ATOM      1  C   UNL     1       3.022   2.409  18.921  0.00  0.00    +0.000 C 
ATOM      2  C   UNL     1       3.354   3.719  19.652  0.00  0.00    +0.000 C 
ATOM      3  C   UNL     1       2.047   4.311  20.211  0.00  0.00    +0.000 C 
ATOM      4  O   UNL     1       1.670   5.646  19.911  0.00  0.00    +0.000 OA
ATOM      5  C   UNL     1       2.442   6.362  19.052  0.00  0.00    +0.000 A 
ATOM      6  C   UNL     1       1.966   7.668  18.769  0.00  0.00    +0.000 A 
ATOM      7  C   UNL     1       2.756   8.491  17.957  0.00  0.00    +0.000 A 
ATOM      8  F   UNL     1       2.405   9.765  17.720  0.00  0.00    +0.000 F 
ATOM      9  C   UNL     1       3.925   8.040  17.377  0.00  0.00    +0.000 A 
ATOM     10  C   UNL     1       4.350   6.736  17.650  0.00  0.00    +0.000 A 
ATOM     11  C   UNL     1       5.614   6.286  17.046  0.00  0.00    +0.000 A 
ATOM     12  O   UNL     1       6.237   7.020  16.263  0.00  0.00    +0.000 OA
ATOM     13  C   UNL     1       6.154   4.963  17.400  0.00  0.00    +0.000 A 
ATOM     14  C   UNL     1       5.401   4.230  18.245  0.00  0.00    +0.000 A 
ATOM     15  N   UNL     1       4.145   4.600  18.771  0.00  0.00    +0.000 N 
ATOM     16  C   UNL     1       3.633   5.877  18.502  0.00  0.00    +0.000 A 
ENDROOT
BRANCH  13  17
ATOM     17  C   UNL     1       7.451   4.478  16.846  0.00  0.00    +0.000 C 
ATOM     18  O   UNL     1       7.698   4.450  15.649  0.00  0.00    +0.000 OA
BRANCH  17  19
ATOM     19  O   UNL     1       8.369   4.073  17.760  0.00  0.00    +0.000 OA
ATOM     20  H   UNL     1       8.707   4.771  18.375  0.00  0.00    +0.000 HD
ENDBRANCH  17  19
ENDBRANCH  13  17
BRANCH   6  21
ATOM     21  C   UNL     1       0.627   8.132  19.303  0.00  0.00    +0.000 C 
BRANCH  21  22
ATOM     22  N   UNL     1       0.745   9.100  20.379  0.00  0.00    +0.000 N 
ATOM     23  C   UNL     1       0.410  10.425  20.319  0.00  0.00    +0.000 A 
ATOM     24  C   UNL     1       0.850  10.952  21.511  0.00  0.00    +0.000 A 
ATOM     25  N   UNL     1       1.315   9.963  22.339  0.00  0.00    +0.000 NA
ATOM     26  C   UNL     1       1.219   8.855  21.637  0.00  0.00    +0.000 A 
ENDBRANCH  21  22
ENDBRANCH   6  21
TORSDOF 4
ENDMDL
MODEL 9
REMARK VINA RESULT:      -7.2      5.707      8.702
REMARK  Name = 
REMARK  5 active torsions:
REMARK  status: ('A' for Active; 'I' for Inactive)
REMARK    1  A    between atoms: C_1  and  C_2
REMARK    2  A    between atoms: C_6  and  C_7
REMARK    3  A    between atoms: C_7  and  N_8
REMARK    4  A    between atoms: C_19  and  C_20
REMARK    5  A    between atoms: C_20  and  O_22
REMARK                            x       y       z     vdW  Elec       q    Type
REMARK                         _______ _______ _______ _____ _____    ______ ____
ROOT
ATOM      1  C   UNL     1      -2.945  11.074  15.647  0.00  0.00    +0.000 C 
ATOM      2  C   UNL     1      -3.386  10.603  17.041  0.00  0.00    +0.000 C 
ATOM      3  C   UNL     1      -4.684  11.343  17.419  0.00  0.00    +0.000 C 
ATOM      4  O   UNL     1      -4.779  12.061  18.638  0.00  0.00    +0.000 OA
ATOM      5  C   UNL     1      -3.676  12.155  19.426  0.00  0.00    +0.000 A 
ATOM      6  C   UNL     1      -3.845  12.932  20.600  0.00  0.00    +0.000 A 
ATOM      7  C   UNL     1      -2.775  13.002  21.499  0.00  0.00    +0.000 A 
ATOM      8  F   UNL     1      -2.898  13.651  22.668  0.00  0.00    +0.000 F 
ATOM      9  C   UNL     1      -1.558  12.407  21.235  0.00  0.00    +0.000 A 
ATOM     10  C   UNL     1      -1.412  11.674  20.052  0.00  0.00    +0.000 A 
ATOM     11  C   UNL     1      -0.117  11.023  19.804  0.00  0.00    +0.000 A 
ATOM     12  O   UNL     1       0.832  11.183  20.587  0.00  0.00    +0.000 OA
ATOM     13  C   UNL     1       0.039  10.148  18.629  0.00  0.00    +0.000 A 
ATOM     14  C   UNL     1      -1.040  10.046  17.827  0.00  0.00    +0.000 A 
ATOM     15  N   UNL     1      -2.265  10.727  17.993  0.00  0.00    +0.000 N 
ATOM     16  C   UNL     1      -2.467  11.517  19.133  0.00  0.00    +0.000 A 
ENDROOT
BRANCH  13  17
ATOM     17  C   UNL     1       1.319   9.433  18.356  0.00  0.00    +0.000 C 
ATOM     18  O   UNL     1       1.990   9.622  17.352  0.00  0.00    +0.000 OA
BRANCH  17  19
ATOM     19  O   UNL     1       1.717   8.551  19.307  0.00  0.00    +0.000 OA
ATOM     20  H   UNL     1       1.306   8.662  20.201  0.00  0.00    +0.000 HD
ENDBRANCH  17  19
ENDBRANCH  13  17
BRANCH   6  21
ATOM     21  C   UNL     1      -5.136  13.688  20.844  0.00  0.00    +0.000 C 
BRANCH  21  22
ATOM     22  N   UNL     1      -6.104  12.931  21.617  0.00  0.00    +0.000 N 
ATOM     23  C   UNL     1      -7.191  12.262  21.125  0.00  0.00    +0.000 A 
ATOM     24  C   UNL     1      -7.882  11.848  22.241  0.00  0.00    +0.000 A 
ATOM     25  N   UNL     1      -7.177  12.128  23.382  0.00  0.00    +0.000 NA
ATOM     26  C   UNL     1      -6.100  12.762  22.974  0.00  0.00    +0.000 A 
ENDBRANCH  21  22
ENDBRANCH   6  21
TORSDOF 4
ENDMDL
