MODEL 1
REMARK VINA RESULT:      -7.7      0.000      0.000
REMARK  Name = 
REMARK  8 active torsions:
REMARK  status: ('A' for Active; 'I' for Inactive)
REMARK    1  A    between atoms: C_1  and  C_2
REMARK    2  A    between atoms: C_2  and  C_3
REMARK    3  A    between atoms: C_3  and  N_4
REMARK    4  A    between atoms: C_5  and  C_6
REMARK    5  A    between atoms: C_5  and  C_13
REMARK    6  A    between atoms: C_14  and  C_15
REMARK    7  A    between atoms: N_17  and  C_18
REMARK    8  A    between atoms: C_25  and  O_26
REMARK                            x       y       z     vdW  Elec       q    Type
REMARK                         _______ _______ _______ _____ _____    ______ ____
ROOT
ATOM      1  C   UNL     1       3.155   6.280  18.921  0.00  0.00    +0.000 A 
ATOM      2  C   UNL     1       3.134   7.438  18.078  0.00  0.00    +0.000 A 
ATOM      3  C   UNL     1       3.884   7.730  16.829  0.00  0.00    +0.000 C 
ATOM      4  N   UNL     1       2.247   8.348  18.507  0.00  0.00    +0.000 NA
ATOM      5  N   UNL     1       1.864   7.914  19.727  0.00  0.00    +0.000 N 
ATOM      6  C   UNL     1       2.357   6.639  19.993  0.00  0.00    +0.000 A 
ENDROOT
BRANCH   5   7
ATOM      7  C   UNL     1       1.059   8.741  20.556  0.00  0.00    +0.000 A 
ATOM      8  C   UNL     1       0.217   9.700  19.972  0.00  0.00    +0.000 A 
ATOM      9  C   UNL     1      -0.557  10.537  20.782  0.00  0.00    +0.000 A 
ATOM     10  C   UNL     1      -0.466  10.436  22.170  0.00  0.00    +0.000 A 
ATOM     11 CL   UNL     1      -1.366  11.508  23.170  0.00  0.00    +0.000 Cl
ATOM     12  C   UNL     1       0.371   9.488  22.757  0.00  0.00    +0.000 A 
ATOM     13  C   UNL     1       1.131   8.636  21.953  0.00  0.00    +0.000 A 
ENDBRANCH   5   7
BRANCH   1  15
ATOM     14  N   UNL     1       3.535   4.070  19.582  0.00  0.00    +0.000 NA
ATOM     15  C   UNL     1       3.818   4.986  18.715  0.00  0.00    +0.000 C 
BRANCH  15  16
ATOM     16  C   UNL     1       4.807   4.860  17.584  0.00  0.00    +0.000 A 
ATOM     17  C   UNL     1       6.124   5.325  17.713  0.00  0.00    +0.000 A 
ATOM     18  C   UNL     1       6.985   5.346  16.612  0.00  0.00    +0.000 A 
ATOM     19  C   UNL     1       6.567   4.811  15.397  0.00  0.00    +0.000 A 
ATOM     20 CL   UNL     1       7.628   4.826  14.045  0.00  0.00    +0.000 Cl
ATOM     21  C   UNL     1       5.291   4.269  15.271  0.00  0.00    +0.000 A 
ATOM     22  C   UNL     1       4.403   4.327  16.349  0.00  0.00    +0.000 A 
ENDBRANCH  15  16
BRANCH  14  23
ATOM     23  C   UNL     1       4.188   2.767  19.596  0.00  0.00    +0.000 C 
BRANCH  23  25
ATOM     24  C   UNL     1       1.865   1.990  18.952  0.00  0.00    +0.000 C 
ATOM     25  C   UNL     1       3.358   1.740  18.832  0.00  0.00    +0.000 C 
ENDBRANCH  23  25
ENDBRANCH  14  23
ENDBRANCH   1  15
BRANCH   6  26
ATOM     26  O   UNL     1       2.025   5.917  21.068  0.00  0.00    +0.000 OA
ATOM     27  H   UNL     1       2.713   5.247  21.233  0.00  0.00    +0.000 HD
ENDBRANCH   6  26
TORSDOF 6
ENDMDL
MODEL 2
REMARK VINA RESULT:      -7.6      3.096      8.176
REMARK  Name = 
REMARK  8 active torsions:
REMARK  status: ('A' for Active; 'I' for Inactive)
REMARK    1  A    between atoms: C_1  and  C_2
REMARK    2  A    between atoms: C_2  and  C_3
REMARK    3  A    between atoms: C_3  and  N_4
REMARK    4  A    between atoms: C_5  and  C_6
REMARK    5  A    between atoms: C_5  and  C_13
REMARK    6  A    between atoms: C_14  and  C_15
REMARK    7  A    between atoms: N_17  and  C_18
REMARK    8  A    between atoms: C_25  and  O_26
REMARK                            x       y       z     vdW  Elec       q    Type
REMARK                         _______ _______ _______ _____ _____    ______ ____
ROOT
ATOM      1  C   UNL     1       1.243   9.376  19.375  0.00  0.00    +0.000 A 
ATOM      2  C   UNL     1       1.439   8.463  20.461  0.00  0.00    +0.000 A 
ATOM      3  C   UNL     1       1.066   8.581  21.894  0.00  0.00    +0.000 C 
ATOM      4  N   UNL     1       2.011   7.321  20.051  0.00  0.00    +0.000 NA
ATOM      5  N   UNL     1       2.399   7.560  18.781  0.00  0.00    +0.000 N 
ATOM      6  C   UNL     1       1.909   8.780  18.319  0.00  0.00    +0.000 A 
ENDROOT
BRANCH   5   7
ATOM      7  C   UNL     1       3.211   6.618  18.095  0.00  0.00    +0.000 A 
ATOM      8  C   UNL     1       4.368   7.052  17.430  0.00  0.00    +0.000 A 
ATOM      9  C   UNL     1       5.158   6.136  16.729  0.00  0.00    +0.000 A 
ATOM     10  C   UNL     1       4.775   4.796  16.665  0.00  0.00    +0.000 A 
ATOM     11 CL   UNL     1       5.706   3.679  15.748  0.00  0.00    +0.000 Cl
ATOM     12  C   UNL     1       3.625   4.359  17.320  0.00  0.00    +0.000 A 
ATOM     13  C   UNL     1       2.843   5.266  18.040  0.00  0.00    +0.000 A 
ENDBRANCH   5   7
BRANCH   1  15
ATOM     14  N   UNL     1      -0.785  10.515  19.136  0.00  0.00    +0.000 NA
ATOM     15  C   UNL     1       0.487  10.634  19.337  0.00  0.00    +0.000 C 
BRANCH  15  16
ATOM     16  C   UNL     1       1.248  11.931  19.456  0.00  0.00    +0.000 A 
ATOM     17  C   UNL     1       1.869  12.515  18.342  0.00  0.00    +0.000 A 
ATOM     18  C   UNL     1       2.699  13.629  18.491  0.00  0.00    +0.000 A 
ATOM     19  C   UNL     1       2.836  14.228  19.739  0.00  0.00    +0.000 A 
ATOM     20 CL   UNL     1       3.849  15.605  19.921  0.00  0.00    +0.000 Cl
ATOM     21  C   UNL     1       2.162  13.712  20.842  0.00  0.00    +0.000 A 
ATOM     22  C   UNL     1       1.401  12.548  20.708  0.00  0.00    +0.000 A 
ENDBRANCH  15  16
BRANCH  14  23
ATOM     23  C   UNL     1      -1.667  11.662  18.956  0.00  0.00    +0.000 C 
BRANCH  23  25
ATOM     24  C   UNL     1      -2.359  10.127  17.064  0.00  0.00    +0.000 C 
ATOM     25  C   UNL     1      -2.511  11.499  17.697  0.00  0.00    +0.000 C 
ENDBRANCH  23  25
ENDBRANCH  14  23
ENDBRANCH   1  15
BRANCH   6  26
ATOM     26  O   UNL     1       2.031   9.207  17.058  0.00  0.00    +0.000 OA
ATOM     27  H   UNL     1       1.146   9.386  16.691  0.00  0.00    +0.000 HD
ENDBRANCH   6  26
TORSDOF 6
ENDMDL
MODEL 3
REMARK VINA RESULT:      -7.6      1.645      2.089
REMARK  Name = 
REMARK  8 active torsions:
REMARK  status: ('A' for Active; 'I' for Inactive)
REMARK    1  A    between atoms: C_1  and  C_2
REMARK    2  A    between atoms: C_2  and  C_3
REMARK    3  A    between atoms: C_3  and  N_4
REMARK    4  A    between atoms: C_5  and  C_6
REMARK    5  A    between atoms: C_5  and  C_13
REMARK    6  A    between atoms: C_14  and  C_15
REMARK    7  A    between atoms: N_17  and  C_18
REMARK    8  A    between atoms: C_25  and  O_26
REMARK                            x       y       z     vdW  Elec       q    Type
REMARK                         _______ _______ _______ _____ _____    ______ ____
ROOT
ATOM      1  C   UNL     1       2.113   7.338  19.740  0.00  0.00    +0.000 A 
ATOM      2  C   UNL     1       2.165   8.214  18.608  0.00  0.00    +0.000 A 
ATOM      3  C   UNL     1       2.787   8.022  17.273  0.00  0.00    +0.000 C 
ATOM      4  N   UNL     1       1.490   9.352  18.830  0.00  0.00    +0.000 NA
ATOM      5  N   UNL     1       1.201   9.335  20.149  0.00  0.00    +0.000 N 
ATOM      6  C   UNL     1       1.521   8.108  20.725  0.00  0.00    +0.000 A 
ENDROOT
BRANCH   5   7
ATOM      7  C   UNL     1       0.644  10.484  20.771  0.00  0.00    +0.000 A 
ATOM      8  C   UNL     1       1.124  11.759  20.431  0.00  0.00    +0.000 A 
ATOM      9  C   UNL     1       0.601  12.894  21.058  0.00  0.00    +0.000 A 
ATOM     10  C   UNL     1      -0.374  12.753  22.045  0.00  0.00    +0.000 A 
ATOM     11 CL   UNL     1      -0.971  14.141  22.867  0.00  0.00    +0.000 Cl
ATOM     12  C   UNL     1      -0.852  11.490  22.391  0.00  0.00    +0.000 A 
ATOM     13  C   UNL     1      -0.349  10.354  21.753  0.00  0.00    +0.000 A 
ENDBRANCH   5   7
BRANCH   1  15
ATOM     14  N   UNL     1       1.942   5.249  20.776  0.00  0.00    +0.000 NA
ATOM     15  C   UNL     1       2.537   5.937  19.857  0.00  0.00    +0.000 C 
BRANCH  15  16
ATOM     16  C   UNL     1       3.656   5.451  18.971  0.00  0.00    +0.000 A 
ATOM     17  C   UNL     1       4.999   5.704  19.288  0.00  0.00    +0.000 A 
ATOM     18  C   UNL     1       6.018   5.388  18.386  0.00  0.00    +0.000 A 
ATOM     19  C   UNL     1       5.711   4.726  17.201  0.00  0.00    +0.000 A 
ATOM     20 CL   UNL     1       6.964   4.326  16.095  0.00  0.00    +0.000 Cl
ATOM     21  C   UNL     1       4.392   4.391  16.906  0.00  0.00    +0.000 A 
ATOM     22  C   UNL     1       3.367   4.785  17.769  0.00  0.00    +0.000 A 
ENDBRANCH  15  16
BRANCH  14  23
ATOM     23  C   UNL     1       2.319   3.880  21.105  0.00  0.00    +0.000 C 
BRANCH  23  25
ATOM     24  C   UNL     1       0.835   2.712  19.418  0.00  0.00    +0.000 C 
ATOM     25  C   UNL     1       1.145   2.931  20.888  0.00  0.00    +0.000 C 
ENDBRANCH  23  25
ENDBRANCH  14  23
ENDBRANCH   1  15
BRANCH   6  26
ATOM     26  O   UNL     1       1.220   7.770  21.984  0.00  0.00    +0.000 OA
ATOM     27  H   UNL     1       0.907   6.848  22.005  0.00  0.00    +0.000 HD
ENDBRANCH   6  26
TORSDOF 6
ENDMDL
MODEL 4
REMARK VINA RESULT:      -7.5      2.509      3.876
REMARK  Name = 
REMARK  8 active torsions:
REMARK  status: ('A' for Active; 'I' for Inactive)
REMARK    1  A    between atoms: C_1  and  C_2
REMARK    2  A    between atoms: C_2  and  C_3
REMARK    3  A    between atoms: C_3  and  N_4
REMARK    4  A    between atoms: C_5  and  C_6
REMARK    5  A    between atoms: C_5  and  C_13
REMARK    6  A    between atoms: C_14  and  C_15
REMARK    7  A    between atoms: N_17  and  C_18
REMARK    8  A    between atoms: C_25  and  O_26
REMARK                            x       y       z     vdW  Elec       q    Type
REMARK                         _______ _______ _______ _____ _____    ______ ____
ROOT
ATOM      1  C   UNL     1       2.454   7.450  18.862  0.00  0.00    +0.000 A 
ATOM      2  C   UNL     1       1.836   7.137  20.116  0.00  0.00    +0.000 A 
ATOM      3  C   UNL     1       1.856   5.882  20.909  0.00  0.00    +0.000 C 
ATOM      4  N   UNL     1       1.190   8.196  20.628  0.00  0.00    +0.000 NA
ATOM      5  N   UNL     1       1.178   9.111  19.636  0.00  0.00    +0.000 N 
ATOM      6  C   UNL     1       1.975   8.714  18.565  0.00  0.00    +0.000 A 
ENDROOT
BRANCH   5   7
ATOM      7  C   UNL     1       0.407  10.297  19.771  0.00  0.00    +0.000 A 
ATOM      8  C   UNL     1       0.796  11.274  20.701  0.00  0.00    +0.000 A 
ATOM      9  C   UNL     1       0.028  12.432  20.860  0.00  0.00    +0.000 A 
ATOM     10  C   UNL     1      -1.140  12.598  20.117  0.00  0.00    +0.000 A 
ATOM     11 CL   UNL     1      -2.123  13.988  20.358  0.00  0.00    +0.000 Cl
ATOM     12  C   UNL     1      -1.534  11.629  19.194  0.00  0.00    +0.000 A 
ATOM     13  C   UNL     1      -0.760  10.480  19.016  0.00  0.00    +0.000 A 
ENDBRANCH   5   7
BRANCH   1  15
ATOM     14  N   UNL     1       4.078   7.327  17.185  0.00  0.00    +0.000 NA
ATOM     15  C   UNL     1       3.407   6.664  18.068  0.00  0.00    +0.000 C 
BRANCH  15  16
ATOM     16  C   UNL     1       3.465   5.174  18.290  0.00  0.00    +0.000 A 
ATOM     17  C   UNL     1       4.420   4.601  19.143  0.00  0.00    +0.000 A 
ATOM     18  C   UNL     1       4.566   3.213  19.222  0.00  0.00    +0.000 A 
ATOM     19  C   UNL     1       3.693   2.385  18.522  0.00  0.00    +0.000 A 
ATOM     20 CL   UNL     1       3.866   0.678  18.626  0.00  0.00    +0.000 Cl
ATOM     21  C   UNL     1       2.685   2.934  17.735  0.00  0.00    +0.000 A 
ATOM     22  C   UNL     1       2.595   4.321  17.591  0.00  0.00    +0.000 A 
ENDBRANCH  15  16
BRANCH  14  23
ATOM     23  C   UNL     1       4.981   6.688  16.235  0.00  0.00    +0.000 C 
BRANCH  23  25
ATOM     24  C   UNL     1       7.025   5.243  16.624  0.00  0.00    +0.000 C 
ATOM     25  C   UNL     1       6.395   6.614  16.802  0.00  0.00    +0.000 C 
ENDBRANCH  23  25
ENDBRANCH  14  23
ENDBRANCH   1  15
BRANCH   6  26
ATOM     26  O   UNL     1       2.248   9.485  17.508  0.00  0.00    +0.000 OA
ATOM     27  H   UNL     1       2.084   8.982  16.690  0.00  0.00    +0.000 HD
ENDBRANCH   6  26
TORSDOF 6
ENDMDL
MODEL 5
REMARK VINA RESULT:      -7.5      3.184      8.484
REMARK  Name = 
REMARK  8 active torsions:
REMARK  status: ('A' for Active; 'I' for Inactive)
REMARK    1  A    between atoms: C_1  and  C_2
REMARK    2  A    between atoms: C_2  and  C_3
REMARK    3  A    between atoms: C_3  and  N_4
REMARK    4  A    between atoms: C_5  and  C_6
REMARK    5  A    between atoms: C_5  and  C_13
REMARK    6  A    between atoms: C_14  and  C_15
REMARK    7  A    between atoms: N_17  and  C_18
REMARK    8  A    between atoms: C_25  and  O_26
REMARK                            x       y       z     vdW  Elec       q    Type
REMARK                         _______ _______ _______ _____ _____    ______ ____
ROOT
ATOM      1  C   UNL     1       1.061   9.411  19.670  0.00  0.00    +0.000 A 
ATOM      2  C   UNL     1       0.938   9.023  21.044  0.00  0.00    +0.000 A 
ATOM      3  C   UNL     1       0.481   9.801  22.223  0.00  0.00    +0.000 C 
ATOM      4  N   UNL     1       1.254   7.732  21.224  0.00  0.00    +0.000 NA
ATOM      5  N   UNL     1       1.798   7.338  20.053  0.00  0.00    +0.000 N 
ATOM      6  C   UNL     1       1.656   8.314  19.071  0.00  0.00    +0.000 A 
ENDROOT
BRANCH   5   7
ATOM      7  C   UNL     1       2.418   6.064  19.949  0.00  0.00    +0.000 A 
ATOM      8  C   UNL     1       1.775   4.933  20.477  0.00  0.00    +0.000 A 
ATOM      9  C   UNL     1       2.391   3.680  20.403  0.00  0.00    +0.000 A 
ATOM     10  C   UNL     1       3.658   3.562  19.833  0.00  0.00    +0.000 A 
ATOM     11 CL   UNL     1       4.447   2.035  19.801  0.00  0.00    +0.000 Cl
ATOM     12  C   UNL     1       4.304   4.682  19.310  0.00  0.00    +0.000 A 
ATOM     13  C   UNL     1       3.685   5.933  19.362  0.00  0.00    +0.000 A 
ENDBRANCH   5   7
BRANCH   1  15
ATOM     14  N   UNL     1       1.540  11.564  18.897  0.00  0.00    +0.000 NA
ATOM     15  C   UNL     1       0.633  10.649  19.007  0.00  0.00    +0.000 C 
BRANCH  15  16
ATOM     16  C   UNL     1      -0.810  10.776  18.590  0.00  0.00    +0.000 A 
ATOM     17  C   UNL     1      -1.303  10.108  17.460  0.00  0.00    +0.000 A 
ATOM     18  C   UNL     1      -2.598  10.355  16.993  0.00  0.00    +0.000 A 
ATOM     19  C   UNL     1      -3.443  11.196  17.711  0.00  0.00    +0.000 A 
ATOM     20 CL   UNL     1      -5.038  11.491  17.144  0.00  0.00    +0.000 Cl
ATOM     21  C   UNL     1      -2.999  11.803  18.882  0.00  0.00    +0.000 A 
ATOM     22  C   UNL     1      -1.678  11.623  19.299  0.00  0.00    +0.000 A 
ENDBRANCH  15  16
BRANCH  14  23
ATOM     23  C   UNL     1       1.258  12.895  18.371  0.00  0.00    +0.000 C 
BRANCH  23  25
ATOM     24  C   UNL     1       0.080  14.907  19.359  0.00  0.00    +0.000 C 
ATOM     25  C   UNL     1       1.229  13.924  19.496  0.00  0.00    +0.000 C 
ENDBRANCH  23  25
ENDBRANCH  14  23
ENDBRANCH   1  15
BRANCH   6  26
ATOM     26  O   UNL     1       1.985   8.139  17.786  0.00  0.00    +0.000 OA
ATOM     27  H   UNL     1       1.174   8.060  17.252  0.00  0.00    +0.000 HD
ENDBRANCH   6  26
TORSDOF 6
ENDMDL
MODEL 6
REMARK VINA RESULT:      -7.5      3.075      8.330
REMARK  Name = 
REMARK  8 active torsions:
REMARK  status: ('A' for Active; 'I' for Inactive)
REMARK    1  A    between atoms: C_1  and  C_2
REMARK    2  A    between atoms: C_2  and  C_3
REMARK    3  A    between atoms: C_3  and  N_4
REMARK    4  A    between atoms: C_5  and  C_6
REMARK    5  A    between atoms: C_5  and  C_13
REMARK    6  A    between atoms: C_14  and  C_15
REMARK    7  A    between atoms: N_17  and  C_18
REMARK    8  A    between atoms: C_25  and  O_26
REMARK                            x       y       z     vdW  Elec       q    Type
REMARK                         _______ _______ _______ _____ _____    ______ ____
ROOT
ATOM      1  C   UNL     1       1.118   9.524  19.460  0.00  0.00    +0.000 A 
ATOM      2  C   UNL     1       1.381   8.626  20.545  0.00  0.00    +0.000 A 
ATOM      3  C   UNL     1       1.077   8.755  21.993  0.00  0.00    +0.000 C 
ATOM      4  N   UNL     1       1.951   7.488  20.119  0.00  0.00    +0.000 NA
ATOM      5  N   UNL     1       2.274   7.720  18.829  0.00  0.00    +0.000 N 
ATOM      6  C   UNL     1       1.742   8.926  18.379  0.00  0.00    +0.000 A 
ENDROOT
BRANCH   5   7
ATOM      7  C   UNL     1       3.066   6.782  18.114  0.00  0.00    +0.000 A 
ATOM      8  C   UNL     1       2.708   5.425  18.118  0.00  0.00    +0.000 A 
ATOM      9  C   UNL     1       3.499   4.491  17.440  0.00  0.00    +0.000 A 
ATOM     10  C   UNL     1       4.658   4.908  16.787  0.00  0.00    +0.000 A 
ATOM     11 CL   UNL     1       5.668   3.754  16.009  0.00  0.00    +0.000 Cl
ATOM     12  C   UNL     1       5.021   6.255  16.783  0.00  0.00    +0.000 A 
ATOM     13  C   UNL     1       4.225   7.194  17.440  0.00  0.00    +0.000 A 
ENDBRANCH   5   7
BRANCH   1  15
ATOM     14  N   UNL     1      -0.921  10.637  19.202  0.00  0.00    +0.000 NA
ATOM     15  C   UNL     1       0.341  10.770  19.446  0.00  0.00    +0.000 C 
BRANCH  15  16
ATOM     16  C   UNL     1       1.075  12.073  19.635  0.00  0.00    +0.000 A 
ATOM     17  C   UNL     1       1.113  12.714  20.882  0.00  0.00    +0.000 A 
ATOM     18  C   UNL     1       1.661  13.993  21.011  0.00  0.00    +0.000 A 
ATOM     19  C   UNL     1       2.263  14.601  19.914  0.00  0.00    +0.000 A 
ATOM     20 CL   UNL     1       2.946  16.170  20.074  0.00  0.00    +0.000 Cl
ATOM     21  C   UNL     1       2.310  13.946  18.687  0.00  0.00    +0.000 A 
ATOM     22  C   UNL     1       1.687  12.705  18.539  0.00  0.00    +0.000 A 
ENDBRANCH  15  16
BRANCH  14  23
ATOM     23  C   UNL     1      -1.818  11.775  19.038  0.00  0.00    +0.000 C 
BRANCH  23  25
ATOM     24  C   UNL     1      -2.891  10.007  17.576  0.00  0.00    +0.000 C 
ATOM     25  C   UNL     1      -3.022  11.393  18.183  0.00  0.00    +0.000 C 
ENDBRANCH  23  25
ENDBRANCH  14  23
ENDBRANCH   1  15
BRANCH   6  26
ATOM     26  O   UNL     1       1.796   9.341  17.109  0.00  0.00    +0.000 OA
ATOM     27  H   UNL     1       1.193   8.801  16.567  0.00  0.00    +0.000 HD
ENDBRANCH   6  26
TORSDOF 6
ENDMDL
MODEL 7
REMARK VINA RESULT:      -7.4      3.036      8.715
REMARK  Name = 
REMARK  8 active torsions:
REMARK  status: ('A' for Active; 'I' for Inactive)
REMARK    1  A    between atoms: C_1  and  C_2
REMARK    2  A    between atoms: C_2  and  C_3
REMARK    3  A    between atoms: C_3  and  N_4
REMARK    4  A    between atoms: C_5  and  C_6
REMARK    5  A    between atoms: C_5  and  C_13
REMARK    6  A    between atoms: C_14  and  C_15
REMARK    7  A    between atoms: N_17  and  C_18
REMARK    8  A    between atoms: C_25  and  O_26
REMARK                            x       y       z     vdW  Elec       q    Type
REMARK                         _______ _______ _______ _____ _____    ______ ____
ROOT
ATOM      1  C   UNL     1       1.088   9.794  19.481  0.00  0.00    +0.000 A 
ATOM      2  C   UNL     1       1.162   8.877  20.580  0.00  0.00    +0.000 A 
ATOM      3  C   UNL     1       0.736   9.038  21.994  0.00  0.00    +0.000 C 
ATOM      4  N   UNL     1       1.660   7.690  20.203  0.00  0.00    +0.000 NA
ATOM      5  N   UNL     1       2.124   7.887  18.951  0.00  0.00    +0.000 N 
ATOM      6  C   UNL     1       1.753   9.138  18.461  0.00  0.00    +0.000 A 
ENDROOT
BRANCH   5   7
ATOM      7  C   UNL     1       2.889   6.878  18.307  0.00  0.00    +0.000 A 
ATOM      8  C   UNL     1       4.065   7.227  17.625  0.00  0.00    +0.000 A 
ATOM      9  C   UNL     1       4.809   6.244  16.966  0.00  0.00    +0.000 A 
ATOM     10  C   UNL     1       4.363   4.923  16.962  0.00  0.00    +0.000 A 
ATOM     11 CL   UNL     1       5.239   3.723  16.096  0.00  0.00    +0.000 Cl
ATOM     12  C   UNL     1       3.194   4.570  17.634  0.00  0.00    +0.000 A 
ATOM     13  C   UNL     1       2.458   5.543  18.312  0.00  0.00    +0.000 A 
ENDBRANCH   5   7
BRANCH   1  15
ATOM     14  N   UNL     1       1.135  12.103  19.839  0.00  0.00    +0.000 NA
ATOM     15  C   UNL     1       0.437  11.107  19.402  0.00  0.00    +0.000 C 
BRANCH  15  16
ATOM     16  C   UNL     1      -0.985  11.172  18.903  0.00  0.00    +0.000 A 
ATOM     17  C   UNL     1      -1.932  12.009  19.511  0.00  0.00    +0.000 A 
ATOM     18  C   UNL     1      -3.280  11.946  19.143  0.00  0.00    +0.000 A 
ATOM     19  C   UNL     1      -3.673  11.118  18.097  0.00  0.00    +0.000 A 
ATOM     20 CL   UNL     1      -5.328  11.049  17.637  0.00  0.00    +0.000 Cl
ATOM     21  C   UNL     1      -2.733  10.341  17.426  0.00  0.00    +0.000 A 
ATOM     22  C   UNL     1      -1.402  10.341  17.851  0.00  0.00    +0.000 A 
ENDBRANCH  15  16
BRANCH  14  23
ATOM     23  C   UNL     1       0.602  13.457  19.941  0.00  0.00    +0.000 C 
BRANCH  23  25
ATOM     24  C   UNL     1       2.476  13.996  18.325  0.00  0.00    +0.000 C 
ATOM     25  C   UNL     1       1.053  14.304  18.756  0.00  0.00    +0.000 C 
ENDBRANCH  23  25
ENDBRANCH  14  23
ENDBRANCH   1  15
BRANCH   6  26
ATOM     26  O   UNL     1       1.965   9.542  17.204  0.00  0.00    +0.000 OA
ATOM     27  H   UNL     1       2.360   8.814  16.691  0.00  0.00    +0.000 HD
ENDBRANCH   6  26
TORSDOF 6
ENDMDL
MODEL 8
REMARK VINA RESULT:      -7.4      3.035      8.768
REMARK  Name = 
REMARK  8 active torsions:
REMARK  status: ('A' for Active; 'I' for Inactive)
REMARK    1  A    between atoms: C_1  and  C_2
REMARK    2  A    between atoms: C_2  and  C_3
REMARK    3  A    between atoms: C_3  and  N_4
REMARK    4  A    between atoms: C_5  and  C_6
REMARK    5  A    between atoms: C_5  and  C_13
REMARK    6  A    between atoms: C_14  and  C_15
REMARK    7  A    between atoms: N_17  and  C_18
REMARK    8  A    between atoms: C_25  and  O_26
REMARK                            x       y       z     vdW  Elec       q    Type
REMARK                         _______ _______ _______ _____ _____    ______ ____
ROOT
ATOM      1  C   UNL     1       1.119   9.736  19.402  0.00  0.00    +0.000 A 
ATOM      2  C   UNL     1       1.241   8.815  20.493  0.00  0.00    +0.000 A 
ATOM      3  C   UNL     1       0.848   8.957  21.918  0.00  0.00    +0.000 C 
ATOM      4  N   UNL     1       1.756   7.641  20.095  0.00  0.00    +0.000 NA
ATOM      5  N   UNL     1       2.182   7.856  18.832  0.00  0.00    +0.000 N 
ATOM      6  C   UNL     1       1.772   9.101  18.360  0.00  0.00    +0.000 A 
ENDROOT
BRANCH   5   7
ATOM      7  C   UNL     1       2.952   6.868  18.163  0.00  0.00    +0.000 A 
ATOM      8  C   UNL     1       2.529   5.530  18.179  0.00  0.00    +0.000 A 
ATOM      9  C   UNL     1       3.296   4.546  17.546  0.00  0.00    +0.000 A 
ATOM     10  C   UNL     1       4.496   4.894  16.928  0.00  0.00    +0.000 A 
ATOM     11 CL   UNL     1       5.476   3.678  16.207  0.00  0.00    +0.000 Cl
ATOM     12  C   UNL     1       4.924   6.221  16.911  0.00  0.00    +0.000 A 
ATOM     13  C   UNL     1       4.153   7.211  17.523  0.00  0.00    +0.000 A 
ENDBRANCH   5   7
BRANCH   1  15
ATOM     14  N   UNL     1       1.137  12.049  19.739  0.00  0.00    +0.000 NA
ATOM     15  C   UNL     1       0.437  11.035  19.349  0.00  0.00    +0.000 C 
BRANCH  15  16
ATOM     16  C   UNL     1      -1.010  11.067  18.927  0.00  0.00    +0.000 A 
ATOM     17  C   UNL     1      -1.465  10.324  17.828  0.00  0.00    +0.000 A 
ATOM     18  C   UNL     1      -2.770  10.480  17.351  0.00  0.00    +0.000 A 
ATOM     19  C   UNL     1      -3.660  11.306  18.030  0.00  0.00    +0.000 A 
ATOM     20 CL   UNL     1      -5.268  11.490  17.452  0.00  0.00    +0.000 Cl
ATOM     21  C   UNL     1      -3.251  11.988  19.173  0.00  0.00    +0.000 A 
ATOM     22  C   UNL     1      -1.923  11.897  19.597  0.00  0.00    +0.000 A 
ENDBRANCH  15  16
BRANCH  14  23
ATOM     23  C   UNL     1       0.582  13.392  19.860  0.00  0.00    +0.000 C 
BRANCH  23  25
ATOM     24  C   UNL     1       2.556  13.755  18.314  0.00  0.00    +0.000 C 
ATOM     25  C   UNL     1       1.305  14.359  18.928  0.00  0.00    +0.000 C 
ENDBRANCH  23  25
ENDBRANCH  14  23
ENDBRANCH   1  15
BRANCH   6  26
ATOM     26  O   UNL     1       1.942   9.518  17.101  0.00  0.00    +0.000 OA
ATOM     27  H   UNL     1       1.122   9.942  16.787  0.00  0.00    +0.000 HD
ENDBRANCH   6  26
TORSDOF 6
ENDMDL
MODEL 9
REMARK VINA RESULT:      -7.3      3.171      8.415
REMARK  Name = 
REMARK  8 active torsions:
REMARK  status: ('A' for Active; 'I' for Inactive)
REMARK    1  A    between atoms: C_1  and  C_2
REMARK    2  A    between atoms: C_2  and  C_3
REMARK    3  A    between atoms: C_3  and  N_4
REMARK    4  A    between atoms: C_5  and  C_6
REMARK    5  A    between atoms: C_5  and  C_13
REMARK    6  A    between atoms: C_14  and  C_15
REMARK    7  A    between atoms: N_17  and  C_18
REMARK    8  A    between atoms: C_25  and  O_26
REMARK                            x       y       z     vdW  Elec       q    Type
REMARK                         _______ _______ _______ _____ _____    ______ ____
ROOT
ATOM      1  C   UNL     1       1.161   9.655  19.417  0.00  0.00    +0.000 A 
ATOM      2  C   UNL     1       1.306   8.761  20.527  0.00  0.00    +0.000 A 
ATOM      3  C   UNL     1       0.926   8.931  21.953  0.00  0.00    +0.000 C 
ATOM      4  N   UNL     1       1.830   7.585  20.151  0.00  0.00    +0.000 NA
ATOM      5  N   UNL     1       2.241   7.776  18.879  0.00  0.00    +0.000 N 
ATOM      6  C   UNL     1       1.810   9.004  18.383  0.00  0.00    +0.000 A 
ENDROOT
BRANCH   5   7
ATOM      7  C   UNL     1       3.016   6.782  18.225  0.00  0.00    +0.000 A 
ATOM      8  C   UNL     1       4.200   7.147  17.564  0.00  0.00    +0.000 A 
ATOM      9  C   UNL     1       4.954   6.180  16.894  0.00  0.00    +0.000 A 
ATOM     10  C   UNL     1       4.512   4.858  16.857  0.00  0.00    +0.000 A 
ATOM     11 CL   UNL     1       5.401   3.678  15.977  0.00  0.00    +0.000 Cl
ATOM     12  C   UNL     1       3.335   4.489  17.507  0.00  0.00    +0.000 A 
ATOM     13  C   UNL     1       2.588   5.446  18.196  0.00  0.00    +0.000 A 
ENDBRANCH   5   7
BRANCH   1  15
ATOM     14  N   UNL     1      -0.808  10.877  19.110  0.00  0.00    +0.000 NA
ATOM     15  C   UNL     1       0.462  10.944  19.341  0.00  0.00    +0.000 C 
BRANCH  15  16
ATOM     16  C   UNL     1       1.276  12.208  19.458  0.00  0.00    +0.000 A 
ATOM     17  C   UNL     1       1.861  12.804  18.332  0.00  0.00    +0.000 A 
ATOM     18  C   UNL     1       2.740  13.883  18.471  0.00  0.00    +0.000 A 
ATOM     19  C   UNL     1       2.962  14.436  19.728  0.00  0.00    +0.000 A 
ATOM     20 CL   UNL     1       4.033  15.770  19.898  0.00  0.00    +0.000 Cl
ATOM     21  C   UNL     1       2.324  13.911  20.848  0.00  0.00    +0.000 A 
ATOM     22  C   UNL     1       1.515  12.780  20.719  0.00  0.00    +0.000 A 
ENDBRANCH  15  16
BRANCH  14  23
ATOM     23  C   UNL     1      -1.634  12.058  18.890  0.00  0.00    +0.000 C 
BRANCH  23  25
ATOM     24  C   UNL     1      -2.008  13.764  20.725  0.00  0.00    +0.000 C 
ATOM     25  C   UNL     1      -2.410  12.416  20.153  0.00  0.00    +0.000 C 
ENDBRANCH  23  25
ENDBRANCH  14  23
ENDBRANCH   1  15
BRANCH   6  26
ATOM     26  O   UNL     1       1.962   9.394  17.113  0.00  0.00    +0.000 OA
ATOM     27  H   UNL     1       2.346  10.289  17.093  0.00  0.00    +0.000 HD
ENDBRANCH   6  26
TORSDOF 6
ENDMDL
