MODEL 1
REMARK VINA RESULT:      -7.2      0.000      0.000
REMARK  Name = 
REMARK  6 active torsions:
REMARK  status: ('A' for Active; 'I' for Inactive)
REMARK    1  A    between atoms: C_1  and  O_2
REMARK    2  A    between atoms: O_2  and  C_3
REMARK    3  A    between atoms: C_9  and  C_10
REMARK    4  A    between atoms: C_10  and  O_11
REMARK    5  A    between atoms: N_13  and  C_14
REMARK    6  A    between atoms: C_14  and  C_15
REMARK                            x       y       z     vdW  Elec       q    Type
REMARK                         _______ _______ _______ _____ _____    ______ ____
ROOT
ATOM      1  C   UNL     1       1.577   7.494  20.404  0.00  0.00    +0.000 A 
ATOM      2  C   UNL     1       2.185   7.817  19.195  0.00  0.00    +0.000 A 
ATOM      3  C   UNL     1       2.795   6.833  18.405  0.00  0.00    +0.000 A 
ATOM      4  C   UNL     1       2.781   5.506  18.859  0.00  0.00    +0.000 A 
ATOM      5  C   UNL     1       2.122   5.142  20.040  0.00  0.00    +0.000 A 
ATOM      6  C   UNL     1       1.524   6.158  20.819  0.00  0.00    +0.000 A 
ATOM      7  C   UNL     1       2.218   3.723  20.170  0.00  0.00    +0.000 A 
ATOM      8  C   UNL     1       2.999   3.278  19.120  0.00  0.00    +0.000 A 
ATOM      9  N   UNL     1       3.359   4.356  18.353  0.00  0.00    +0.000 N 
ENDROOT
BRANCH   1  11
ATOM     10  C   UNL     1       0.193   9.404  20.689  0.00  0.00    +0.000 C 
ATOM     11  O   UNL     1       0.994   8.383  21.268  0.00  0.00    +0.000 OA
ENDBRANCH   1  11
BRANCH   7  12
ATOM     12  C   UNL     1       1.616   2.887  21.253  0.00  0.00    +0.000 C 
BRANCH  12  13
ATOM     13  O   UNL     1       2.594   2.438  22.191  0.00  0.00    +0.000 OA
ATOM     14  H   UNL     1       2.974   3.244  22.581  0.00  0.00    +0.000 HD
ENDBRANCH  12  13
ENDBRANCH   7  12
BRANCH   9  15
ATOM     15  C   UNL     1       4.328   4.294  17.256  0.00  0.00    +0.000 C 
BRANCH  15  16
ATOM     16  C   UNL     1       5.498   5.216  17.492  0.00  0.00    +0.000 A 
ATOM     17  C   UNL     1       6.365   5.006  18.575  0.00  0.00    +0.000 A 
ATOM     18  C   UNL     1       7.369   5.931  18.870  0.00  0.00    +0.000 A 
ATOM     19  C   UNL     1       7.523   7.063  18.075  0.00  0.00    +0.000 A 
ATOM     20 CL   UNL     1       8.697   8.249  18.492  0.00  0.00    +0.000 Cl
ATOM     21  C   UNL     1       6.712   7.255  16.957  0.00  0.00    +0.000 A 
ATOM     22  C   UNL     1       5.706   6.332  16.665  0.00  0.00    +0.000 A 
ENDBRANCH  15  16
ENDBRANCH   9  15
TORSDOF 5
ENDMDL
MODEL 2
REMARK VINA RESULT:      -6.6      2.803      4.640
REMARK  Name = 
REMARK  6 active torsions:
REMARK  status: ('A' for Active; 'I' for Inactive)
REMARK    1  A    between atoms: C_1  and  O_2
REMARK    2  A    between atoms: O_2  and  C_3
REMARK    3  A    between atoms: C_9  and  C_10
REMARK    4  A    between atoms: C_10  and  O_11
REMARK    5  A    between atoms: N_13  and  C_14
REMARK    6  A    between atoms: C_14  and  C_15
REMARK                            x       y       z     vdW  Elec       q    Type
REMARK                         _______ _______ _______ _____ _____    ______ ____
ROOT
ATOM      1  C   UNL     1       2.322   4.015  19.973  0.00  0.00    +0.000 A 
ATOM      2  C   UNL     1       3.593   3.450  19.927  0.00  0.00    +0.000 A 
ATOM      3  C   UNL     1       4.638   4.075  19.233  0.00  0.00    +0.000 A 
ATOM      4  C   UNL     1       4.378   5.289  18.581  0.00  0.00    +0.000 A 
ATOM      5  C   UNL     1       3.127   5.912  18.663  0.00  0.00    +0.000 A 
ATOM      6  C   UNL     1       2.090   5.253  19.363  0.00  0.00    +0.000 A 
ATOM      7  C   UNL     1       3.217   7.159  17.973  0.00  0.00    +0.000 A 
ATOM      8  C   UNL     1       4.484   7.220  17.423  0.00  0.00    +0.000 A 
ATOM      9  N   UNL     1       5.166   6.081  17.767  0.00  0.00    +0.000 N 
ENDROOT
BRANCH   1  11
ATOM     10  C   UNL     1       1.473   2.601  21.683  0.00  0.00    +0.000 C 
ATOM     11  O   UNL     1       1.225   3.466  20.583  0.00  0.00    +0.000 OA
ENDBRANCH   1  11
BRANCH   7  12
ATOM     12  C   UNL     1       2.137   8.184  17.846  0.00  0.00    +0.000 C 
BRANCH  12  13
ATOM     13  O   UNL     1       1.728   8.693  19.115  0.00  0.00    +0.000 OA
ATOM     14  H   UNL     1       2.528   9.072  19.517  0.00  0.00    +0.000 HD
ENDBRANCH  12  13
ENDBRANCH   7  12
BRANCH   9  15
ATOM     15  C   UNL     1       6.476   5.714  17.220  0.00  0.00    +0.000 C 
BRANCH  15  16
ATOM     16  C   UNL     1       6.358   5.132  15.833  0.00  0.00    +0.000 A 
ATOM     17  C   UNL     1       5.281   4.299  15.498  0.00  0.00    +0.000 A 
ATOM     18  C   UNL     1       5.240   3.657  14.258  0.00  0.00    +0.000 A 
ATOM     19  C   UNL     1       6.267   3.857  13.340  0.00  0.00    +0.000 A 
ATOM     20 CL   UNL     1       6.264   2.995  11.852  0.00  0.00    +0.000 Cl
ATOM     21  C   UNL     1       7.312   4.733  13.632  0.00  0.00    +0.000 A 
ATOM     22  C   UNL     1       7.354   5.371  14.873  0.00  0.00    +0.000 A 
ENDBRANCH  15  16
ENDBRANCH   9  15
TORSDOF 5
ENDMDL
MODEL 3
REMARK VINA RESULT:      -6.6      3.613      6.361
REMARK  Name = 
REMARK  6 active torsions:
REMARK  status: ('A' for Active; 'I' for Inactive)
REMARK    1  A    between atoms: C_1  and  O_2
REMARK    2  A    between atoms: O_2  and  C_3
REMARK    3  A    between atoms: C_9  and  C_10
REMARK    4  A    between atoms: C_10  and  O_11
REMARK    5  A    between atoms: N_13  and  C_14
REMARK    6  A    between atoms: C_14  and  C_15
REMARK                            x       y       z     vdW  Elec       q    Type
REMARK                         _______ _______ _______ _____ _____    ______ ____
ROOT
ATOM      1  C   UNL     1       6.643   4.688  14.857  0.00  0.00    +0.000 A 
ATOM      2  C   UNL     1       5.258   4.795  14.763  0.00  0.00    +0.000 A 
ATOM      3  C   UNL     1       4.473   5.039  15.898  0.00  0.00    +0.000 A 
ATOM      4  C   UNL     1       5.112   5.174  17.139  0.00  0.00    +0.000 A 
ATOM      5  C   UNL     1       6.507   5.135  17.253  0.00  0.00    +0.000 A 
ATOM      6  C   UNL     1       7.272   4.879  16.092  0.00  0.00    +0.000 A 
ATOM      7  C   UNL     1       6.838   5.391  18.619  0.00  0.00    +0.000 A 
ATOM      8  C   UNL     1       5.644   5.494  19.306  0.00  0.00    +0.000 A 
ATOM      9  N   UNL     1       4.611   5.333  18.418  0.00  0.00    +0.000 N 
ENDROOT
BRANCH   1  11
ATOM     10  C   UNL     1       6.907   3.893  12.633  0.00  0.00    +0.000 C 
ATOM     11  O   UNL     1       7.494   4.409  13.820  0.00  0.00    +0.000 OA
ENDBRANCH   1  11
BRANCH   7  12
ATOM     12  C   UNL     1       8.214   5.496  19.195  0.00  0.00    +0.000 C 
BRANCH  12  13
ATOM     13  O   UNL     1       8.198   5.504  20.622  0.00  0.00    +0.000 OA
ATOM     14  H   UNL     1       7.265   5.401  20.876  0.00  0.00    +0.000 HD
ENDBRANCH  12  13
ENDBRANCH   7  12
BRANCH   9  15
ATOM     15  C   UNL     1       3.205   5.205  18.811  0.00  0.00    +0.000 C 
BRANCH  15  16
ATOM     16  C   UNL     1       2.614   6.536  19.206  0.00  0.00    +0.000 A 
ATOM     17  C   UNL     1       2.067   6.723  20.484  0.00  0.00    +0.000 A 
ATOM     18  C   UNL     1       1.405   7.909  20.805  0.00  0.00    +0.000 A 
ATOM     19  C   UNL     1       1.300   8.923  19.857  0.00  0.00    +0.000 A 
ATOM     20 CL   UNL     1       0.405  10.346  20.221  0.00  0.00    +0.000 Cl
ATOM     21  C   UNL     1       1.895   8.780  18.605  0.00  0.00    +0.000 A 
ATOM     22  C   UNL     1       2.553   7.592  18.282  0.00  0.00    +0.000 A 
ENDBRANCH  15  16
ENDBRANCH   9  15
TORSDOF 5
ENDMDL
MODEL 4
REMARK VINA RESULT:      -6.5      1.016      1.035
REMARK  Name = 
REMARK  6 active torsions:
REMARK  status: ('A' for Active; 'I' for Inactive)
REMARK    1  A    between atoms: C_1  and  O_2
REMARK    2  A    between atoms: O_2  and  C_3
REMARK    3  A    between atoms: C_9  and  C_10
REMARK    4  A    between atoms: C_10  and  O_11
REMARK    5  A    between atoms: N_13  and  C_14
REMARK    6  A    between atoms: C_14  and  C_15
REMARK                            x       y       z     vdW  Elec       q    Type
REMARK                         _______ _______ _______ _____ _____    ______ ____
ROOT
ATOM      1  C   UNL     1       1.788   6.900  20.247  0.00  0.00    +0.000 A 
ATOM      2  C   UNL     1       2.520   7.457  19.203  0.00  0.00    +0.000 A 
ATOM      3  C   UNL     1       3.136   6.648  18.238  0.00  0.00    +0.000 A 
ATOM      4  C   UNL     1       3.001   5.256  18.346  0.00  0.00    +0.000 A 
ATOM      5  C   UNL     1       2.219   4.671  19.349  0.00  0.00    +0.000 A 
ATOM      6  C   UNL     1       1.617   5.512  20.312  0.00  0.00    +0.000 A 
ATOM      7  C   UNL     1       2.216   3.260  19.129  0.00  0.00    +0.000 A 
ATOM      8  C   UNL     1       3.058   3.021  18.059  0.00  0.00    +0.000 A 
ATOM      9  N   UNL     1       3.550   4.221  17.612  0.00  0.00    +0.000 N 
ENDROOT
BRANCH   1  11
ATOM     10  C   UNL     1       1.010   8.993  21.060  0.00  0.00    +0.000 C 
ATOM     11  O   UNL     1       1.186   7.597  21.261  0.00  0.00    +0.000 OA
ENDBRANCH   1  11
BRANCH   7  12
ATOM     12  C   UNL     1       1.469   2.238  19.924  0.00  0.00    +0.000 C 
BRANCH  12  13
ATOM     13  O   UNL     1       0.060   2.464  19.900  0.00  0.00    +0.000 OA
ATOM     14  H   UNL     1      -0.101   3.043  19.134  0.00  0.00    +0.000 HD
ENDBRANCH  12  13
ENDBRANCH   7  12
BRANCH   9  15
ATOM     15  C   UNL     1       4.607   4.348  16.605  0.00  0.00    +0.000 C 
BRANCH  15  16
ATOM     16  C   UNL     1       5.721   5.250  17.077  0.00  0.00    +0.000 A 
ATOM     17  C   UNL     1       6.509   4.892  18.181  0.00  0.00    +0.000 A 
ATOM     18  C   UNL     1       7.452   5.783  18.697  0.00  0.00    +0.000 A 
ATOM     19  C   UNL     1       7.624   7.031  18.104  0.00  0.00    +0.000 A 
ATOM     20 CL   UNL     1       8.719   8.164  18.795  0.00  0.00    +0.000 Cl
ATOM     21  C   UNL     1       6.895   7.377  16.967  0.00  0.00    +0.000 A 
ATOM     22  C   UNL     1       5.950   6.487  16.454  0.00  0.00    +0.000 A 
ENDBRANCH  15  16
ENDBRANCH   9  15
TORSDOF 5
ENDMDL
MODEL 5
REMARK VINA RESULT:      -6.5      2.766      4.638
REMARK  Name = 
REMARK  6 active torsions:
REMARK  status: ('A' for Active; 'I' for Inactive)
REMARK    1  A    between atoms: C_1  and  O_2
REMARK    2  A    between atoms: O_2  and  C_3
REMARK    3  A    between atoms: C_9  and  C_10
REMARK    4  A    between atoms: C_10  and  O_11
REMARK    5  A    between atoms: N_13  and  C_14
REMARK    6  A    between atoms: C_14  and  C_15
REMARK                            x       y       z     vdW  Elec       q    Type
REMARK                         _______ _______ _______ _____ _____    ______ ____
ROOT
ATOM      1  C   UNL     1       2.274   4.125  20.055  0.00  0.00    +0.000 A 
ATOM      2  C   UNL     1       3.559   3.592  20.062  0.00  0.00    +0.000 A 
ATOM      3  C   UNL     1       4.606   4.217  19.370  0.00  0.00    +0.000 A 
ATOM      4  C   UNL     1       4.332   5.399  18.666  0.00  0.00    +0.000 A 
ATOM      5  C   UNL     1       3.064   5.992  18.694  0.00  0.00    +0.000 A 
ATOM      6  C   UNL     1       2.027   5.333  19.393  0.00  0.00    +0.000 A 
ATOM      7  C   UNL     1       3.140   7.214  17.960  0.00  0.00    +0.000 A 
ATOM      8  C   UNL     1       4.419   7.287  17.438  0.00  0.00    +0.000 A 
ATOM      9  N   UNL     1       5.120   6.180  17.841  0.00  0.00    +0.000 N 
ENDROOT
BRANCH   1  11
ATOM     10  C   UNL     1       1.424   2.619  21.685  0.00  0.00    +0.000 C 
ATOM     11  O   UNL     1       1.176   3.571  20.660  0.00  0.00    +0.000 OA
ENDBRANCH   1  11
BRANCH   7  12
ATOM     12  C   UNL     1       2.039   8.206  17.768  0.00  0.00    +0.000 C 
BRANCH  12  13
ATOM     13  O   UNL     1       1.813   8.990  18.939  0.00  0.00    +0.000 OA
ATOM     14  H   UNL     1       2.669   9.400  19.151  0.00  0.00    +0.000 HD
ENDBRANCH  12  13
ENDBRANCH   7  12
BRANCH   9  15
ATOM     15  C   UNL     1       6.452   5.827  17.340  0.00  0.00    +0.000 C 
BRANCH  15  16
ATOM     16  C   UNL     1       6.375   5.075  16.035  0.00  0.00    +0.000 A 
ATOM     17  C   UNL     1       7.341   5.276  15.037  0.00  0.00    +0.000 A 
ATOM     18  C   UNL     1       7.199   4.681  13.782  0.00  0.00    +0.000 A 
ATOM     19  C   UNL     1       6.100   3.867  13.522  0.00  0.00    +0.000 A 
ATOM     20 CL   UNL     1       5.877   3.208  11.949  0.00  0.00    +0.000 Cl
ATOM     21  C   UNL     1       5.166   3.603  14.522  0.00  0.00    +0.000 A 
ATOM     22  C   UNL     1       5.306   4.202  15.776  0.00  0.00    +0.000 A 
ENDBRANCH  15  16
ENDBRANCH   9  15
TORSDOF 5
ENDMDL
MODEL 6
REMARK VINA RESULT:      -6.5      3.468      6.355
REMARK  Name = 
REMARK  6 active torsions:
REMARK  status: ('A' for Active; 'I' for Inactive)
REMARK    1  A    between atoms: C_1  and  O_2
REMARK    2  A    between atoms: O_2  and  C_3
REMARK    3  A    between atoms: C_9  and  C_10
REMARK    4  A    between atoms: C_10  and  O_11
REMARK    5  A    between atoms: N_13  and  C_14
REMARK    6  A    between atoms: C_14  and  C_15
REMARK                            x       y       z     vdW  Elec       q    Type
REMARK                         _______ _______ _______ _____ _____    ______ ____
ROOT
ATOM      1  C   UNL     1       6.586   4.379  15.152  0.00  0.00    +0.000 A 
ATOM      2  C   UNL     1       5.198   4.342  15.060  0.00  0.00    +0.000 A 
ATOM      3  C   UNL     1       4.392   4.628  16.171  0.00  0.00    +0.000 A 
ATOM      4  C   UNL     1       5.014   4.955  17.384  0.00  0.00    +0.000 A 
ATOM      5  C   UNL     1       6.406   5.061  17.489  0.00  0.00    +0.000 A 
ATOM      6  C   UNL     1       7.193   4.758  16.354  0.00  0.00    +0.000 A 
ATOM      7  C   UNL     1       6.710   5.491  18.817  0.00  0.00    +0.000 A 
ATOM      8  C   UNL     1       5.510   5.551  19.501  0.00  0.00    +0.000 A 
ATOM      9  N   UNL     1       4.499   5.199  18.644  0.00  0.00    +0.000 N 
ENDROOT
BRANCH   1  11
ATOM     10  C   UNL     1       7.566   5.015  13.082  0.00  0.00    +0.000 C 
ATOM     11  O   UNL     1       7.461   4.075  14.142  0.00  0.00    +0.000 OA
ENDBRANCH   1  11
BRANCH   7  12
ATOM     12  C   UNL     1       8.068   5.788  19.366  0.00  0.00    +0.000 C 
BRANCH  12  13
ATOM     13  O   UNL     1       8.275   5.182  20.642  0.00  0.00    +0.000 OA
ATOM     14  H   UNL     1       7.588   4.499  20.723  0.00  0.00    +0.000 HD
ENDBRANCH  12  13
ENDBRANCH   7  12
BRANCH   9  15
ATOM     15  C   UNL     1       3.112   4.979  19.061  0.00  0.00    +0.000 C 
BRANCH  15  16
ATOM     16  C   UNL     1       2.408   6.280  19.360  0.00  0.00    +0.000 A 
ATOM     17  C   UNL     1       2.424   7.331  18.432  0.00  0.00    +0.000 A 
ATOM     18  C   UNL     1       1.886   8.576  18.761  0.00  0.00    +0.000 A 
ATOM     19  C   UNL     1       1.312   8.774  20.014  0.00  0.00    +0.000 A 
ATOM     20 CL   UNL     1       0.732  10.333  20.453  0.00  0.00    +0.000 Cl
ATOM     21  C   UNL     1       1.228   7.722  20.924  0.00  0.00    +0.000 A 
ATOM     22  C   UNL     1       1.771   6.478  20.596  0.00  0.00    +0.000 A 
ENDBRANCH  15  16
ENDBRANCH   9  15
TORSDOF 5
ENDMDL
MODEL 7
REMARK VINA RESULT:      -6.5      4.151      5.947
REMARK  Name = 
REMARK  6 active torsions:
REMARK  status: ('A' for Active; 'I' for Inactive)
REMARK    1  A    between atoms: C_1  and  O_2
REMARK    2  A    between atoms: O_2  and  C_3
REMARK    3  A    between atoms: C_9  and  C_10
REMARK    4  A    between atoms: C_10  and  O_11
REMARK    5  A    between atoms: N_13  and  C_14
REMARK    6  A    between atoms: C_14  and  C_15
REMARK                            x       y       z     vdW  Elec       q    Type
REMARK                         _______ _______ _______ _____ _____    ______ ____
ROOT
ATOM      1  C   UNL     1      -0.522  10.107  22.508  0.00  0.00    +0.000 A 
ATOM      2  C   UNL     1       0.596   9.361  22.871  0.00  0.00    +0.000 A 
ATOM      3  C   UNL     1       1.449   8.816  21.901  0.00  0.00    +0.000 A 
ATOM      4  C   UNL     1       1.154   9.039  20.549  0.00  0.00    +0.000 A 
ATOM      5  C   UNL     1       0.074   9.838  20.155  0.00  0.00    +0.000 A 
ATOM      6  C   UNL     1      -0.774  10.366  21.156  0.00  0.00    +0.000 A 
ATOM      7  C   UNL     1       0.102   9.936  18.731  0.00  0.00    +0.000 A 
ATOM      8  C   UNL     1       1.139   9.132  18.296  0.00  0.00    +0.000 A 
ATOM      9  N   UNL     1       1.748   8.572  19.390  0.00  0.00    +0.000 N 
ENDROOT
BRANCH   1  11
ATOM     10  C   UNL     1      -2.000  11.898  23.012  0.00  0.00    +0.000 C 
ATOM     11  O   UNL     1      -1.439  10.643  23.373  0.00  0.00    +0.000 OA
ENDBRANCH   1  11
BRANCH   7  12
ATOM     12  C   UNL     1      -0.831  10.732  17.876  0.00  0.00    +0.000 C 
BRANCH  12  13
ATOM     13  O   UNL     1      -2.125  10.133  17.794  0.00  0.00    +0.000 OA
ATOM     14  H   UNL     1      -2.436  10.052  18.712  0.00  0.00    +0.000 HD
ENDBRANCH  12  13
ENDBRANCH   7  12
BRANCH   9  15
ATOM     15  C   UNL     1       2.773   7.529  19.312  0.00  0.00    +0.000 C 
BRANCH  15  16
ATOM     16  C   UNL     1       2.163   6.155  19.192  0.00  0.00    +0.000 A 
ATOM     17  C   UNL     1       1.711   5.472  20.331  0.00  0.00    +0.000 A 
ATOM     18  C   UNL     1       1.267   4.151  20.236  0.00  0.00    +0.000 A 
ATOM     19  C   UNL     1       1.255   3.511  19.000  0.00  0.00    +0.000 A 
ATOM     20 CL   UNL     1       0.795   1.857  18.898  0.00  0.00    +0.000 Cl
ATOM     21  C   UNL     1       1.638   4.196  17.848  0.00  0.00    +0.000 A 
ATOM     22  C   UNL     1       2.086   5.515  17.944  0.00  0.00    +0.000 A 
ENDBRANCH  15  16
ENDBRANCH   9  15
TORSDOF 5
ENDMDL
MODEL 8
REMARK VINA RESULT:      -6.5      4.851      8.441
REMARK  Name = 
REMARK  6 active torsions:
REMARK  status: ('A' for Active; 'I' for Inactive)
REMARK    1  A    between atoms: C_1  and  O_2
REMARK    2  A    between atoms: O_2  and  C_3
REMARK    3  A    between atoms: C_9  and  C_10
REMARK    4  A    between atoms: C_10  and  O_11
REMARK    5  A    between atoms: N_13  and  C_14
REMARK    6  A    between atoms: C_14  and  C_15
REMARK                            x       y       z     vdW  Elec       q    Type
REMARK                         _______ _______ _______ _____ _____    ______ ____
ROOT
ATOM      1  C   UNL     1       2.358   7.422  19.013  0.00  0.00    +0.000 A 
ATOM      2  C   UNL     1       2.167   8.223  17.891  0.00  0.00    +0.000 A 
ATOM      3  C   UNL     1       1.430   9.413  17.967  0.00  0.00    +0.000 A 
ATOM      4  C   UNL     1       0.886   9.786  19.204  0.00  0.00    +0.000 A 
ATOM      5  C   UNL     1       1.115   9.034  20.363  0.00  0.00    +0.000 A 
ATOM      6  C   UNL     1       1.854   7.833  20.253  0.00  0.00    +0.000 A 
ATOM      7  C   UNL     1       0.506   9.722  21.456  0.00  0.00    +0.000 A 
ATOM      8  C   UNL     1      -0.144  10.820  20.922  0.00  0.00    +0.000 A 
ATOM      9  N   UNL     1       0.063  10.836  19.567  0.00  0.00    +0.000 N 
ENDROOT
BRANCH   1  11
ATOM     10  C   UNL     1       3.819   5.914  17.902  0.00  0.00    +0.000 C 
ATOM     11  O   UNL     1       3.020   6.224  19.036  0.00  0.00    +0.000 OA
ENDBRANCH   1  11
BRANCH   7  12
ATOM     12  C   UNL     1       0.540   9.314  22.893  0.00  0.00    +0.000 C 
BRANCH  12  13
ATOM     13  O   UNL     1      -0.752   9.375  23.498  0.00  0.00    +0.000 OA
ATOM     14  H   UNL     1      -1.058   8.454  23.557  0.00  0.00    +0.000 HD
ENDBRANCH  12  13
ENDBRANCH   7  12
BRANCH   9  15
ATOM     15  C   UNL     1      -0.616  11.752  18.646  0.00  0.00    +0.000 C 
BRANCH  15  16
ATOM     16  C   UNL     1      -2.101  11.492  18.595  0.00  0.00    +0.000 A 
ATOM     17  C   UNL     1      -2.624  10.501  17.751  0.00  0.00    +0.000 A 
ATOM     18  C   UNL     1      -4.005  10.348  17.607  0.00  0.00    +0.000 A 
ATOM     19  C   UNL     1      -4.871  11.174  18.317  0.00  0.00    +0.000 A 
ATOM     20 CL   UNL     1      -6.568  11.049  18.069  0.00  0.00    +0.000 Cl
ATOM     21  C   UNL     1      -4.369  12.120  19.209  0.00  0.00    +0.000 A 
ATOM     22  C   UNL     1      -2.988  12.275  19.350  0.00  0.00    +0.000 A 
ENDBRANCH  15  16
ENDBRANCH   9  15
TORSDOF 5
ENDMDL
MODEL 9
REMARK VINA RESULT:      -6.5      4.682      8.084
REMARK  Name = 
REMARK  6 active torsions:
REMARK  status: ('A' for Active; 'I' for Inactive)
REMARK    1  A    between atoms: C_1  and  O_2
REMARK    2  A    between atoms: O_2  and  C_3
REMARK    3  A    between atoms: C_9  and  C_10
REMARK    4  A    between atoms: C_10  and  O_11
REMARK    5  A    between atoms: N_13  and  C_14
REMARK    6  A    between atoms: C_14  and  C_15
REMARK                            x       y       z     vdW  Elec       q    Type
REMARK                         _______ _______ _______ _____ _____    ______ ____
ROOT
ATOM      1  C   UNL     1       2.377   6.906  19.492  0.00  0.00    +0.000 A 
ATOM      2  C   UNL     1       2.355   7.614  18.294  0.00  0.00    +0.000 A 
ATOM      3  C   UNL     1       1.739   8.870  18.207  0.00  0.00    +0.000 A 
ATOM      4  C   UNL     1       1.142   9.404  19.357  0.00  0.00    +0.000 A 
ATOM      5  C   UNL     1       1.204   8.744  20.590  0.00  0.00    +0.000 A 
ATOM      6  C   UNL     1       1.824   7.475  20.645  0.00  0.00    +0.000 A 
ATOM      7  C   UNL     1       0.585   9.585  21.565  0.00  0.00    +0.000 A 
ATOM      8  C   UNL     1       0.092  10.685  20.888  0.00  0.00    +0.000 A 
ATOM      9  N   UNL     1       0.403  10.556  19.558  0.00  0.00    +0.000 N 
ENDROOT
BRANCH   1  11
ATOM     10  C   UNL     1       2.287   4.829  20.644  0.00  0.00    +0.000 C 
ATOM     11  O   UNL     1       2.911   5.657  19.672  0.00  0.00    +0.000 OA
ENDBRANCH   1  11
BRANCH   7  12
ATOM     12  C   UNL     1       0.467   9.310  23.029  0.00  0.00    +0.000 C 
BRANCH  12  13
ATOM     13  O   UNL     1      -0.673   9.948  23.605  0.00  0.00    +0.000 OA
ATOM     14  H   UNL     1      -0.682  10.850  23.241  0.00  0.00    +0.000 HD
ENDBRANCH  12  13
ENDBRANCH   7  12
BRANCH   9  15
ATOM     15  C   UNL     1      -0.107  11.443  18.508  0.00  0.00    +0.000 C 
BRANCH  15  16
ATOM     16  C   UNL     1      -1.598  11.298  18.332  0.00  0.00    +0.000 A 
ATOM     17  C   UNL     1      -2.480  12.199  18.945  0.00  0.00    +0.000 A 
ATOM     18  C   UNL     1      -3.860  11.990  18.889  0.00  0.00    +0.000 A 
ATOM     19  C   UNL     1      -4.367  10.887  18.207  0.00  0.00    +0.000 A 
ATOM     20 CL   UNL     1      -6.059  10.579  18.217  0.00  0.00    +0.000 Cl
ATOM     21  C   UNL     1      -3.508  10.018  17.537  0.00  0.00    +0.000 A 
ATOM     22  C   UNL     1      -2.128  10.225  17.596  0.00  0.00    +0.000 A 
ENDBRANCH  15  16
ENDBRANCH   9  15
TORSDOF 5
ENDMDL
