MODEL 1
REMARK VINA RESULT:      -8.8      0.000      0.000
REMARK  Name = 
REMARK  7 active torsions:
REMARK  status: ('A' for Active; 'I' for Inactive)
REMARK    1  A    between atoms: C_6  and  C_7
REMARK    2  A    between atoms: C_7  and  N_8
REMARK    3  A    between atoms: C_13  and  C_14
REMARK    4  A    between atoms: C_16  and  N_17
REMARK    5  A    between atoms: N_17  and  C_18
REMARK    6  A    between atoms: C_18  and  C_19
REMARK    7  A    between atoms: C_19  and  C_20
REMARK                            x       y       z     vdW  Elec       q    Type
REMARK                         _______ _______ _______ _____ _____    ______ ____
ROOT
ATOM      1  C   UNL     1       2.289   5.688  19.044  0.00  0.00    +0.000 A 
ATOM      2  C   UNL     1       2.242   6.901  18.315  0.00  0.00    +0.000 A 
ATOM      3  C   UNL     1       2.018   8.125  18.948  0.00  0.00    +0.000 A 
ATOM      4  N   UNL     1       1.740   8.185  20.261  0.00  0.00    +0.000 NA
ATOM      5  C   UNL     1       1.747   7.030  20.960  0.00  0.00    +0.000 A 
ATOM      6  C   UNL     1       2.034   5.782  20.422  0.00  0.00    +0.000 A 
ATOM      7 CL   UNL     1       2.128   4.466  21.538  0.00  0.00    +0.000 Cl
ENDROOT
BRANCH   1  13
ATOM      8  N   UNL     1       5.631   3.350  16.539  0.00  0.00    +0.000 N 
ATOM      9  C   UNL     1       4.388   3.351  17.180  0.00  0.00    +0.000 A 
ATOM     10  C   UNL     1       3.691   2.151  17.216  0.00  0.00    +0.000 A 
ATOM     11  C   UNL     1       2.413   2.127  17.753  0.00  0.00    +0.000 A 
ATOM     12  C   UNL     1       1.891   3.293  18.302  0.00  0.00    +0.000 A 
ATOM     13  C   UNL     1       2.679   4.440  18.344  0.00  0.00    +0.000 A 
ATOM     14  N   UNL     1       3.903   4.477  17.745  0.00  0.00    +0.000 NA
ATOM     15  H   UNL     1       6.312   2.878  17.127  0.00  0.00    +0.000 HD
BRANCH   8  16
ATOM     16  C   UNL     1       6.096   4.644  16.074  0.00  0.00    +0.000 C 
BRANCH  16  22
ATOM     17  F   UNL     1       5.500   2.659  11.635  0.00  0.00    +0.000 F 
ATOM     18  C   UNL     1       6.144   3.529  12.425  0.00  0.00    +0.000 A 
ATOM     19  C   UNL     1       7.172   4.301  11.894  0.00  0.00    +0.000 A 
ATOM     20  C   UNL     1       7.845   5.200  12.716  0.00  0.00    +0.000 A 
ATOM     21  C   UNL     1       7.484   5.315  14.061  0.00  0.00    +0.000 A 
ATOM     22  C   UNL     1       6.447   4.533  14.600  0.00  0.00    +0.000 A 
ATOM     23  C   UNL     1       5.775   3.636  13.764  0.00  0.00    +0.000 A 
ENDBRANCH  16  22
ENDBRANCH   8  16
ENDBRANCH   1  13
BRANCH   3  24
ATOM     24  N   UNL     1       2.027   9.312  18.186  0.00  0.00    +0.000 N 
ATOM     25  H   UNL     1       2.388  10.074  18.752  0.00  0.00    +0.000 HD
BRANCH  24  26
ATOM     26  C   UNL     1       0.693   9.632  17.649  0.00  0.00    +0.000 C 
BRANCH  26  27
ATOM     27  C   UNL     1      -0.028  10.626  18.569  0.00  0.00    +0.000 C 
BRANCH  27  28
ATOM     28  C   UNL     1      -1.487  10.774  18.221  0.00  0.00    +0.000 A 
ATOM     29  C   UNL     1      -2.078  10.003  17.216  0.00  0.00    +0.000 A 
ATOM     30  C   UNL     1      -3.429  10.162  16.926  0.00  0.00    +0.000 A 
ATOM     31  C   UNL     1      -4.154  11.086  17.660  0.00  0.00    +0.000 A 
ATOM     32  N   UNL     1      -3.623  11.841  18.643  0.00  0.00    +0.000 NA
ATOM     33  C   UNL     1      -2.308  11.669  18.903  0.00  0.00    +0.000 A 
ENDBRANCH  27  28
ENDBRANCH  26  27
ENDBRANCH  24  26
ENDBRANCH   3  24
TORSDOF 7
ENDMDL
MODEL 2
REMARK VINA RESULT:      -8.7      3.206      9.826
REMARK  Name = 
REMARK  7 active torsions:
REMARK  status: ('A' for Active; 'I' for Inactive)
REMARK    1  A    between atoms: C_6  and  C_7
REMARK    2  A    between atoms: C_7  and  N_8
REMARK    3  A    between atoms: C_13  and  C_14
REMARK    4  A    between atoms: C_16  and  N_17
REMARK    5  A    between atoms: N_17  and  C_18
REMARK    6  A    between atoms: C_18  and  C_19
REMARK    7  A    between atoms: C_19  and  C_20
REMARK                            x       y       z     vdW  Elec       q    Type
REMARK                         _______ _______ _______ _____ _____    ______ ____
ROOT
ATOM      1  C   UNL     1       1.471   8.677  19.868  0.00  0.00    +0.000 A 
ATOM      2  C   UNL     1       1.944   7.354  20.042  0.00  0.00    +0.000 A 
ATOM      3  C   UNL     1       2.742   6.732  19.079  0.00  0.00    +0.000 A 
ATOM      4  N   UNL     1       3.006   7.332  17.906  0.00  0.00    +0.000 NA
ATOM      5  C   UNL     1       2.528   8.580  17.715  0.00  0.00    +0.000 A 
ATOM      6  C   UNL     1       1.794   9.297  18.650  0.00  0.00    +0.000 A 
ATOM      7 CL   UNL     1       1.416  10.933  18.242  0.00  0.00    +0.000 Cl
ENDROOT
BRANCH   1  13
ATOM      8  N   UNL     1      -1.836  11.868  21.209  0.00  0.00    +0.000 N 
ATOM      9  C   UNL     1      -0.916  10.871  21.551  0.00  0.00    +0.000 A 
ATOM     10  C   UNL     1      -0.849  10.501  22.888  0.00  0.00    +0.000 A 
ATOM     11  C   UNL     1       0.115   9.589  23.288  0.00  0.00    +0.000 A 
ATOM     12  C   UNL     1       0.945   9.019  22.328  0.00  0.00    +0.000 A 
ATOM     13  C   UNL     1       0.757   9.340  20.987  0.00  0.00    +0.000 A 
ATOM     14  N   UNL     1      -0.140  10.294  20.609  0.00  0.00    +0.000 NA
ATOM     15  H   UNL     1      -2.775  11.481  21.234  0.00  0.00    +0.000 HD
BRANCH   8  16
ATOM     16  C   UNL     1      -1.557  12.580  19.975  0.00  0.00    +0.000 C 
BRANCH  16  22
ATOM     17  F   UNL     1      -2.398  10.746  15.511  0.00  0.00    +0.000 F 
ATOM     18  C   UNL     1      -2.882  11.174  16.685  0.00  0.00    +0.000 A 
ATOM     19  C   UNL     1      -4.258  11.187  16.891  0.00  0.00    +0.000 A 
ATOM     20  C   UNL     1      -4.761  11.639  18.107  0.00  0.00    +0.000 A 
ATOM     21  C   UNL     1      -3.883  12.075  19.103  0.00  0.00    +0.000 A 
ATOM     22  C   UNL     1      -2.492  12.065  18.895  0.00  0.00    +0.000 A 
ATOM     23  C   UNL     1      -1.997  11.605  17.670  0.00  0.00    +0.000 A 
ENDBRANCH  16  22
ENDBRANCH   8  16
ENDBRANCH   1  13
BRANCH   3  24
ATOM     24  N   UNL     1       3.229   5.430  19.318  0.00  0.00    +0.000 N 
ATOM     25  H   UNL     1       2.812   5.064  20.168  0.00  0.00    +0.000 HD
BRANCH  24  26
ATOM     26  C   UNL     1       4.700   5.396  19.386  0.00  0.00    +0.000 C 
BRANCH  26  27
ATOM     27  C   UNL     1       5.233   4.101  18.759  0.00  0.00    +0.000 C 
BRANCH  27  28
ATOM     28  C   UNL     1       5.760   4.317  17.363  0.00  0.00    +0.000 A 
ATOM     29  C   UNL     1       4.919   4.256  16.249  0.00  0.00    +0.000 A 
ATOM     30  C   UNL     1       5.440   4.466  14.977  0.00  0.00    +0.000 A 
ATOM     31  C   UNL     1       6.792   4.740  14.856  0.00  0.00    +0.000 A 
ATOM     32  N   UNL     1       7.634   4.816  15.907  0.00  0.00    +0.000 NA
ATOM     33  C   UNL     1       7.103   4.606  17.132  0.00  0.00    +0.000 A 
ENDBRANCH  27  28
ENDBRANCH  26  27
ENDBRANCH  24  26
ENDBRANCH   3  24
TORSDOF 7
ENDMDL
MODEL 3
REMARK VINA RESULT:      -8.7      2.193      3.010
REMARK  Name = 
REMARK  7 active torsions:
REMARK  status: ('A' for Active; 'I' for Inactive)
REMARK    1  A    between atoms: C_6  and  C_7
REMARK    2  A    between atoms: C_7  and  N_8
REMARK    3  A    between atoms: C_13  and  C_14
REMARK    4  A    between atoms: C_16  and  N_17
REMARK    5  A    between atoms: N_17  and  C_18
REMARK    6  A    between atoms: C_18  and  C_19
REMARK    7  A    between atoms: C_19  and  C_20
REMARK                            x       y       z     vdW  Elec       q    Type
REMARK                         _______ _______ _______ _____ _____    ______ ____
ROOT
ATOM      1  C   UNL     1       2.271   5.879  18.903  0.00  0.00    +0.000 A 
ATOM      2  C   UNL     1       2.186   7.077  18.154  0.00  0.00    +0.000 A 
ATOM      3  C   UNL     1       1.942   8.307  18.770  0.00  0.00    +0.000 A 
ATOM      4  N   UNL     1       1.680   8.383  20.085  0.00  0.00    +0.000 NA
ATOM      5  C   UNL     1       1.723   7.241  20.803  0.00  0.00    +0.000 A 
ATOM      6  C   UNL     1       2.033   5.991  20.283  0.00  0.00    +0.000 A 
ATOM      7 CL   UNL     1       2.172   4.697  21.420  0.00  0.00    +0.000 Cl
ENDROOT
BRANCH   1  13
ATOM      8  N   UNL     1       5.606   3.598  16.336  0.00  0.00    +0.000 N 
ATOM      9  C   UNL     1       4.386   3.571  17.021  0.00  0.00    +0.000 A 
ATOM     10  C   UNL     1       3.735   2.348  17.110  0.00  0.00    +0.000 A 
ATOM     11  C   UNL     1       2.478   2.294  17.693  0.00  0.00    +0.000 A 
ATOM     12  C   UNL     1       1.934   3.454  18.233  0.00  0.00    +0.000 A 
ATOM     13  C   UNL     1       2.681   4.629  18.219  0.00  0.00    +0.000 A 
ATOM     14  N   UNL     1       3.881   4.693  17.576  0.00  0.00    +0.000 NA
ATOM     15  H   UNL     1       6.323   3.164  16.911  0.00  0.00    +0.000 HD
BRANCH   8  16
ATOM     16  C   UNL     1       6.008   4.895  15.824  0.00  0.00    +0.000 C 
BRANCH  16  22
ATOM     17  F   UNL     1       7.943   8.970  17.732  0.00  0.00    +0.000 F 
ATOM     18  C   UNL     1       7.729   7.651  17.823  0.00  0.00    +0.000 A 
ATOM     19  C   UNL     1       8.256   6.948  18.902  0.00  0.00    +0.000 A 
ATOM     20  C   UNL     1       8.041   5.576  18.993  0.00  0.00    +0.000 A 
ATOM     21  C   UNL     1       7.303   4.922  18.002  0.00  0.00    +0.000 A 
ATOM     22  C   UNL     1       6.772   5.630  16.910  0.00  0.00    +0.000 A 
ATOM     23  C   UNL     1       6.992   7.009  16.831  0.00  0.00    +0.000 A 
ENDBRANCH  16  22
ENDBRANCH   8  16
ENDBRANCH   1  13
BRANCH   3  24
ATOM     24  N   UNL     1       1.913   9.481  17.988  0.00  0.00    +0.000 N 
ATOM     25  H   UNL     1       2.722  10.054  18.209  0.00  0.00    +0.000 HD
BRANCH  24  26
ATOM     26  C   UNL     1       0.659  10.232  18.167  0.00  0.00    +0.000 C 
BRANCH  26  27
ATOM     27  C   UNL     1      -0.508   9.485  17.508  0.00  0.00    +0.000 C 
BRANCH  27  28
ATOM     28  C   UNL     1      -1.802  10.254  17.596  0.00  0.00    +0.000 A 
ATOM     29  C   UNL     1      -2.794  10.125  16.621  0.00  0.00    +0.000 A 
ATOM     30  C   UNL     1      -3.978  10.845  16.738  0.00  0.00    +0.000 A 
ATOM     31  C   UNL     1      -4.139  11.671  17.837  0.00  0.00    +0.000 A 
ATOM     32  N   UNL     1      -3.210  11.816  18.805  0.00  0.00    +0.000 NA
ATOM     33  C   UNL     1      -2.067  11.106  18.665  0.00  0.00    +0.000 A 
ENDBRANCH  27  28
ENDBRANCH  26  27
ENDBRANCH  24  26
ENDBRANCH   3  24
TORSDOF 7
ENDMDL
MODEL 4
REMARK VINA RESULT:      -8.6      3.660      9.900
REMARK  Name = 
REMARK  7 active torsions:
REMARK  status: ('A' for Active; 'I' for Inactive)
REMARK    1  A    between atoms: C_6  and  C_7
REMARK    2  A    between atoms: C_7  and  N_8
REMARK    3  A    between atoms: C_13  and  C_14
REMARK    4  A    between atoms: C_16  and  N_17
REMARK    5  A    between atoms: N_17  and  C_18
REMARK    6  A    between atoms: C_18  and  C_19
REMARK    7  A    between atoms: C_19  and  C_20
REMARK                            x       y       z     vdW  Elec       q    Type
REMARK                         _______ _______ _______ _____ _____    ______ ____
ROOT
ATOM      1  C   UNL     1       1.514   8.509  19.975  0.00  0.00    +0.000 A 
ATOM      2  C   UNL     1       1.960   7.193  20.249  0.00  0.00    +0.000 A 
ATOM      3  C   UNL     1       2.776   6.499  19.353  0.00  0.00    +0.000 A 
ATOM      4  N   UNL     1       3.086   7.018  18.153  0.00  0.00    +0.000 NA
ATOM      5  C   UNL     1       2.635   8.258  17.868  0.00  0.00    +0.000 A 
ATOM      6  C   UNL     1       1.884   9.044  18.731  0.00  0.00    +0.000 A 
ATOM      7 CL   UNL     1       1.546  10.656  18.207  0.00  0.00    +0.000 Cl
ENDROOT
BRANCH   1  13
ATOM      8  N   UNL     1      -1.769  11.838  21.002  0.00  0.00    +0.000 N 
ATOM      9  C   UNL     1      -0.882  10.847  21.437  0.00  0.00    +0.000 A 
ATOM     10  C   UNL     1      -0.868  10.559  22.795  0.00  0.00    +0.000 A 
ATOM     11  C   UNL     1       0.063   9.655  23.283  0.00  0.00    +0.000 A 
ATOM     12  C   UNL     1       0.912   9.012  22.390  0.00  0.00    +0.000 A 
ATOM     13  C   UNL     1       0.776   9.253  21.025  0.00  0.00    +0.000 A 
ATOM     14  N   UNL     1      -0.087  10.199  20.559  0.00  0.00    +0.000 NA
ATOM     15  H   UNL     1      -2.716  11.471  21.018  0.00  0.00    +0.000 HD
BRANCH   8  16
ATOM     16  C   UNL     1      -1.434  12.467  19.738  0.00  0.00    +0.000 C 
BRANCH  16  22
ATOM     17  F   UNL     1      -5.939  11.383  18.150  0.00  0.00    +0.000 F 
ATOM     18  C   UNL     1      -4.620  11.419  17.919  0.00  0.00    +0.000 A 
ATOM     19  C   UNL     1      -4.126  10.941  16.710  0.00  0.00    +0.000 A 
ATOM     20  C   UNL     1      -2.755  10.971  16.474  0.00  0.00    +0.000 A 
ATOM     21  C   UNL     1      -1.893  11.477  17.450  0.00  0.00    +0.000 A 
ATOM     22  C   UNL     1      -2.390  11.958  18.674  0.00  0.00    +0.000 A 
ATOM     23  C   UNL     1      -3.770  11.926  18.900  0.00  0.00    +0.000 A 
ENDBRANCH  16  22
ENDBRANCH   8  16
ENDBRANCH   1  13
BRANCH   3  24
ATOM     24  N   UNL     1       3.235   5.208  19.690  0.00  0.00    +0.000 N 
ATOM     25  H   UNL     1       3.095   5.049  20.684  0.00  0.00    +0.000 HD
BRANCH  24  26
ATOM     26  C   UNL     1       4.643   5.007  19.310  0.00  0.00    +0.000 C 
BRANCH  26  27
ATOM     27  C   UNL     1       4.770   3.822  18.342  0.00  0.00    +0.000 C 
BRANCH  27  28
ATOM     28  C   UNL     1       5.530   4.183  17.092  0.00  0.00    +0.000 A 
ATOM     29  C   UNL     1       4.924   4.145  15.834  0.00  0.00    +0.000 A 
ATOM     30  C   UNL     1       5.655   4.491  14.702  0.00  0.00    +0.000 A 
ATOM     31  C   UNL     1       6.976   4.874  14.865  0.00  0.00    +0.000 A 
ATOM     32  N   UNL     1       7.594   4.933  16.062  0.00  0.00    +0.000 NA
ATOM     33  C   UNL     1       6.861   4.589  17.145  0.00  0.00    +0.000 A 
ENDBRANCH  27  28
ENDBRANCH  26  27
ENDBRANCH  24  26
ENDBRANCH   3  24
TORSDOF 7
ENDMDL
MODEL 5
REMARK VINA RESULT:      -8.6      5.069      8.638
REMARK  Name = 
REMARK  7 active torsions:
REMARK  status: ('A' for Active; 'I' for Inactive)
REMARK    1  A    between atoms: C_6  and  C_7
REMARK    2  A    between atoms: C_7  and  N_8
REMARK    3  A    between atoms: C_13  and  C_14
REMARK    4  A    between atoms: C_16  and  N_17
REMARK    5  A    between atoms: N_17  and  C_18
REMARK    6  A    between atoms: C_18  and  C_19
REMARK    7  A    between atoms: C_19  and  C_20
REMARK                            x       y       z     vdW  Elec       q    Type
REMARK                         _______ _______ _______ _____ _____    ______ ____
ROOT
ATOM      1  C   UNL     1       5.558   5.018  17.283  0.00  0.00    +0.000 A 
ATOM      2  C   UNL     1       6.347   5.813  18.149  0.00  0.00    +0.000 A 
ATOM      3  C   UNL     1       7.425   6.563  17.672  0.00  0.00    +0.000 A 
ATOM      4  N   UNL     1       7.812   6.479  16.388  0.00  0.00    +0.000 NA
ATOM      5  C   UNL     1       7.087   5.696  15.561  0.00  0.00    +0.000 A 
ATOM      6  C   UNL     1       5.960   4.979  15.938  0.00  0.00    +0.000 A 
ATOM      7 CL   UNL     1       5.109   4.163  14.674  0.00  0.00    +0.000 Cl
ENDROOT
BRANCH   1  13
ATOM      8  N   UNL     1       1.505   5.481  19.788  0.00  0.00    +0.000 N 
ATOM      9  C   UNL     1       2.350   4.693  18.999  0.00  0.00    +0.000 A 
ATOM     10  C   UNL     1       1.911   3.415  18.679  0.00  0.00    +0.000 A 
ATOM     11  C   UNL     1       2.756   2.565  17.984  0.00  0.00    +0.000 A 
ATOM     12  C   UNL     1       3.996   3.038  17.568  0.00  0.00    +0.000 A 
ATOM     13  C   UNL     1       4.338   4.364  17.816  0.00  0.00    +0.000 A 
ATOM     14  N   UNL     1       3.536   5.171  18.567  0.00  0.00    +0.000 NA
ATOM     15  H   UNL     1       0.724   5.803  19.224  0.00  0.00    +0.000 HD
BRANCH   8  16
ATOM     16  C   UNL     1       2.152   6.559  20.513  0.00  0.00    +0.000 C 
BRANCH  16  22
ATOM     17  F   UNL     1      -0.281  10.803  20.762  0.00  0.00    +0.000 F 
ATOM     18  C   UNL     1       0.488   9.962  20.058  0.00  0.00    +0.000 A 
ATOM     19  C   UNL     1       0.840  10.290  18.753  0.00  0.00    +0.000 A 
ATOM     20  C   UNL     1       1.633   9.414  18.019  0.00  0.00    +0.000 A 
ATOM     21  C   UNL     1       2.064   8.217  18.598  0.00  0.00    +0.000 A 
ATOM     22  C   UNL     1       1.707   7.882  19.916  0.00  0.00    +0.000 A 
ATOM     23  C   UNL     1       0.912   8.772  20.646  0.00  0.00    +0.000 A 
ENDBRANCH  16  22
ENDBRANCH   8  16
ENDBRANCH   1  13
BRANCH   3  24
ATOM     24  N   UNL     1       8.153   7.376  18.564  0.00  0.00    +0.000 N 
ATOM     25  H   UNL     1       7.703   7.365  19.475  0.00  0.00    +0.000 HD
BRANCH  24  26
ATOM     26  C   UNL     1       8.303   8.752  18.059  0.00  0.00    +0.000 C 
BRANCH  26  27
ATOM     27  C   UNL     1       9.014   9.627  19.100  0.00  0.00    +0.000 C 
BRANCH  27  28
ATOM     28  C   UNL     1       9.536  10.911  18.508  0.00  0.00    +0.000 A 
ATOM     29  C   UNL     1      10.903  11.203  18.493  0.00  0.00    +0.000 A 
ATOM     30  C   UNL     1      11.349  12.395  17.933  0.00  0.00    +0.000 A 
ATOM     31  C   UNL     1      10.412  13.259  17.392  0.00  0.00    +0.000 A 
ATOM     32  N   UNL     1       9.087  13.009  17.378  0.00  0.00    +0.000 NA
ATOM     33  C   UNL     1       8.679  11.845  17.932  0.00  0.00    +0.000 A 
ENDBRANCH  27  28
ENDBRANCH  26  27
ENDBRANCH  24  26
ENDBRANCH   3  24
TORSDOF 7
ENDMDL
MODEL 6
REMARK VINA RESULT:      -8.5      5.138      8.829
REMARK  Name = 
REMARK  7 active torsions:
REMARK  status: ('A' for Active; 'I' for Inactive)
REMARK    1  A    between atoms: C_6  and  C_7
REMARK    2  A    between atoms: C_7  and  N_8
REMARK    3  A    between atoms: C_13  and  C_14
REMARK    4  A    between atoms: C_16  and  N_17
REMARK    5  A    between atoms: N_17  and  C_18
REMARK    6  A    between atoms: C_18  and  C_19
REMARK    7  A    between atoms: C_19  and  C_20
REMARK                            x       y       z     vdW  Elec       q    Type
REMARK                         _______ _______ _______ _____ _____    ______ ____
ROOT
ATOM      1  C   UNL     1       5.455   5.081  18.053  0.00  0.00    +0.000 A 
ATOM      2  C   UNL     1       6.355   6.032  18.592  0.00  0.00    +0.000 A 
ATOM      3  C   UNL     1       7.319   6.656  17.799  0.00  0.00    +0.000 A 
ATOM      4  N   UNL     1       7.493   6.304  16.514  0.00  0.00    +0.000 NA
ATOM      5  C   UNL     1       6.664   5.371  15.999  0.00  0.00    +0.000 A 
ATOM      6  C   UNL     1       5.632   4.758  16.697  0.00  0.00    +0.000 A 
ATOM      7 CL   UNL     1       4.607   3.704  15.789  0.00  0.00    +0.000 Cl
ENDROOT
BRANCH   1  13
ATOM      8  N   UNL     1       1.589   6.081  20.693  0.00  0.00    +0.000 N 
ATOM      9  C   UNL     1       2.446   5.133  20.123  0.00  0.00    +0.000 A 
ATOM     10  C   UNL     1       2.118   3.795  20.296  0.00  0.00    +0.000 A 
ATOM     11  C   UNL     1       2.989   2.821  19.834  0.00  0.00    +0.000 A 
ATOM     12  C   UNL     1       4.136   3.211  19.151  0.00  0.00    +0.000 A 
ATOM     13  C   UNL     1       4.357   4.563  18.904  0.00  0.00    +0.000 A 
ATOM     14  N   UNL     1       3.538   5.518  19.428  0.00  0.00    +0.000 NA
ATOM     15  H   UNL     1       0.736   6.134  20.144  0.00  0.00    +0.000 HD
BRANCH   8  16
ATOM     16  C   UNL     1       2.176   7.385  20.942  0.00  0.00    +0.000 C 
BRANCH  16  22
ATOM     17  F   UNL     1      -1.235  10.831  20.246  0.00  0.00    +0.000 F 
ATOM     18  C   UNL     1      -0.230  10.096  19.751  0.00  0.00    +0.000 A 
ATOM     19  C   UNL     1       0.133  10.246  18.417  0.00  0.00    +0.000 A 
ATOM     20  C   UNL     1       1.172   9.478  17.901  0.00  0.00    +0.000 A 
ATOM     21  C   UNL     1       1.836   8.565  18.725  0.00  0.00    +0.000 A 
ATOM     22  C   UNL     1       1.469   8.410  20.074  0.00  0.00    +0.000 A 
ATOM     23  C   UNL     1       0.426   9.190  20.582  0.00  0.00    +0.000 A 
ENDBRANCH  16  22
ENDBRANCH   8  16
ENDBRANCH   1  13
BRANCH   3  24
ATOM     24  N   UNL     1       8.162   7.632  18.370  0.00  0.00    +0.000 N 
ATOM     25  H   UNL     1       7.806   7.892  19.285  0.00  0.00    +0.000 HD
BRANCH  24  26
ATOM     26  C   UNL     1       8.311   8.811  17.500  0.00  0.00    +0.000 C 
BRANCH  26  27
ATOM     27  C   UNL     1       8.053  10.097  18.296  0.00  0.00    +0.000 C 
BRANCH  27  28
ATOM     28  C   UNL     1       9.331  10.751  18.756  0.00  0.00    +0.000 A 
ATOM     29  C   UNL     1      10.331  11.114  17.850  0.00  0.00    +0.000 A 
ATOM     30  C   UNL     1      11.494  11.721  18.310  0.00  0.00    +0.000 A 
ATOM     31  C   UNL     1      11.621  11.956  19.669  0.00  0.00    +0.000 A 
ATOM     32  N   UNL     1      10.675  11.629  20.574  0.00  0.00    +0.000 NA
ATOM     33  C   UNL     1       9.555  11.038  20.100  0.00  0.00    +0.000 A 
ENDBRANCH  27  28
ENDBRANCH  26  27
ENDBRANCH  24  26
ENDBRANCH   3  24
TORSDOF 7
ENDMDL
MODEL 7
REMARK VINA RESULT:      -8.5      5.213      9.401
REMARK  Name = 
REMARK  7 active torsions:
REMARK  status: ('A' for Active; 'I' for Inactive)
REMARK    1  A    between atoms: C_6  and  C_7
REMARK    2  A    between atoms: C_7  and  N_8
REMARK    3  A    between atoms: C_13  and  C_14
REMARK    4  A    between atoms: C_16  and  N_17
REMARK    5  A    between atoms: N_17  and  C_18
REMARK    6  A    between atoms: C_18  and  C_19
REMARK    7  A    between atoms: C_19  and  C_20
REMARK                            x       y       z     vdW  Elec       q    Type
REMARK                         _______ _______ _______ _____ _____    ______ ____
ROOT
ATOM      1  C   UNL     1       5.196   5.022  18.553  0.00  0.00    +0.000 A 
ATOM      2  C   UNL     1       6.197   5.924  18.986  0.00  0.00    +0.000 A 
ATOM      3  C   UNL     1       7.232   6.327  18.139  0.00  0.00    +0.000 A 
ATOM      4  N   UNL     1       7.371   5.794  16.913  0.00  0.00    +0.000 NA
ATOM      5  C   UNL     1       6.442   4.905  16.504  0.00  0.00    +0.000 A 
ATOM      6  C   UNL     1       5.342   4.509  17.253  0.00  0.00    +0.000 A 
ATOM      7 CL   UNL     1       4.206   3.472  16.465  0.00  0.00    +0.000 Cl
ENDROOT
BRANCH   1  13
ATOM      8  N   UNL     1       1.200   6.686  20.597  0.00  0.00    +0.000 N 
ATOM      9  C   UNL     1       2.072   5.620  20.348  0.00  0.00    +0.000 A 
ATOM     10  C   UNL     1       1.709   4.375  20.844  0.00  0.00    +0.000 A 
ATOM     11  C   UNL     1       2.588   3.312  20.706  0.00  0.00    +0.000 A 
ATOM     12  C   UNL     1       3.780   3.507  20.017  0.00  0.00    +0.000 A 
ATOM     13  C   UNL     1       4.040   4.747  19.441  0.00  0.00    +0.000 A 
ATOM     14  N   UNL     1       3.209   5.808  19.645  0.00  0.00    +0.000 NA
ATOM     15  H   UNL     1       0.382   6.596  20.001  0.00  0.00    +0.000 HD
BRANCH   8  16
ATOM     16  C   UNL     1       1.795   8.009  20.533  0.00  0.00    +0.000 C 
BRANCH  16  22
ATOM     17  F   UNL     1      -1.170  11.897  20.255  0.00  0.00    +0.000 F 
ATOM     18  C   UNL     1      -0.612  10.932  20.998  0.00  0.00    +0.000 A 
ATOM     19  C   UNL     1      -0.884  10.876  22.360  0.00  0.00    +0.000 A 
ATOM     20  C   UNL     1      -0.299   9.878  23.133  0.00  0.00    +0.000 A 
ATOM     21  C   UNL     1       0.555   8.948  22.535  0.00  0.00    +0.000 A 
ATOM     22  C   UNL     1       0.834   9.004  21.157  0.00  0.00    +0.000 A 
ATOM     23  C   UNL     1       0.237  10.010  20.390  0.00  0.00    +0.000 A 
ENDBRANCH  16  22
ENDBRANCH   8  16
ENDBRANCH   1  13
BRANCH   3  24
ATOM     24  N   UNL     1       8.180   7.264  18.600  0.00  0.00    +0.000 N 
ATOM     25  H   UNL     1       7.877   7.640  19.494  0.00  0.00    +0.000 HD
BRANCH  24  26
ATOM     26  C   UNL     1       8.414   8.339  17.620  0.00  0.00    +0.000 C 
BRANCH  26  27
ATOM     27  C   UNL     1       7.998   9.694  18.207  0.00  0.00    +0.000 C 
BRANCH  27  28
ATOM     28  C   UNL     1       9.177  10.484  18.714  0.00  0.00    +0.000 A 
ATOM     29  C   UNL     1      10.119  11.030  17.838  0.00  0.00    +0.000 A 
ATOM     30  C   UNL     1      11.192  11.759  18.341  0.00  0.00    +0.000 A 
ATOM     31  C   UNL     1      11.286  11.928  19.712  0.00  0.00    +0.000 A 
ATOM     32  N   UNL     1      10.392  11.426  20.589  0.00  0.00    +0.000 NA
ATOM     33  C   UNL     1       9.361  10.720  20.074  0.00  0.00    +0.000 A 
ENDBRANCH  27  28
ENDBRANCH  26  27
ENDBRANCH  24  26
ENDBRANCH   3  24
TORSDOF 7
ENDMDL
MODEL 8
REMARK VINA RESULT:      -8.5      0.830      1.066
REMARK  Name = 
REMARK  7 active torsions:
REMARK  status: ('A' for Active; 'I' for Inactive)
REMARK    1  A    between atoms: C_6  and  C_7
REMARK    2  A    between atoms: C_7  and  N_8
REMARK    3  A    between atoms: C_13  and  C_14
REMARK    4  A    between atoms: C_16  and  N_17
REMARK    5  A    between atoms: N_17  and  C_18
REMARK    6  A    between atoms: C_18  and  C_19
REMARK    7  A    between atoms: C_19  and  C_20
REMARK                            x       y       z     vdW  Elec       q    Type
REMARK                         _______ _______ _______ _____ _____    ______ ____
ROOT
ATOM      1  C   UNL     1       2.152   6.061  18.814  0.00  0.00    +0.000 A 
ATOM      2  C   UNL     1       1.957   7.200  17.997  0.00  0.00    +0.000 A 
ATOM      3  C   UNL     1       1.742   8.465  18.548  0.00  0.00    +0.000 A 
ATOM      4  N   UNL     1       1.614   8.630  19.875  0.00  0.00    +0.000 NA
ATOM      5  C   UNL     1       1.762   7.543  20.662  0.00  0.00    +0.000 A 
ATOM      6  C   UNL     1       2.052   6.266  20.200  0.00  0.00    +0.000 A 
ATOM      7 CL   UNL     1       2.344   5.060  21.403  0.00  0.00    +0.000 Cl
ENDROOT
BRANCH   1  13
ATOM      8  N   UNL     1       5.492   3.527  16.503  0.00  0.00    +0.000 N 
ATOM      9  C   UNL     1       4.233   3.589  17.110  0.00  0.00    +0.000 A 
ATOM     10  C   UNL     1       3.503   2.410  17.179  0.00  0.00    +0.000 A 
ATOM     11  C   UNL     1       2.212   2.444  17.683  0.00  0.00    +0.000 A 
ATOM     12  C   UNL     1       1.708   3.647  18.167  0.00  0.00    +0.000 A 
ATOM     13  C   UNL     1       2.525   4.774  18.179  0.00  0.00    +0.000 A 
ATOM     14  N   UNL     1       3.765   4.752  17.612  0.00  0.00    +0.000 NA
ATOM     15  H   UNL     1       6.144   3.064  17.130  0.00  0.00    +0.000 HD
BRANCH   8  16
ATOM     16  C   UNL     1       6.004   4.787  15.995  0.00  0.00    +0.000 C 
BRANCH  16  22
ATOM     17  F   UNL     1       5.470   2.621  11.634  0.00  0.00    +0.000 F 
ATOM     18  C   UNL     1       6.115   3.510  12.401  0.00  0.00    +0.000 A 
ATOM     19  C   UNL     1       7.176   4.232  11.864  0.00  0.00    +0.000 A 
ATOM     20  C   UNL     1       7.851   5.149  12.664  0.00  0.00    +0.000 A 
ATOM     21  C   UNL     1       7.459   5.333  13.993  0.00  0.00    +0.000 A 
ATOM     22  C   UNL     1       6.389   4.602  14.538  0.00  0.00    +0.000 A 
ATOM     23  C   UNL     1       5.715   3.685  13.724  0.00  0.00    +0.000 A 
ENDBRANCH  16  22
ENDBRANCH   8  16
ENDBRANCH   1  13
BRANCH   3  24
ATOM     24  N   UNL     1       1.600   9.579  17.694  0.00  0.00    +0.000 N 
ATOM     25  H   UNL     1       2.519   9.926  17.436  0.00  0.00    +0.000 HD
BRANCH  24  26
ATOM     26  C   UNL     1       0.779  10.639  18.302  0.00  0.00    +0.000 C 
BRANCH  26  27
ATOM     27  C   UNL     1      -0.548  10.060  18.812  0.00  0.00    +0.000 C 
BRANCH  27  28
ATOM     28  C   UNL     1      -1.698  10.364  17.888  0.00  0.00    +0.000 A 
ATOM     29  C   UNL     1      -2.693  11.281  18.240  0.00  0.00    +0.000 A 
ATOM     30  C   UNL     1      -3.737  11.542  17.359  0.00  0.00    +0.000 A 
ATOM     31  C   UNL     1      -3.751  10.881  16.142  0.00  0.00    +0.000 A 
ATOM     32  N   UNL     1      -2.806   9.997  15.762  0.00  0.00    +0.000 NA
ATOM     33  C   UNL     1      -1.804   9.760  16.638  0.00  0.00    +0.000 A 
ENDBRANCH  27  28
ENDBRANCH  26  27
ENDBRANCH  24  26
ENDBRANCH   3  24
TORSDOF 7
ENDMDL
MODEL 9
REMARK VINA RESULT:      -8.4      3.425      9.692
REMARK  Name = 
REMARK  7 active torsions:
REMARK  status: ('A' for Active; 'I' for Inactive)
REMARK    1  A    between atoms: C_6  and  C_7
REMARK    2  A    between atoms: C_7  and  N_8
REMARK    3  A    between atoms: C_13  and  C_14
REMARK    4  A    between atoms: C_16  and  N_17
REMARK    5  A    between atoms: N_17  and  C_18
REMARK    6  A    between atoms: C_18  and  C_19
REMARK    7  A    between atoms: C_19  and  C_20
REMARK                            x       y       z     vdW  Elec       q    Type
REMARK                         _______ _______ _______ _____ _____    ______ ____
ROOT
ATOM      1  C   UNL     1       1.487   8.537  19.974  0.00  0.00    +0.000 A 
ATOM      2  C   UNL     1       1.940   7.221  20.231  0.00  0.00    +0.000 A 
ATOM      3  C   UNL     1       2.745   6.535  19.319  0.00  0.00    +0.000 A 
ATOM      4  N   UNL     1       3.038   7.064  18.119  0.00  0.00    +0.000 NA
ATOM      5  C   UNL     1       2.581   8.306  17.849  0.00  0.00    +0.000 A 
ATOM      6  C   UNL     1       1.839   9.084  18.729  0.00  0.00    +0.000 A 
ATOM      7 CL   UNL     1       1.491  10.699  18.222  0.00  0.00    +0.000 Cl
ENDROOT
BRANCH   1  13
ATOM      8  N   UNL     1      -1.791  11.849  21.072  0.00  0.00    +0.000 N 
ATOM      9  C   UNL     1      -0.895  10.857  21.486  0.00  0.00    +0.000 A 
ATOM     10  C   UNL     1      -0.860  10.560  22.842  0.00  0.00    +0.000 A 
ATOM     11  C   UNL     1       0.081   9.656  23.311  0.00  0.00    +0.000 A 
ATOM     12  C   UNL     1       0.919   9.022  22.400  0.00  0.00    +0.000 A 
ATOM     13  C   UNL     1       0.763   9.271  21.040  0.00  0.00    +0.000 A 
ATOM     14  N   UNL     1      -0.110  10.218  20.593  0.00  0.00    +0.000 NA
ATOM     15  H   UNL     1      -2.737  11.478  21.099  0.00  0.00    +0.000 HD
BRANCH   8  16
ATOM     16  C   UNL     1      -1.476  12.487  19.807  0.00  0.00    +0.000 C 
BRANCH  16  22
ATOM     17  F   UNL     1      -2.423  10.671  15.357  0.00  0.00    +0.000 F 
ATOM     18  C   UNL     1      -2.878  11.089  16.546  0.00  0.00    +0.000 A 
ATOM     19  C   UNL     1      -4.248  11.090  16.789  0.00  0.00    +0.000 A 
ATOM     20  C   UNL     1      -4.722  11.531  18.021  0.00  0.00    +0.000 A 
ATOM     21  C   UNL     1      -3.821  11.969  18.995  0.00  0.00    +0.000 A 
ATOM     22  C   UNL     1      -2.436  11.971  18.750  0.00  0.00    +0.000 A 
ATOM     23  C   UNL     1      -1.971  11.522  17.510  0.00  0.00    +0.000 A 
ENDBRANCH  16  22
ENDBRANCH   8  16
ENDBRANCH   1  13
BRANCH   3  24
ATOM     24  N   UNL     1       3.211   5.243  19.640  0.00  0.00    +0.000 N 
ATOM     25  H   UNL     1       4.098   5.316  20.129  0.00  0.00    +0.000 HD
BRANCH  24  26
ATOM     26  C   UNL     1       3.328   4.388  18.446  0.00  0.00    +0.000 C 
BRANCH  26  27
ATOM     27  C   UNL     1       4.747   3.816  18.337  0.00  0.00    +0.000 C 
BRANCH  27  28
ATOM     28  C   UNL     1       5.769   4.877  18.018  0.00  0.00    +0.000 A 
ATOM     29  C   UNL     1       6.665   5.341  18.985  0.00  0.00    +0.000 A 
ATOM     30  C   UNL     1       7.598   6.317  18.652  0.00  0.00    +0.000 A 
ATOM     31  C   UNL     1       7.614   6.796  17.354  0.00  0.00    +0.000 A 
ATOM     32  N   UNL     1       6.773   6.367  16.390  0.00  0.00    +0.000 NA
ATOM     33  C   UNL     1       5.874   5.421  16.740  0.00  0.00    +0.000 A 
ENDBRANCH  27  28
ENDBRANCH  26  27
ENDBRANCH  24  26
ENDBRANCH   3  24
TORSDOF 7
ENDMDL
