MODEL 1
REMARK VINA RESULT:      -8.2      0.000      0.000
REMARK  Name = 
REMARK  7 active torsions:
REMARK  status: ('A' for Active; 'I' for Inactive)
REMARK    1  A    between atoms: C_1  and  C_2
REMARK    2  A    between atoms: C_7  and  C_8
REMARK    3  A    between atoms: C_7  and  C_9
REMARK    4  A    between atoms: C_13  and  C_14
REMARK    5  A    between atoms: C_15  and  C_16
REMARK    6  A    between atoms: C_17  and  C_18
REMARK    7  A    between atoms: C_20  and  O_21
REMARK                            x       y       z     vdW  Elec       q    Type
REMARK                         _______ _______ _______ _____ _____    ______ ____
ROOT
ATOM      1  C   UNL     1       1.397   4.439  17.929  0.00  0.00    +0.000 C 
ATOM      2  C   UNL     1       2.522   4.432  18.988  0.00  0.00    +0.000 C 
ATOM      3  C   UNL     1       3.425   3.479  19.333  0.00  0.00    +0.000 C 
ATOM      4  C   UNL     1       4.953   3.853  19.325  0.00  0.00    +0.000 C 
ATOM      5  O   UNL     1       5.752   3.006  19.741  0.00  0.00    +0.000 OA
ATOM      6  C   UNL     1       5.405   5.278  18.850  0.00  0.00    +0.000 C 
ATOM      7  C   UNL     1       6.889   5.533  18.327  0.00  0.00    +0.000 C 
ATOM      8  C   UNL     1       7.516   4.342  17.565  0.00  0.00    +0.000 C 
ATOM      9  C   UNL     1       7.863   5.840  19.511  0.00  0.00    +0.000 C 
ATOM     10  C   UNL     1       6.969   6.843  17.483  0.00  0.00    +0.000 C 
ATOM     11  C   UNL     1       5.845   7.001  16.482  0.00  0.00    +0.000 C 
ATOM     12  C   UNL     1       4.507   7.129  17.250  0.00  0.00    +0.000 C 
ATOM     13  C   UNL     1       4.177   5.822  17.986  0.00  0.00    +0.000 C 
ATOM     14  C   UNL     1       4.038   4.764  16.749  0.00  0.00    +0.000 C 
ATOM     15  C   UNL     1       2.965   5.835  19.218  0.00  0.00    +0.000 C 
ENDROOT
BRANCH  15  16
ATOM     16  C   UNL     1       1.691   6.449  19.948  0.00  0.00    +0.000 C 
ATOM     17  C   UNL     1       1.712   7.795  20.235  0.00  0.00    +0.000 C 
BRANCH  17  18
ATOM     18  C   UNL     1       0.910   8.739  21.009  0.00  0.00    +0.000 C 
ATOM     19  C   UNL     1       0.863   9.074  22.301  0.00  0.00    +0.000 C 
ATOM     20  C   UNL     1      -0.007  10.248  22.551  0.00  0.00    +0.000 C 
ATOM     21  O   UNL     1      -0.491  10.612  21.275  0.00  0.00    +0.000 OA
ATOM     22  C   UNL     1       0.071   9.793  20.353  0.00  0.00    +0.000 C 
ATOM     23  O   UNL     1      -0.083   9.912  19.143  0.00  0.00    +0.000 OA
BRANCH  20  24
ATOM     24  O   UNL     1      -1.073   9.919  23.412  0.00  0.00    +0.000 OA
ATOM     25  H   UNL     1      -0.685   9.812  24.302  0.00  0.00    +0.000 HD
ENDBRANCH  20  24
ENDBRANCH  17  18
ENDBRANCH  15  16
TORSDOF 3
ENDMDL
MODEL 2
REMARK VINA RESULT:      -8.0      1.118      1.406
REMARK  Name = 
REMARK  7 active torsions:
REMARK  status: ('A' for Active; 'I' for Inactive)
REMARK    1  A    between atoms: C_1  and  C_2
REMARK    2  A    between atoms: C_7  and  C_8
REMARK    3  A    between atoms: C_7  and  C_9
REMARK    4  A    between atoms: C_13  and  C_14
REMARK    5  A    between atoms: C_15  and  C_16
REMARK    6  A    between atoms: C_17  and  C_18
REMARK    7  A    between atoms: C_20  and  O_21
REMARK                            x       y       z     vdW  Elec       q    Type
REMARK                         _______ _______ _______ _____ _____    ______ ____
ROOT
ATOM      1  C   UNL     1       1.042   4.185  18.707  0.00  0.00    +0.000 C 
ATOM      2  C   UNL     1       2.315   4.252  19.580  0.00  0.00    +0.000 C 
ATOM      3  C   UNL     1       3.302   3.347  19.801  0.00  0.00    +0.000 C 
ATOM      4  C   UNL     1       4.792   3.782  19.550  0.00  0.00    +0.000 C 
ATOM      5  O   UNL     1       5.682   2.981  19.855  0.00  0.00    +0.000 OA
ATOM      6  C   UNL     1       5.102   5.212  18.984  0.00  0.00    +0.000 C 
ATOM      7  C   UNL     1       6.476   5.514  18.233  0.00  0.00    +0.000 C 
ATOM      8  C   UNL     1       7.031   4.330  17.408  0.00  0.00    +0.000 C 
ATOM      9  C   UNL     1       7.605   5.891  19.248  0.00  0.00    +0.000 C 
ATOM     10  C   UNL     1       6.367   6.804  17.361  0.00  0.00    +0.000 C 
ATOM     11  C   UNL     1       5.098   6.888  16.542  0.00  0.00    +0.000 C 
ATOM     12  C   UNL     1       3.888   6.982  17.504  0.00  0.00    +0.000 C 
ATOM     13  C   UNL     1       3.734   5.683  18.308  0.00  0.00    +0.000 C 
ATOM     14  C   UNL     1       3.454   4.588  17.129  0.00  0.00    +0.000 C 
ATOM     15  C   UNL     1       2.725   5.678  19.712  0.00  0.00    +0.000 C 
ENDROOT
BRANCH  15  16
ATOM     16  C   UNL     1       1.551   6.259  20.616  0.00  0.00    +0.000 C 
ATOM     17  C   UNL     1       1.511   7.622  20.805  0.00  0.00    +0.000 C 
BRANCH  17  18
ATOM     18  C   UNL     1       0.780   8.566  21.646  0.00  0.00    +0.000 C 
ATOM     19  C   UNL     1      -0.515   8.811  21.856  0.00  0.00    +0.000 C 
ATOM     20  C   UNL     1      -0.740   9.758  22.974  0.00  0.00    +0.000 C 
ATOM     21  O   UNL     1       0.554  10.072  23.442  0.00  0.00    +0.000 OA
ATOM     22  C   UNL     1       1.455   9.349  22.731  0.00  0.00    +0.000 C 
ATOM     23  O   UNL     1       2.658   9.335  22.960  0.00  0.00    +0.000 OA
BRANCH  20  24
ATOM     24  O   UNL     1      -1.405  10.920  22.533  0.00  0.00    +0.000 OA
ATOM     25  H   UNL     1      -1.691  10.742  21.616  0.00  0.00    +0.000 HD
ENDBRANCH  20  24
ENDBRANCH  17  18
ENDBRANCH  15  16
TORSDOF 3
ENDMDL
MODEL 3
REMARK VINA RESULT:      -7.8      2.033      2.247
REMARK  Name = 
REMARK  7 active torsions:
REMARK  status: ('A' for Active; 'I' for Inactive)
REMARK    1  A    between atoms: C_1  and  C_2
REMARK    2  A    between atoms: C_7  and  C_8
REMARK    3  A    between atoms: C_7  and  C_9
REMARK    4  A    between atoms: C_13  and  C_14
REMARK    5  A    between atoms: C_15  and  C_16
REMARK    6  A    between atoms: C_17  and  C_18
REMARK    7  A    between atoms: C_20  and  O_21
REMARK                            x       y       z     vdW  Elec       q    Type
REMARK                         _______ _______ _______ _____ _____    ______ ____
ROOT
ATOM      1  C   UNL     1       1.693   4.549  17.674  0.00  0.00    +0.000 C 
ATOM      2  C   UNL     1       2.744   5.219  18.587  0.00  0.00    +0.000 C 
ATOM      3  C   UNL     1       3.620   4.697  19.482  0.00  0.00    +0.000 C 
ATOM      4  C   UNL     1       5.145   5.052  19.336  0.00  0.00    +0.000 C 
ATOM      5  O   UNL     1       5.913   4.654  20.220  0.00  0.00    +0.000 OA
ATOM      6  C   UNL     1       5.631   5.929  18.130  0.00  0.00    +0.000 C 
ATOM      7  C   UNL     1       7.147   5.880  17.641  0.00  0.00    +0.000 C 
ATOM      8  C   UNL     1       7.823   4.496  17.779  0.00  0.00    +0.000 C 
ATOM      9  C   UNL     1       8.039   6.871  18.458  0.00  0.00    +0.000 C 
ATOM     10  C   UNL     1       7.286   6.429  16.186  0.00  0.00    +0.000 C 
ATOM     11  C   UNL     1       6.233   5.913  15.230  0.00  0.00    +0.000 C 
ATOM     12  C   UNL     1       4.846   6.421  15.693  0.00  0.00    +0.000 C 
ATOM     13  C   UNL     1       4.465   5.801  17.045  0.00  0.00    +0.000 C 
ATOM     14  C   UNL     1       4.409   4.209  16.682  0.00  0.00    +0.000 C 
ATOM     15  C   UNL     1       3.172   6.499  17.956  0.00  0.00    +0.000 C 
ENDROOT
BRANCH  15  16
ATOM     16  C   UNL     1       1.852   7.376  18.101  0.00  0.00    +0.000 C 
ATOM     17  C   UNL     1       2.005   8.741  18.185  0.00  0.00    +0.000 C 
BRANCH  17  18
ATOM     18  C   UNL     1       1.165   9.897  18.490  0.00  0.00    +0.000 C 
ATOM     19  C   UNL     1      -0.003  10.054  19.119  0.00  0.00    +0.000 C 
ATOM     20  C   UNL     1      -0.341  11.481  19.338  0.00  0.00    +0.000 C 
ATOM     21  O   UNL     1       0.744  12.195  18.786  0.00  0.00    +0.000 OA
ATOM     22  C   UNL     1       1.662  11.302  18.340  0.00  0.00    +0.000 C 
ATOM     23  O   UNL     1       2.757  11.612  17.885  0.00  0.00    +0.000 OA
BRANCH  20  24
ATOM     24  O   UNL     1      -1.545  11.825  18.692  0.00  0.00    +0.000 OA
ATOM     25  H   UNL     1      -1.962  10.984  18.420  0.00  0.00    +0.000 HD
ENDBRANCH  20  24
ENDBRANCH  17  18
ENDBRANCH  15  16
TORSDOF 3
ENDMDL
MODEL 4
REMARK VINA RESULT:      -7.7      0.881      1.368
REMARK  Name = 
REMARK  7 active torsions:
REMARK  status: ('A' for Active; 'I' for Inactive)
REMARK    1  A    between atoms: C_1  and  C_2
REMARK    2  A    between atoms: C_7  and  C_8
REMARK    3  A    between atoms: C_7  and  C_9
REMARK    4  A    between atoms: C_13  and  C_14
REMARK    5  A    between atoms: C_15  and  C_16
REMARK    6  A    between atoms: C_17  and  C_18
REMARK    7  A    between atoms: C_20  and  O_21
REMARK                            x       y       z     vdW  Elec       q    Type
REMARK                         _______ _______ _______ _____ _____    ______ ____
ROOT
ATOM      1  C   UNL     1       1.428   4.848  17.887  0.00  0.00    +0.000 C 
ATOM      2  C   UNL     1       2.528   4.748  18.968  0.00  0.00    +0.000 C 
ATOM      3  C   UNL     1       3.352   3.728  19.320  0.00  0.00    +0.000 C 
ATOM      4  C   UNL     1       4.902   3.989  19.346  0.00  0.00    +0.000 C 
ATOM      5  O   UNL     1       5.629   3.082  19.768  0.00  0.00    +0.000 OA
ATOM      6  C   UNL     1       5.468   5.381  18.895  0.00  0.00    +0.000 C 
ATOM      7  C   UNL     1       6.977   5.531  18.404  0.00  0.00    +0.000 C 
ATOM      8  C   UNL     1       7.530   4.304  17.642  0.00  0.00    +0.000 C 
ATOM      9  C   UNL     1       7.946   5.754  19.611  0.00  0.00    +0.000 C 
ATOM     10  C   UNL     1       7.170   6.840  17.576  0.00  0.00    +0.000 C 
ATOM     11  C   UNL     1       6.081   7.089  16.555  0.00  0.00    +0.000 C 
ATOM     12  C   UNL     1       4.741   7.308  17.297  0.00  0.00    +0.000 C 
ATOM     13  C   UNL     1       4.301   6.023  18.013  0.00  0.00    +0.000 C 
ATOM     14  C   UNL     1       4.109   4.989  16.763  0.00  0.00    +0.000 C 
ATOM     15  C   UNL     1       3.068   6.113  19.222  0.00  0.00    +0.000 C 
ENDROOT
BRANCH  15  16
ATOM     16  C   UNL     1       1.828   6.812  19.932  0.00  0.00    +0.000 C 
ATOM     17  C   UNL     1       1.743   8.184  19.854  0.00  0.00    +0.000 C 
BRANCH  17  18
ATOM     18  C   UNL     1       0.940   9.245  20.457  0.00  0.00    +0.000 C 
ATOM     19  C   UNL     1      -0.169   9.890  20.090  0.00  0.00    +0.000 C 
ATOM     20  C   UNL     1      -0.701  10.761  21.166  0.00  0.00    +0.000 C 
ATOM     21  O   UNL     1       0.192  10.583  22.244  0.00  0.00    +0.000 OA
ATOM     22  C   UNL     1       1.121   9.663  21.885  0.00  0.00    +0.000 C 
ATOM     23  O   UNL     1       1.985   9.229  22.637  0.00  0.00    +0.000 OA
BRANCH  20  24
ATOM     24  O   UNL     1      -0.731  12.110  20.761  0.00  0.00    +0.000 OA
ATOM     25  H   UNL     1      -1.627  12.273  20.407  0.00  0.00    +0.000 HD
ENDBRANCH  20  24
ENDBRANCH  17  18
ENDBRANCH  15  16
TORSDOF 3
ENDMDL
MODEL 5
REMARK VINA RESULT:      -7.7      1.418      1.932
REMARK  Name = 
REMARK  7 active torsions:
REMARK  status: ('A' for Active; 'I' for Inactive)
REMARK    1  A    between atoms: C_1  and  C_2
REMARK    2  A    between atoms: C_7  and  C_8
REMARK    3  A    between atoms: C_7  and  C_9
REMARK    4  A    between atoms: C_13  and  C_14
REMARK    5  A    between atoms: C_15  and  C_16
REMARK    6  A    between atoms: C_17  and  C_18
REMARK    7  A    between atoms: C_20  and  O_21
REMARK                            x       y       z     vdW  Elec       q    Type
REMARK                         _______ _______ _______ _____ _____    ______ ____
ROOT
ATOM      1  C   UNL     1       1.731   4.428  17.652  0.00  0.00    +0.000 C 
ATOM      2  C   UNL     1       2.773   5.100  18.573  0.00  0.00    +0.000 C 
ATOM      3  C   UNL     1       3.655   4.577  19.463  0.00  0.00    +0.000 C 
ATOM      4  C   UNL     1       5.176   4.951  19.323  0.00  0.00    +0.000 C 
ATOM      5  O   UNL     1       5.948   4.551  20.202  0.00  0.00    +0.000 OA
ATOM      6  C   UNL     1       5.653   5.848  18.127  0.00  0.00    +0.000 C 
ATOM      7  C   UNL     1       7.170   5.821  17.639  0.00  0.00    +0.000 C 
ATOM      8  C   UNL     1       7.860   4.443  17.761  0.00  0.00    +0.000 C 
ATOM      9  C   UNL     1       8.049   6.812  18.468  0.00  0.00    +0.000 C 
ATOM     10  C   UNL     1       7.303   6.389  16.191  0.00  0.00    +0.000 C 
ATOM     11  C   UNL     1       6.257   5.873  15.228  0.00  0.00    +0.000 C 
ATOM     12  C   UNL     1       4.864   6.360  15.696  0.00  0.00    +0.000 C 
ATOM     13  C   UNL     1       4.489   5.719  17.040  0.00  0.00    +0.000 C 
ATOM     14  C   UNL     1       4.450   4.131  16.658  0.00  0.00    +0.000 C 
ATOM     15  C   UNL     1       3.188   6.392  17.958  0.00  0.00    +0.000 C 
ENDROOT
BRANCH  15  16
ATOM     16  C   UNL     1       1.858   7.252  18.112  0.00  0.00    +0.000 C 
ATOM     17  C   UNL     1       1.977   8.512  18.655  0.00  0.00    +0.000 C 
BRANCH  17  18
ATOM     18  C   UNL     1       1.082   9.559  19.140  0.00  0.00    +0.000 C 
ATOM     19  C   UNL     1       0.459  10.588  18.560  0.00  0.00    +0.000 C 
ATOM     20  C   UNL     1      -0.508  11.250  19.468  0.00  0.00    +0.000 C 
ATOM     21  O   UNL     1      -0.426  10.519  20.673  0.00  0.00    +0.000 OA
ATOM     22  C   UNL     1       0.444   9.494  20.494  0.00  0.00    +0.000 C 
ATOM     23  O   UNL     1       0.666   8.627  21.331  0.00  0.00    +0.000 OA
BRANCH  20  24
ATOM     24  O   UNL     1      -0.166  12.600  19.681  0.00  0.00    +0.000 OA
ATOM     25  H   UNL     1       0.787  12.613  19.894  0.00  0.00    +0.000 HD
ENDBRANCH  20  24
ENDBRANCH  17  18
ENDBRANCH  15  16
TORSDOF 3
ENDMDL
MODEL 6
REMARK VINA RESULT:      -7.6      2.654      4.448
REMARK  Name = 
REMARK  7 active torsions:
REMARK  status: ('A' for Active; 'I' for Inactive)
REMARK    1  A    between atoms: C_1  and  C_2
REMARK    2  A    between atoms: C_7  and  C_8
REMARK    3  A    between atoms: C_7  and  C_9
REMARK    4  A    between atoms: C_13  and  C_14
REMARK    5  A    between atoms: C_15  and  C_16
REMARK    6  A    between atoms: C_17  and  C_18
REMARK    7  A    between atoms: C_20  and  O_21
REMARK                            x       y       z     vdW  Elec       q    Type
REMARK                         _______ _______ _______ _____ _____    ______ ____
ROOT
ATOM      1  C   UNL     1       4.950   7.484  18.103  0.00  0.00    +0.000 C 
ATOM      2  C   UNL     1       3.925   6.542  17.432  0.00  0.00    +0.000 C 
ATOM      3  C   UNL     1       4.084   5.366  16.773  0.00  0.00    +0.000 C 
ATOM      4  C   UNL     1       3.251   4.119  17.249  0.00  0.00    +0.000 C 
ATOM      5  O   UNL     1       3.330   3.087  16.574  0.00  0.00    +0.000 OA
ATOM      6  C   UNL     1       2.323   4.235  18.508  0.00  0.00    +0.000 C 
ATOM      7  C   UNL     1       1.891   2.938  19.328  0.00  0.00    +0.000 C 
ATOM      8  C   UNL     1       2.965   1.827  19.387  0.00  0.00    +0.000 C 
ATOM      9  C   UNL     1       0.622   2.270  18.705  0.00  0.00    +0.000 C 
ATOM     10  C   UNL     1       1.398   3.317  20.760  0.00  0.00    +0.000 C 
ATOM     11  C   UNL     1       2.279   4.323  21.468  0.00  0.00    +0.000 C 
ATOM     12  C   UNL     1       2.237   5.660  20.689  0.00  0.00    +0.000 C 
ATOM     13  C   UNL     1       2.882   5.502  19.305  0.00  0.00    +0.000 C 
ATOM     14  C   UNL     1       4.419   5.104  19.692  0.00  0.00    +0.000 C 
ATOM     15  C   UNL     1       2.608   6.716  18.106  0.00  0.00    +0.000 C 
ENDROOT
BRANCH  15  16
ATOM     16  C   UNL     1       2.212   8.186  17.641  0.00  0.00    +0.000 C 
ATOM     17  C   UNL     1       1.282   8.861  18.398  0.00  0.00    +0.000 C 
BRANCH  17  18
ATOM     18  C   UNL     1       0.500  10.091  18.291  0.00  0.00    +0.000 C 
ATOM     19  C   UNL     1      -0.805  10.353  18.187  0.00  0.00    +0.000 C 
ATOM     20  C   UNL     1      -1.103  11.800  18.307  0.00  0.00    +0.000 C 
ATOM     21  O   UNL     1       0.155  12.410  18.505  0.00  0.00    +0.000 OA
ATOM     22  C   UNL     1       1.099  11.437  18.561  0.00  0.00    +0.000 C 
ATOM     23  O   UNL     1       2.281  11.641  18.810  0.00  0.00    +0.000 OA
BRANCH  20  24
ATOM     24  O   UNL     1      -1.717  12.293  17.139  0.00  0.00    +0.000 OA
ATOM     25  H   UNL     1      -1.061  12.200  16.422  0.00  0.00    +0.000 HD
ENDBRANCH  20  24
ENDBRANCH  17  18
ENDBRANCH  15  16
TORSDOF 3
ENDMDL
MODEL 7
REMARK VINA RESULT:      -7.4      4.170      8.058
REMARK  Name = 
REMARK  7 active torsions:
REMARK  status: ('A' for Active; 'I' for Inactive)
REMARK    1  A    between atoms: C_1  and  C_2
REMARK    2  A    between atoms: C_7  and  C_8
REMARK    3  A    between atoms: C_7  and  C_9
REMARK    4  A    between atoms: C_13  and  C_14
REMARK    5  A    between atoms: C_15  and  C_16
REMARK    6  A    between atoms: C_17  and  C_18
REMARK    7  A    between atoms: C_20  and  O_21
REMARK                            x       y       z     vdW  Elec       q    Type
REMARK                         _______ _______ _______ _____ _____    ______ ____
ROOT
ATOM      1  C   UNL     1       6.042   6.470  17.890  0.00  0.00    +0.000 C 
ATOM      2  C   UNL     1       5.651   4.975  17.922  0.00  0.00    +0.000 C 
ATOM      3  C   UNL     1       5.946   3.989  18.807  0.00  0.00    +0.000 C 
ATOM      4  C   UNL     1       4.762   3.169  19.440  0.00  0.00    +0.000 C 
ATOM      5  O   UNL     1       5.052   2.209  20.162  0.00  0.00    +0.000 OA
ATOM      6  C   UNL     1       3.279   3.552  19.102  0.00  0.00    +0.000 C 
ATOM      7  C   UNL     1       2.085   3.139  20.075  0.00  0.00    +0.000 C 
ATOM      8  C   UNL     1       2.452   3.138  21.577  0.00  0.00    +0.000 C 
ATOM      9  C   UNL     1       1.572   1.695  19.761  0.00  0.00    +0.000 C 
ATOM     10  C   UNL     1       0.817   4.009  19.807  0.00  0.00    +0.000 C 
ATOM     11  C   UNL     1       1.105   5.486  19.651  0.00  0.00    +0.000 C 
ATOM     12  C   UNL     1       1.977   5.695  18.390  0.00  0.00    +0.000 C 
ATOM     13  C   UNL     1       3.362   5.058  18.577  0.00  0.00    +0.000 C 
ATOM     14  C   UNL     1       3.956   5.906  19.840  0.00  0.00    +0.000 C 
ATOM     15  C   UNL     1       4.365   4.805  17.192  0.00  0.00    +0.000 C 
ENDROOT
BRANCH  15  16
ATOM     16  C   UNL     1       4.815   5.101  15.694  0.00  0.00    +0.000 C 
ATOM     17  C   UNL     1       5.423   4.079  15.002  0.00  0.00    +0.000 C 
BRANCH  17  18
ATOM     18  C   UNL     1       6.137   3.916  13.737  0.00  0.00    +0.000 C 
ATOM     19  C   UNL     1       5.873   3.267  12.601  0.00  0.00    +0.000 C 
ATOM     20  C   UNL     1       6.847   3.581  11.529  0.00  0.00    +0.000 C 
ATOM     21  O   UNL     1       7.741   4.502  12.116  0.00  0.00    +0.000 OA
ATOM     22  C   UNL     1       7.320   4.763  13.379  0.00  0.00    +0.000 C 
ATOM     23  O   UNL     1       7.838   5.590  14.118  0.00  0.00    +0.000 OA
BRANCH  20  24
ATOM     24  O   UNL     1       7.531   2.425  11.105  0.00  0.00    +0.000 OA
ATOM     25  H   UNL     1       7.902   2.013  11.909  0.00  0.00    +0.000 HD
ENDBRANCH  20  24
ENDBRANCH  17  18
ENDBRANCH  15  16
TORSDOF 3
ENDMDL
MODEL 8
REMARK VINA RESULT:      -7.3      1.985      2.125
REMARK  Name = 
REMARK  7 active torsions:
REMARK  status: ('A' for Active; 'I' for Inactive)
REMARK    1  A    between atoms: C_1  and  C_2
REMARK    2  A    between atoms: C_7  and  C_8
REMARK    3  A    between atoms: C_7  and  C_9
REMARK    4  A    between atoms: C_13  and  C_14
REMARK    5  A    between atoms: C_15  and  C_16
REMARK    6  A    between atoms: C_17  and  C_18
REMARK    7  A    between atoms: C_20  and  O_21
REMARK                            x       y       z     vdW  Elec       q    Type
REMARK                         _______ _______ _______ _____ _____    ______ ____
ROOT
ATOM      1  C   UNL     1       1.613   4.650  17.731  0.00  0.00    +0.000 C 
ATOM      2  C   UNL     1       2.692   5.297  18.628  0.00  0.00    +0.000 C 
ATOM      3  C   UNL     1       3.571   4.755  19.509  0.00  0.00    +0.000 C 
ATOM      4  C   UNL     1       5.101   5.077  19.340  0.00  0.00    +0.000 C 
ATOM      5  O   UNL     1       5.873   4.662  20.211  0.00  0.00    +0.000 OA
ATOM      6  C   UNL     1       5.587   5.944  18.126  0.00  0.00    +0.000 C 
ATOM      7  C   UNL     1       7.094   5.862  17.614  0.00  0.00    +0.000 C 
ATOM      8  C   UNL     1       7.741   4.464  17.741  0.00  0.00    +0.000 C 
ATOM      9  C   UNL     1       8.019   6.834  18.418  0.00  0.00    +0.000 C 
ATOM     10  C   UNL     1       7.222   6.410  16.158  0.00  0.00    +0.000 C 
ATOM     11  C   UNL     1       6.143   5.917  15.217  0.00  0.00    +0.000 C 
ATOM     12  C   UNL     1       4.775   6.455  15.702  0.00  0.00    +0.000 C 
ATOM     13  C   UNL     1       4.402   5.842  17.060  0.00  0.00    +0.000 C 
ATOM     14  C   UNL     1       4.305   4.253  16.697  0.00  0.00    +0.000 C 
ATOM     15  C   UNL     1       3.138   6.568  17.991  0.00  0.00    +0.000 C 
ENDROOT
BRANCH  15  16
ATOM     16  C   UNL     1       1.840   7.473  18.157  0.00  0.00    +0.000 C 
ATOM     17  C   UNL     1       2.021   8.836  18.216  0.00  0.00    +0.000 C 
BRANCH  17  18
ATOM     18  C   UNL     1       1.212  10.013  18.525  0.00  0.00    +0.000 C 
ATOM     19  C   UNL     1       1.478  11.203  19.070  0.00  0.00    +0.000 C 
ATOM     20  C   UNL     1       0.328  12.134  18.984  0.00  0.00    +0.000 C 
ATOM     21  O   UNL     1      -0.679  11.400  18.321  0.00  0.00    +0.000 OA
ATOM     22  C   UNL     1      -0.175  10.186  17.988  0.00  0.00    +0.000 C 
ATOM     23  O   UNL     1      -0.779   9.350  17.326  0.00  0.00    +0.000 OA
BRANCH  20  24
ATOM     24  O   UNL     1      -0.106  12.530  20.265  0.00  0.00    +0.000 OA
ATOM     25  H   UNL     1      -0.919  12.021  20.450  0.00  0.00    +0.000 HD
ENDBRANCH  20  24
ENDBRANCH  17  18
ENDBRANCH  15  16
TORSDOF 3
ENDMDL
MODEL 9
REMARK VINA RESULT:      -7.2      6.371      9.510
REMARK  Name = 
REMARK  7 active torsions:
REMARK  status: ('A' for Active; 'I' for Inactive)
REMARK    1  A    between atoms: C_1  and  C_2
REMARK    2  A    between atoms: C_7  and  C_8
REMARK    3  A    between atoms: C_7  and  C_9
REMARK    4  A    between atoms: C_13  and  C_14
REMARK    5  A    between atoms: C_15  and  C_16
REMARK    6  A    between atoms: C_17  and  C_18
REMARK    7  A    between atoms: C_20  and  O_21
REMARK                            x       y       z     vdW  Elec       q    Type
REMARK                         _______ _______ _______ _____ _____    ______ ____
ROOT
ATOM      1  C   UNL     1      11.413  11.092  17.825  0.00  0.00    +0.000 C 
ATOM      2  C   UNL     1      10.757  11.533  19.153  0.00  0.00    +0.000 C 
ATOM      3  C   UNL     1      11.098  12.497  20.045  0.00  0.00    +0.000 C 
ATOM      4  C   UNL     1      10.018  13.570  20.442  0.00  0.00    +0.000 C 
ATOM      5  O   UNL     1      10.311  14.376  21.332  0.00  0.00    +0.000 OA
ATOM      6  C   UNL     1       8.610  13.553  19.751  0.00  0.00    +0.000 C 
ATOM      7  C   UNL     1       7.704  14.863  19.707  0.00  0.00    +0.000 C 
ATOM      8  C   UNL     1       8.494  16.187  19.587  0.00  0.00    +0.000 C 
ATOM      9  C   UNL     1       6.841  15.000  21.004  0.00  0.00    +0.000 C 
ATOM     10  C   UNL     1       6.616  14.757  18.593  0.00  0.00    +0.000 C 
ATOM     11  C   UNL     1       7.135  14.229  17.273  0.00  0.00    +0.000 C 
ATOM     12  C   UNL     1       7.614  12.771  17.472  0.00  0.00    +0.000 C 
ATOM     13  C   UNL     1       8.833  12.723  18.404  0.00  0.00    +0.000 C 
ATOM     14  C   UNL     1       9.936  13.586  17.562  0.00  0.00    +0.000 C 
ATOM     15  C   UNL     1       9.304  11.210  19.095  0.00  0.00    +0.000 C 
ENDROOT
BRANCH  15  16
ATOM     16  C   UNL     1       9.336   9.619  19.138  0.00  0.00    +0.000 C 
ATOM     17  C   UNL     1       8.388   8.947  18.401  0.00  0.00    +0.000 C 
BRANCH  17  18
ATOM     18  C   UNL     1       7.915   7.571  18.263  0.00  0.00    +0.000 C 
ATOM     19  C   UNL     1       8.104   6.451  18.965  0.00  0.00    +0.000 C 
ATOM     20  C   UNL     1       7.230   5.343  18.511  0.00  0.00    +0.000 C 
ATOM     21  O   UNL     1       6.472   5.895  17.455  0.00  0.00    +0.000 OA
ATOM     22  C   UNL     1       6.804   7.204  17.328  0.00  0.00    +0.000 C 
ATOM     23  O   UNL     1       6.255   7.979  16.554  0.00  0.00    +0.000 OA
BRANCH  20  24
ATOM     24  O   UNL     1       7.990   4.247  18.057  0.00  0.00    +0.000 OA
ATOM     25  H   UNL     1       8.803   4.232  18.598  0.00  0.00    +0.000 HD
ENDBRANCH  20  24
ENDBRANCH  17  18
ENDBRANCH  15  16
TORSDOF 3
ENDMDL
