MODEL 1
REMARK VINA RESULT:      -8.4      0.000      0.000
REMARK  Name = 
REMARK  7 active torsions:
REMARK  status: ('A' for Active; 'I' for Inactive)
REMARK    1  A    between atoms: C_1  and  C_2
REMARK    2  A    between atoms: C_5  and  N_6
REMARK    3  A    between atoms: C_7  and  C_9
REMARK    4  A    between atoms: C_13  and  N_14
REMARK    5  A    between atoms: C_16  and  N_17
REMARK    6  A    between atoms: N_20  and  C_21
REMARK    7  A    between atoms: C_21  and  C_22
REMARK                            x       y       z     vdW  Elec       q    Type
REMARK                         _______ _______ _______ _____ _____    ______ ____
ROOT
ATOM      1  N   UNL     1       1.001   9.450  19.736  0.00  0.00    +0.000 N 
ATOM      2  C   UNL     1       1.925   8.430  19.634  0.00  0.00    +0.000 A 
ATOM      3  C   UNL     1       2.423   8.484  18.358  0.00  0.00    +0.000 A 
ATOM      4  C   UNL     1       1.719   9.519  17.730  0.00  0.00    +0.000 A 
ATOM      5  N   UNL     1       0.848  10.101  18.552  0.00  0.00    +0.000 NA
ENDROOT
BRANCH   1  10
ATOM      6  C   UNL     1      -1.361  11.277  21.977  0.00  0.00    +0.000 A 
ATOM      7  C   UNL     1      -1.084  10.641  23.197  0.00  0.00    +0.000 A 
ATOM      8  C   UNL     1      -0.145   9.617  23.268  0.00  0.00    +0.000 A 
ATOM      9  C   UNL     1       0.530   9.223  22.117  0.00  0.00    +0.000 A 
ATOM     10  C   UNL     1       0.274   9.859  20.889  0.00  0.00    +0.000 A 
ATOM     11  C   UNL     1      -0.680  10.890  20.818  0.00  0.00    +0.000 A 
BRANCH   6  13
ATOM     12  N   UNL     1      -3.511  12.255  22.669  0.00  0.00    +0.000 N 
ATOM     13  C   UNL     1      -2.299  12.428  22.018  0.00  0.00    +0.000 C 
ATOM     14  O   UNL     1      -1.913  13.456  21.471  0.00  0.00    +0.000 OA
ATOM     15  H   UNL     1      -3.681  11.381  23.151  0.00  0.00    +0.000 HD
BRANCH  12  20
ATOM     16  C   UNL     1      -7.437  16.330  23.328  0.00  0.00    +0.000 C 
ATOM     17  C   UNL     1      -6.417  15.248  23.125  0.00  0.00    +0.000 A 
ATOM     18  C   UNL     1      -6.627  14.270  22.167  0.00  0.00    +0.000 A 
ATOM     19  C   UNL     1      -5.676  13.268  22.003  0.00  0.00    +0.000 A 
ATOM     20  C   UNL     1      -4.521  13.246  22.785  0.00  0.00    +0.000 A 
ATOM     21  C   UNL     1      -4.398  14.274  23.722  0.00  0.00    +0.000 A 
ATOM     22  N   UNL     1      -5.311  15.264  23.909  0.00  0.00    +0.000 NA
ENDBRANCH  12  20
ENDBRANCH   6  13
ENDBRANCH   1  10
BRANCH   3  23
ATOM     23  N   UNL     1       3.420   7.701  17.829  0.00  0.00    +0.000 N 
ATOM     24  C   UNL     1       3.311   6.364  17.563  0.00  0.00    +0.000 C 
ATOM     25  O   UNL     1       4.216   5.781  16.969  0.00  0.00    +0.000 OA
ATOM     26  N   UNL     1       2.161   5.751  17.971  0.00  0.00    +0.000 N 
ATOM     27  H   UNL     1       4.169   8.158  17.322  0.00  0.00    +0.000 HD
ATOM     28  H   UNL     1       1.612   6.222  18.677  0.00  0.00    +0.000 HD
BRANCH  26  29
ATOM     29  C   UNL     1       2.005   4.318  17.891  0.00  0.00    +0.000 C 
BRANCH  29  30
ATOM     30  C   UNL     1       2.129   3.654  19.239  0.00  0.00    +0.000 A 
ATOM     31  C   UNL     1       0.967   3.472  20.011  0.00  0.00    +0.000 A 
ATOM     32  C   UNL     1       1.020   2.851  21.260  0.00  0.00    +0.000 A 
ATOM     33  C   UNL     1       2.238   2.404  21.764  0.00  0.00    +0.000 A 
ATOM     34  C   UNL     1       3.402   2.573  21.015  0.00  0.00    +0.000 A 
ATOM     35  C   UNL     1       3.349   3.191  19.760  0.00  0.00    +0.000 A 
ATOM     36 CL   UNL     1       4.833   3.360  18.889  0.00  0.00    +0.000 Cl
ENDBRANCH  29  30
ENDBRANCH  26  29
ENDBRANCH   3  23
TORSDOF 6
ENDMDL
MODEL 2
REMARK VINA RESULT:      -8.4      3.519     10.721
REMARK  Name = 
REMARK  7 active torsions:
REMARK  status: ('A' for Active; 'I' for Inactive)
REMARK    1  A    between atoms: C_1  and  C_2
REMARK    2  A    between atoms: C_5  and  N_6
REMARK    3  A    between atoms: C_7  and  C_9
REMARK    4  A    between atoms: C_13  and  N_14
REMARK    5  A    between atoms: C_16  and  N_17
REMARK    6  A    between atoms: N_20  and  C_21
REMARK    7  A    between atoms: C_21  and  C_22
REMARK                            x       y       z     vdW  Elec       q    Type
REMARK                         _______ _______ _______ _____ _____    ______ ____
ROOT
ATOM      1  N   UNL     1      -0.417  11.907  20.353  0.00  0.00    +0.000 N 
ATOM      2  C   UNL     1      -1.337  12.467  21.216  0.00  0.00    +0.000 A 
ATOM      3  C   UNL     1      -1.705  13.667  20.665  0.00  0.00    +0.000 A 
ATOM      4  C   UNL     1      -0.931  13.795  19.505  0.00  0.00    +0.000 A 
ATOM      5  N   UNL     1      -0.140  12.741  19.315  0.00  0.00    +0.000 NA
ENDROOT
BRANCH   1  10
ATOM      6  C   UNL     1       1.543   8.848  19.495  0.00  0.00    +0.000 A 
ATOM      7  C   UNL     1       1.333   8.088  20.656  0.00  0.00    +0.000 A 
ATOM      8  C   UNL     1       0.570   8.589  21.705  0.00  0.00    +0.000 A 
ATOM      9  C   UNL     1       0.005   9.857  21.600  0.00  0.00    +0.000 A 
ATOM     10  C   UNL     1       0.196  10.626  20.438  0.00  0.00    +0.000 A 
ATOM     11  C   UNL     1       0.972  10.121  19.381  0.00  0.00    +0.000 A 
BRANCH   6  13
ATOM     12  N   UNL     1       3.029   7.061  18.684  0.00  0.00    +0.000 N 
ATOM     13  C   UNL     1       2.282   8.191  18.386  0.00  0.00    +0.000 C 
ATOM     14  O   UNL     1       2.158   8.705  17.279  0.00  0.00    +0.000 OA
ATOM     15  H   UNL     1       2.987   6.686  19.623  0.00  0.00    +0.000 HD
BRANCH  12  20
ATOM     16  C   UNL     1       6.239   4.322  14.858  0.00  0.00    +0.000 C 
ATOM     17  C   UNL     1       5.384   5.013  15.878  0.00  0.00    +0.000 A 
ATOM     18  C   UNL     1       4.410   4.303  16.560  0.00  0.00    +0.000 A 
ATOM     19  C   UNL     1       3.617   4.966  17.492  0.00  0.00    +0.000 A 
ATOM     20  C   UNL     1       3.801   6.325  17.745  0.00  0.00    +0.000 A 
ATOM     21  C   UNL     1       4.807   6.954  17.011  0.00  0.00    +0.000 A 
ATOM     22  N   UNL     1       5.595   6.335  16.090  0.00  0.00    +0.000 NA
ENDBRANCH  12  20
ENDBRANCH   6  13
ENDBRANCH   1  10
BRANCH   3  23
ATOM     23  N   UNL     1      -2.654  14.538  21.145  0.00  0.00    +0.000 N 
ATOM     24  C   UNL     1      -3.996  14.454  20.891  0.00  0.00    +0.000 C 
ATOM     25  O   UNL     1      -4.777  15.204  21.474  0.00  0.00    +0.000 OA
ATOM     26  N   UNL     1      -4.391  13.502  19.996  0.00  0.00    +0.000 N 
ATOM     27  H   UNL     1      -2.427  15.088  21.964  0.00  0.00    +0.000 HD
ATOM     28  H   UNL     1      -3.686  13.132  19.374  0.00  0.00    +0.000 HD
BRANCH  26  29
ATOM     29  C   UNL     1      -5.755  13.431  19.530  0.00  0.00    +0.000 C 
BRANCH  29  30
ATOM     30  C   UNL     1      -6.373  12.077  19.773  0.00  0.00    +0.000 A 
ATOM     31  C   UNL     1      -7.227  11.914  20.877  0.00  0.00    +0.000 A 
ATOM     32  C   UNL     1      -7.837  10.687  21.143  0.00  0.00    +0.000 A 
ATOM     33  C   UNL     1      -7.601   9.598  20.310  0.00  0.00    +0.000 A 
ATOM     34  C   UNL     1      -6.758   9.737  19.208  0.00  0.00    +0.000 A 
ATOM     35  C   UNL     1      -6.150  10.969  18.938  0.00  0.00    +0.000 A 
ATOM     36 CL   UNL     1      -5.122  11.066  17.551  0.00  0.00    +0.000 Cl
ENDBRANCH  29  30
ENDBRANCH  26  29
ENDBRANCH   3  23
TORSDOF 6
ENDMDL
MODEL 3
REMARK VINA RESULT:      -8.4      4.436      6.481
REMARK  Name = 
REMARK  7 active torsions:
REMARK  status: ('A' for Active; 'I' for Inactive)
REMARK    1  A    between atoms: C_1  and  C_2
REMARK    2  A    between atoms: C_5  and  N_6
REMARK    3  A    between atoms: C_7  and  C_9
REMARK    4  A    between atoms: C_13  and  N_14
REMARK    5  A    between atoms: C_16  and  N_17
REMARK    6  A    between atoms: N_20  and  C_21
REMARK    7  A    between atoms: C_21  and  C_22
REMARK                            x       y       z     vdW  Elec       q    Type
REMARK                         _______ _______ _______ _____ _____    ______ ____
ROOT
ATOM      1  N   UNL     1       3.180   5.679  19.363  0.00  0.00    +0.000 N 
ATOM      2  C   UNL     1       4.560   5.645  19.356  0.00  0.00    +0.000 A 
ATOM      3  C   UNL     1       4.917   4.463  18.762  0.00  0.00    +0.000 A 
ATOM      4  C   UNL     1       3.709   3.808  18.486  0.00  0.00    +0.000 A 
ATOM      5  N   UNL     1       2.654   4.530  18.858  0.00  0.00    +0.000 NA
ENDROOT
BRANCH   1  10
ATOM      6  C   UNL     1       1.491   8.999  19.602  0.00  0.00    +0.000 A 
ATOM      7  C   UNL     1       0.680   8.782  20.726  0.00  0.00    +0.000 A 
ATOM      8  C   UNL     1       0.683   7.554  21.379  0.00  0.00    +0.000 A 
ATOM      9  C   UNL     1       1.505   6.531  20.914  0.00  0.00    +0.000 A 
ATOM     10  C   UNL     1       2.333   6.736  19.796  0.00  0.00    +0.000 A 
ATOM     11  C   UNL     1       2.324   7.977  19.134  0.00  0.00    +0.000 A 
BRANCH   6  13
ATOM     12  N   UNL     1       1.066  11.411  19.844  0.00  0.00    +0.000 N 
ATOM     13  C   UNL     1       1.500  10.373  19.035  0.00  0.00    +0.000 C 
ATOM     14  O   UNL     1       1.907  10.476  17.882  0.00  0.00    +0.000 OA
ATOM     15  H   UNL     1       0.830  11.209  20.807  0.00  0.00    +0.000 HD
BRANCH  12  20
ATOM     16  C   UNL     1       1.045  16.899  18.316  0.00  0.00    +0.000 C 
ATOM     17  C   UNL     1       1.019  15.451  18.706  0.00  0.00    +0.000 A 
ATOM     18  C   UNL     1      -0.182  14.762  18.732  0.00  0.00    +0.000 A 
ATOM     19  C   UNL     1      -0.187  13.423  19.109  0.00  0.00    +0.000 A 
ATOM     20  C   UNL     1       1.000  12.775  19.452  0.00  0.00    +0.000 A 
ATOM     21  C   UNL     1       2.159  13.551  19.394  0.00  0.00    +0.000 A 
ATOM     22  N   UNL     1       2.196  14.862  19.033  0.00  0.00    +0.000 NA
ENDBRANCH  12  20
ENDBRANCH   6  13
ENDBRANCH   1  10
BRANCH   3  23
ATOM     23  N   UNL     1       6.191   4.035  18.477  0.00  0.00    +0.000 N 
ATOM     24  C   UNL     1       6.972   4.517  17.463  0.00  0.00    +0.000 C 
ATOM     25  O   UNL     1       8.146   4.161  17.371  0.00  0.00    +0.000 OA
ATOM     26  N   UNL     1       6.384   5.402  16.605  0.00  0.00    +0.000 N 
ATOM     27  H   UNL     1       6.713   3.568  19.208  0.00  0.00    +0.000 HD
ATOM     28  H   UNL     1       5.374   5.422  16.583  0.00  0.00    +0.000 HD
BRANCH  26  29
ATOM     29  C   UNL     1       7.058   5.849  15.409  0.00  0.00    +0.000 C 
BRANCH  29  30
ATOM     30  C   UNL     1       6.739   4.984  14.216  0.00  0.00    +0.000 A 
ATOM     31  C   UNL     1       5.586   4.179  14.256  0.00  0.00    +0.000 A 
ATOM     32  C   UNL     1       5.233   3.369  13.175  0.00  0.00    +0.000 A 
ATOM     33  C   UNL     1       6.031   3.345  12.034  0.00  0.00    +0.000 A 
ATOM     34  C   UNL     1       7.177   4.135  11.973  0.00  0.00    +0.000 A 
ATOM     35  C   UNL     1       7.529   4.953  13.054  0.00  0.00    +0.000 A 
ATOM     36 CL   UNL     1       8.962   5.907  12.902  0.00  0.00    +0.000 Cl
ENDBRANCH  29  30
ENDBRANCH  26  29
ENDBRANCH   3  23
TORSDOF 6
ENDMDL
MODEL 4
REMARK VINA RESULT:      -8.3      3.585     10.757
REMARK  Name = 
REMARK  7 active torsions:
REMARK  status: ('A' for Active; 'I' for Inactive)
REMARK    1  A    between atoms: C_1  and  C_2
REMARK    2  A    between atoms: C_5  and  N_6
REMARK    3  A    between atoms: C_7  and  C_9
REMARK    4  A    between atoms: C_13  and  N_14
REMARK    5  A    between atoms: C_16  and  N_17
REMARK    6  A    between atoms: N_20  and  C_21
REMARK    7  A    between atoms: C_21  and  C_22
REMARK                            x       y       z     vdW  Elec       q    Type
REMARK                         _______ _______ _______ _____ _____    ______ ____
ROOT
ATOM      1  N   UNL     1       0.045  11.696  21.086  0.00  0.00    +0.000 N 
ATOM      2  C   UNL     1      -0.973  11.281  21.921  0.00  0.00    +0.000 A 
ATOM      3  C   UNL     1      -1.396  12.395  22.599  0.00  0.00    +0.000 A 
ATOM      4  C   UNL     1      -0.558  13.431  22.168  0.00  0.00    +0.000 A 
ATOM      5  N   UNL     1       0.325  13.015  21.263  0.00  0.00    +0.000 NA
ENDROOT
BRANCH   1  10
ATOM      6  C   UNL     1       1.619   8.819  19.302  0.00  0.00    +0.000 A 
ATOM      7  C   UNL     1       2.183   9.488  18.205  0.00  0.00    +0.000 A 
ATOM      8  C   UNL     1       2.028  10.862  18.055  0.00  0.00    +0.000 A 
ATOM      9  C   UNL     1       1.311  11.581  19.006  0.00  0.00    +0.000 A 
ATOM     10  C   UNL     1       0.750  10.927  20.118  0.00  0.00    +0.000 A 
ATOM     11  C   UNL     1       0.902   9.537  20.266  0.00  0.00    +0.000 A 
BRANCH   6  13
ATOM     12  N   UNL     1       2.343   6.689  18.303  0.00  0.00    +0.000 N 
ATOM     13  C   UNL     1       1.924   7.370  19.435  0.00  0.00    +0.000 C 
ATOM     14  O   UNL     1       1.787   6.893  20.557  0.00  0.00    +0.000 OA
ATOM     15  H   UNL     1       2.495   7.214  17.450  0.00  0.00    +0.000 HD
BRANCH  12  20
ATOM     16  C   UNL     1       3.850   1.197  18.184  0.00  0.00    +0.000 C 
ATOM     17  C   UNL     1       3.421   2.634  18.213  0.00  0.00    +0.000 A 
ATOM     18  C   UNL     1       2.137   2.981  17.826  0.00  0.00    +0.000 A 
ATOM     19  C   UNL     1       1.762   4.320  17.847  0.00  0.00    +0.000 A 
ATOM     20  C   UNL     1       2.661   5.306  18.256  0.00  0.00    +0.000 A 
ATOM     21  C   UNL     1       3.930   4.859  18.629  0.00  0.00    +0.000 A 
ATOM     22  N   UNL     1       4.327   3.558  18.615  0.00  0.00    +0.000 NA
ENDBRANCH  12  20
ENDBRANCH   6  13
ENDBRANCH   1  10
BRANCH   3  23
ATOM     23  N   UNL     1      -2.441  12.470  23.489  0.00  0.00    +0.000 N 
ATOM     24  C   UNL     1      -3.753  12.646  23.145  0.00  0.00    +0.000 C 
ATOM     25  O   UNL     1      -4.627  12.569  24.006  0.00  0.00    +0.000 OA
ATOM     26  N   UNL     1      -4.014  12.882  21.826  0.00  0.00    +0.000 N 
ATOM     27  H   UNL     1      -2.309  12.081  24.414  0.00  0.00    +0.000 HD
ATOM     28  H   UNL     1      -3.244  13.199  21.252  0.00  0.00    +0.000 HD
BRANCH  26  29
ATOM     29  C   UNL     1      -5.337  13.243  21.375  0.00  0.00    +0.000 C 
BRANCH  29  30
ATOM     30  C   UNL     1      -6.000  12.132  20.601  0.00  0.00    +0.000 A 
ATOM     31  C   UNL     1      -5.506  11.812  19.324  0.00  0.00    +0.000 A 
ATOM     32  C   UNL     1      -6.072  10.783  18.568  0.00  0.00    +0.000 A 
ATOM     33  C   UNL     1      -7.147  10.058  19.074  0.00  0.00    +0.000 A 
ATOM     34  C   UNL     1      -7.651  10.357  20.338  0.00  0.00    +0.000 A 
ATOM     35  C   UNL     1      -7.081  11.385  21.100  0.00  0.00    +0.000 A 
ATOM     36 CL   UNL     1      -7.759  11.695  22.659  0.00  0.00    +0.000 Cl
ENDBRANCH  29  30
ENDBRANCH  26  29
ENDBRANCH   3  23
TORSDOF 6
ENDMDL
MODEL 5
REMARK VINA RESULT:      -8.2      2.897      4.772
REMARK  Name = 
REMARK  7 active torsions:
REMARK  status: ('A' for Active; 'I' for Inactive)
REMARK    1  A    between atoms: C_1  and  C_2
REMARK    2  A    between atoms: C_5  and  N_6
REMARK    3  A    between atoms: C_7  and  C_9
REMARK    4  A    between atoms: C_13  and  N_14
REMARK    5  A    between atoms: C_16  and  N_17
REMARK    6  A    between atoms: N_20  and  C_21
REMARK    7  A    between atoms: C_21  and  C_22
REMARK                            x       y       z     vdW  Elec       q    Type
REMARK                         _______ _______ _______ _____ _____    ______ ____
ROOT
ATOM      1  N   UNL     1       1.617   6.023  20.439  0.00  0.00    +0.000 N 
ATOM      2  C   UNL     1       2.807   5.325  20.452  0.00  0.00    +0.000 A 
ATOM      3  C   UNL     1       2.477   3.995  20.484  0.00  0.00    +0.000 A 
ATOM      4  C   UNL     1       1.078   3.963  20.547  0.00  0.00    +0.000 A 
ATOM      5  N   UNL     1       0.550   5.185  20.532  0.00  0.00    +0.000 NA
ENDROOT
BRANCH   1  10
ATOM      6  C   UNL     1       0.686   9.554  21.212  0.00  0.00    +0.000 A 
ATOM      7  C   UNL     1       1.046  10.174  20.006  0.00  0.00    +0.000 A 
ATOM      8  C   UNL     1       1.602   9.436  18.966  0.00  0.00    +0.000 A 
ATOM      9  C   UNL     1       1.797   8.067  19.123  0.00  0.00    +0.000 A 
ATOM     10  C   UNL     1       1.429   7.428  20.321  0.00  0.00    +0.000 A 
ATOM     11  C   UNL     1       0.873   8.177  21.374  0.00  0.00    +0.000 A 
BRANCH   6  13
ATOM     12  N   UNL     1      -0.694  11.513  21.777  0.00  0.00    +0.000 N 
ATOM     13  C   UNL     1       0.004  10.402  22.225  0.00  0.00    +0.000 C 
ATOM     14  O   UNL     1       0.108  10.035  23.391  0.00  0.00    +0.000 OA
ATOM     15  H   UNL     1      -0.774  11.665  20.780  0.00  0.00    +0.000 HD
BRANCH  12  20
ATOM     16  C   UNL     1      -3.270  15.332  25.128  0.00  0.00    +0.000 C 
ATOM     17  C   UNL     1      -2.622  14.311  24.241  0.00  0.00    +0.000 A 
ATOM     18  C   UNL     1      -3.298  13.148  23.914  0.00  0.00    +0.000 A 
ATOM     19  C   UNL     1      -2.675  12.207  23.101  0.00  0.00    +0.000 A 
ATOM     20  C   UNL     1      -1.387  12.429  22.612  0.00  0.00    +0.000 A 
ATOM     21  C   UNL     1      -0.787  13.630  22.994  0.00  0.00    +0.000 A 
ATOM     22  N   UNL     1      -1.369  14.567  23.790  0.00  0.00    +0.000 NA
ENDBRANCH  12  20
ENDBRANCH   6  13
ENDBRANCH   1  10
BRANCH   3  23
ATOM     23  N   UNL     1       3.343   2.929  20.438  0.00  0.00    +0.000 N 
ATOM     24  C   UNL     1       4.523   2.906  19.746  0.00  0.00    +0.000 C 
ATOM     25  O   UNL     1       5.289   1.953  19.873  0.00  0.00    +0.000 OA
ATOM     26  N   UNL     1       4.787   3.985  18.951  0.00  0.00    +0.000 N 
ATOM     27  H   UNL     1       3.287   2.236  21.173  0.00  0.00    +0.000 HD
ATOM     28  H   UNL     1       4.005   4.571  18.693  0.00  0.00    +0.000 HD
BRANCH  26  29
ATOM     29  C   UNL     1       5.917   3.997  18.054  0.00  0.00    +0.000 C 
BRANCH  29  30
ATOM     30  C   UNL     1       6.607   5.337  18.021  0.00  0.00    +0.000 A 
ATOM     31  C   UNL     1       7.631   5.592  18.950  0.00  0.00    +0.000 A 
ATOM     32  C   UNL     1       8.313   6.811  18.957  0.00  0.00    +0.000 A 
ATOM     33  C   UNL     1       7.980   7.799  18.036  0.00  0.00    +0.000 A 
ATOM     34  C   UNL     1       6.969   7.567  17.105  0.00  0.00    +0.000 A 
ATOM     35  C   UNL     1       6.288   6.344  17.093  0.00  0.00    +0.000 A 
ATOM     36 CL   UNL     1       5.050   6.129  15.906  0.00  0.00    +0.000 Cl
ENDBRANCH  29  30
ENDBRANCH  26  29
ENDBRANCH   3  23
TORSDOF 6
ENDMDL
MODEL 6
REMARK VINA RESULT:      -8.2      4.205     11.204
REMARK  Name = 
REMARK  7 active torsions:
REMARK  status: ('A' for Active; 'I' for Inactive)
REMARK    1  A    between atoms: C_1  and  C_2
REMARK    2  A    between atoms: C_5  and  N_6
REMARK    3  A    between atoms: C_7  and  C_9
REMARK    4  A    between atoms: C_13  and  N_14
REMARK    5  A    between atoms: C_16  and  N_17
REMARK    6  A    between atoms: N_20  and  C_21
REMARK    7  A    between atoms: C_21  and  C_22
REMARK                            x       y       z     vdW  Elec       q    Type
REMARK                         _______ _______ _______ _____ _____    ______ ____
ROOT
ATOM      1  N   UNL     1       1.598   7.837  20.434  0.00  0.00    +0.000 N 
ATOM      2  C   UNL     1       1.615   8.906  19.562  0.00  0.00    +0.000 A 
ATOM      3  C   UNL     1       1.268  10.011  20.296  0.00  0.00    +0.000 A 
ATOM      4  C   UNL     1       1.002   9.530  21.584  0.00  0.00    +0.000 A 
ATOM      5  N   UNL     1       1.186   8.214  21.674  0.00  0.00    +0.000 NA
ENDROOT
BRANCH   1  10
ATOM      6  C   UNL     1       3.137   4.824  18.855  0.00  0.00    +0.000 A 
ATOM      7  C   UNL     1       2.620   3.819  19.687  0.00  0.00    +0.000 A 
ATOM      8  C   UNL     1       1.792   4.139  20.758  0.00  0.00    +0.000 A 
ATOM      9  C   UNL     1       1.470   5.470  21.003  0.00  0.00    +0.000 A 
ATOM     10  C   UNL     1       1.969   6.489  20.171  0.00  0.00    +0.000 A 
ATOM     11  C   UNL     1       2.810   6.164  19.092  0.00  0.00    +0.000 A 
BRANCH   6  13
ATOM     12  N   UNL     1       4.579   5.350  16.931  0.00  0.00    +0.000 N 
ATOM     13  C   UNL     1       3.924   4.380  17.675  0.00  0.00    +0.000 C 
ATOM     14  O   UNL     1       3.938   3.173  17.461  0.00  0.00    +0.000 OA
ATOM     15  H   UNL     1       4.557   6.308  17.256  0.00  0.00    +0.000 HD
BRANCH  12  20
ATOM     16  C   UNL     1       7.887   4.479  12.376  0.00  0.00    +0.000 C 
ATOM     17  C   UNL     1       6.995   4.684  13.564  0.00  0.00    +0.000 A 
ATOM     18  C   UNL     1       5.728   4.126  13.584  0.00  0.00    +0.000 A 
ATOM     19  C   UNL     1       4.911   4.338  14.690  0.00  0.00    +0.000 A 
ATOM     20  C   UNL     1       5.360   5.096  15.771  0.00  0.00    +0.000 A 
ATOM     21  C   UNL     1       6.651   5.615  15.661  0.00  0.00    +0.000 A 
ATOM     22  N   UNL     1       7.471   5.429  14.592  0.00  0.00    +0.000 NA
ENDBRANCH  12  20
ENDBRANCH   6  13
ENDBRANCH   1  10
BRANCH   3  23
ATOM     23  N   UNL     1       1.222  11.312  19.856  0.00  0.00    +0.000 N 
ATOM     24  C   UNL     1       0.077  12.039  19.676  0.00  0.00    +0.000 C 
ATOM     25  O   UNL     1       0.149  13.236  19.404  0.00  0.00    +0.000 OA
ATOM     26  N   UNL     1      -1.103  11.371  19.834  0.00  0.00    +0.000 N 
ATOM     27  H   UNL     1       2.055  11.878  19.952  0.00  0.00    +0.000 HD
ATOM     28  H   UNL     1      -1.074  10.363  19.779  0.00  0.00    +0.000 HD
BRANCH  26  29
ATOM     29  C   UNL     1      -2.365  11.993  19.510  0.00  0.00    +0.000 C 
BRANCH  29  30
ATOM     30  C   UNL     1      -2.916  11.515  18.190  0.00  0.00    +0.000 A 
ATOM     31  C   UNL     1      -2.051  10.856  17.298  0.00  0.00    +0.000 A 
ATOM     32  C   UNL     1      -2.509  10.380  16.067  0.00  0.00    +0.000 A 
ATOM     33  C   UNL     1      -3.841  10.559  15.705  0.00  0.00    +0.000 A 
ATOM     34  C   UNL     1      -4.716  11.208  16.575  0.00  0.00    +0.000 A 
ATOM     35  C   UNL     1      -4.259  11.680  17.811  0.00  0.00    +0.000 A 
ATOM     36 CL   UNL     1      -5.403  12.471  18.837  0.00  0.00    +0.000 Cl
ENDBRANCH  29  30
ENDBRANCH  26  29
ENDBRANCH   3  23
TORSDOF 6
ENDMDL
MODEL 7
REMARK VINA RESULT:      -8.1      1.045      1.520
REMARK  Name = 
REMARK  7 active torsions:
REMARK  status: ('A' for Active; 'I' for Inactive)
REMARK    1  A    between atoms: C_1  and  C_2
REMARK    2  A    between atoms: C_5  and  N_6
REMARK    3  A    between atoms: C_7  and  C_9
REMARK    4  A    between atoms: C_13  and  N_14
REMARK    5  A    between atoms: C_16  and  N_17
REMARK    6  A    between atoms: N_20  and  C_21
REMARK    7  A    between atoms: C_21  and  C_22
REMARK                            x       y       z     vdW  Elec       q    Type
REMARK                         _______ _______ _______ _____ _____    ______ ____
ROOT
ATOM      1  N   UNL     1       1.004   9.275  19.714  0.00  0.00    +0.000 N 
ATOM      2  C   UNL     1       1.997   8.320  19.638  0.00  0.00    +0.000 A 
ATOM      3  C   UNL     1       2.432   8.314  18.338  0.00  0.00    +0.000 A 
ATOM      4  C   UNL     1       1.623   9.245  17.673  0.00  0.00    +0.000 A 
ATOM      5  N   UNL     1       0.748   9.822  18.495  0.00  0.00    +0.000 NA
ENDROOT
BRANCH   1  10
ATOM      6  C   UNL     1      -1.298  11.175  21.956  0.00  0.00    +0.000 A 
ATOM      7  C   UNL     1      -1.008  10.560  23.183  0.00  0.00    +0.000 A 
ATOM      8  C   UNL     1      -0.081   9.526  23.260  0.00  0.00    +0.000 A 
ATOM      9  C   UNL     1       0.570   9.101  22.106  0.00  0.00    +0.000 A 
ATOM     10  C   UNL     1       0.302   9.716  20.869  0.00  0.00    +0.000 A 
ATOM     11  C   UNL     1      -0.641  10.757  20.793  0.00  0.00    +0.000 A 
BRANCH   6  13
ATOM     12  N   UNL     1      -3.357  12.243  22.778  0.00  0.00    +0.000 N 
ATOM     13  C   UNL     1      -2.221  12.339  21.988  0.00  0.00    +0.000 C 
ATOM     14  O   UNL     1      -1.891  13.307  21.310  0.00  0.00    +0.000 OA
ATOM     15  H   UNL     1      -3.479  11.421  23.355  0.00  0.00    +0.000 HD
BRANCH  12  20
ATOM     16  C   UNL     1      -7.439  16.203  23.111  0.00  0.00    +0.000 C 
ATOM     17  C   UNL     1      -6.352  15.171  23.053  0.00  0.00    +0.000 A 
ATOM     18  C   UNL     1      -5.262  15.264  23.903  0.00  0.00    +0.000 A 
ATOM     19  C   UNL     1      -4.258  14.305  23.824  0.00  0.00    +0.000 A 
ATOM     20  C   UNL     1      -4.344  13.256  22.909  0.00  0.00    +0.000 A 
ATOM     21  C   UNL     1      -5.480  13.245  22.097  0.00  0.00    +0.000 A 
ATOM     22  N   UNL     1      -6.476  14.171  22.147  0.00  0.00    +0.000 NA
ENDBRANCH  12  20
ENDBRANCH   6  13
ENDBRANCH   1  10
BRANCH   3  23
ATOM     23  N   UNL     1       3.461   7.568  17.816  0.00  0.00    +0.000 N 
ATOM     24  C   UNL     1       3.387   6.238  17.504  0.00  0.00    +0.000 C 
ATOM     25  O   UNL     1       4.321   5.692  16.920  0.00  0.00    +0.000 OA
ATOM     26  N   UNL     1       2.237   5.590  17.855  0.00  0.00    +0.000 N 
ATOM     27  H   UNL     1       4.215   8.055  17.348  0.00  0.00    +0.000 HD
ATOM     28  H   UNL     1       1.657   6.027  18.558  0.00  0.00    +0.000 HD
BRANCH  26  29
ATOM     29  C   UNL     1       2.113   4.158  17.725  0.00  0.00    +0.000 C 
BRANCH  29  30
ATOM     30  C   UNL     1       2.693   3.424  18.907  0.00  0.00    +0.000 A 
ATOM     31  C   UNL     1       3.884   2.698  18.732  0.00  0.00    +0.000 A 
ATOM     32  C   UNL     1       4.474   2.011  19.794  0.00  0.00    +0.000 A 
ATOM     33  C   UNL     1       3.880   2.033  21.053  0.00  0.00    +0.000 A 
ATOM     34  C   UNL     1       2.699   2.748  21.249  0.00  0.00    +0.000 A 
ATOM     35  C   UNL     1       2.110   3.442  20.186  0.00  0.00    +0.000 A 
ATOM     36 CL   UNL     1       0.649   4.308  20.508  0.00  0.00    +0.000 Cl
ENDBRANCH  29  30
ENDBRANCH  26  29
ENDBRANCH   3  23
TORSDOF 6
ENDMDL
MODEL 8
REMARK VINA RESULT:      -7.9      3.654     11.146
REMARK  Name = 
REMARK  7 active torsions:
REMARK  status: ('A' for Active; 'I' for Inactive)
REMARK    1  A    between atoms: C_1  and  C_2
REMARK    2  A    between atoms: C_5  and  N_6
REMARK    3  A    between atoms: C_7  and  C_9
REMARK    4  A    between atoms: C_13  and  N_14
REMARK    5  A    between atoms: C_16  and  N_17
REMARK    6  A    between atoms: N_20  and  C_21
REMARK    7  A    between atoms: C_21  and  C_22
REMARK                            x       y       z     vdW  Elec       q    Type
REMARK                         _______ _______ _______ _____ _____    ______ ____
ROOT
ATOM      1  N   UNL     1       1.276   7.322  20.799  0.00  0.00    +0.000 N 
ATOM      2  C   UNL     1       1.696   8.589  20.447  0.00  0.00    +0.000 A 
ATOM      3  C   UNL     1       0.810   9.465  21.020  0.00  0.00    +0.000 A 
ATOM      4  C   UNL     1      -0.148   8.662  21.652  0.00  0.00    +0.000 A 
ATOM      5  N   UNL     1       0.119   7.364  21.513  0.00  0.00    +0.000 NA
ENDROOT
BRANCH   1  10
ATOM      6  C   UNL     1       3.582   4.762  19.363  0.00  0.00    +0.000 A 
ATOM      7  C   UNL     1       3.086   3.607  19.986  0.00  0.00    +0.000 A 
ATOM      8  C   UNL     1       2.019   3.682  20.875  0.00  0.00    +0.000 A 
ATOM      9  C   UNL     1       1.435   4.915  21.146  0.00  0.00    +0.000 A 
ATOM     10  C   UNL     1       1.912   6.081  20.520  0.00  0.00    +0.000 A 
ATOM     11  C   UNL     1       2.995   6.005  19.626  0.00  0.00    +0.000 A 
BRANCH   6  13
ATOM     12  N   UNL     1       4.487   5.172  17.111  0.00  0.00    +0.000 N 
ATOM     13  C   UNL     1       4.653   4.572  18.350  0.00  0.00    +0.000 C 
ATOM     14  O   UNL     1       5.615   3.898  18.704  0.00  0.00    +0.000 OA
ATOM     15  H   UNL     1       3.685   5.773  16.967  0.00  0.00    +0.000 HD
BRANCH  12  20
ATOM     16  C   UNL     1       8.327   4.947  12.909  0.00  0.00    +0.000 C 
ATOM     17  C   UNL     1       7.299   4.981  14.001  0.00  0.00    +0.000 A 
ATOM     18  C   UNL     1       6.088   4.329  13.833  0.00  0.00    +0.000 A 
ATOM     19  C   UNL     1       5.143   4.384  14.852  0.00  0.00    +0.000 A 
ATOM     20  C   UNL     1       5.406   5.079  16.032  0.00  0.00    +0.000 A 
ATOM     21  C   UNL     1       6.653   5.701  16.110  0.00  0.00    +0.000 A 
ATOM     22  N   UNL     1       7.596   5.670  15.130  0.00  0.00    +0.000 NA
ENDBRANCH  12  20
ENDBRANCH   6  13
ENDBRANCH   1  10
BRANCH   3  23
ATOM     23  N   UNL     1       0.874  10.837  20.994  0.00  0.00    +0.000 N 
ATOM     24  C   UNL     1       0.101  11.644  20.206  0.00  0.00    +0.000 C 
ATOM     25  O   UNL     1       0.143  12.865  20.352  0.00  0.00    +0.000 OA
ATOM     26  N   UNL     1      -0.705  11.021  19.296  0.00  0.00    +0.000 N 
ATOM     27  H   UNL     1       1.279  11.311  21.792  0.00  0.00    +0.000 HD
ATOM     28  H   UNL     1      -0.478  10.066  19.056  0.00  0.00    +0.000 HD
BRANCH  26  29
ATOM     29  C   UNL     1      -1.439  11.772  18.306  0.00  0.00    +0.000 C 
BRANCH  29  30
ATOM     30  C   UNL     1      -2.930  11.683  18.510  0.00  0.00    +0.000 A 
ATOM     31  C   UNL     1      -3.517  12.446  19.534  0.00  0.00    +0.000 A 
ATOM     32  C   UNL     1      -4.895  12.413  19.760  0.00  0.00    +0.000 A 
ATOM     33  C   UNL     1      -5.711  11.611  18.967  0.00  0.00    +0.000 A 
ATOM     34  C   UNL     1      -5.150  10.847  17.944  0.00  0.00    +0.000 A 
ATOM     35  C   UNL     1      -3.769  10.884  17.714  0.00  0.00    +0.000 A 
ATOM     36 CL   UNL     1      -3.148   9.913  16.426  0.00  0.00    +0.000 Cl
ENDBRANCH  29  30
ENDBRANCH  26  29
ENDBRANCH   3  23
TORSDOF 6
ENDMDL
MODEL 9
REMARK VINA RESULT:      -7.9      1.181      1.508
REMARK  Name = 
REMARK  7 active torsions:
REMARK  status: ('A' for Active; 'I' for Inactive)
REMARK    1  A    between atoms: C_1  and  C_2
REMARK    2  A    between atoms: C_5  and  N_6
REMARK    3  A    between atoms: C_7  and  C_9
REMARK    4  A    between atoms: C_13  and  N_14
REMARK    5  A    between atoms: C_16  and  N_17
REMARK    6  A    between atoms: N_20  and  C_21
REMARK    7  A    between atoms: C_21  and  C_22
REMARK                            x       y       z     vdW  Elec       q    Type
REMARK                         _______ _______ _______ _____ _____    ______ ____
ROOT
ATOM      1  N   UNL     1       1.146   9.184  19.667  0.00  0.00    +0.000 N 
ATOM      2  C   UNL     1       2.106   8.198  19.562  0.00  0.00    +0.000 A 
ATOM      3  C   UNL     1       2.553   8.228  18.267  0.00  0.00    +0.000 A 
ATOM      4  C   UNL     1       1.786   9.213  17.633  0.00  0.00    +0.000 A 
ATOM      5  N   UNL     1       0.923   9.788  18.469  0.00  0.00    +0.000 NA
ENDROOT
BRANCH   1  10
ATOM      6  C   UNL     1      -1.109  11.077  21.963  0.00  0.00    +0.000 A 
ATOM      7  C   UNL     1      -0.857  10.402  23.167  0.00  0.00    +0.000 A 
ATOM      8  C   UNL     1       0.030   9.331  23.210  0.00  0.00    +0.000 A 
ATOM      9  C   UNL     1       0.678   8.929  22.046  0.00  0.00    +0.000 A 
ATOM     10  C   UNL     1       0.447   9.604  20.833  0.00  0.00    +0.000 A 
ATOM     11  C   UNL     1      -0.454  10.682  20.790  0.00  0.00    +0.000 A 
BRANCH   6  13
ATOM     12  N   UNL     1      -2.608  12.551  23.243  0.00  0.00    +0.000 N 
ATOM     13  C   UNL     1      -1.989  12.272  22.034  0.00  0.00    +0.000 C 
ATOM     14  O   UNL     1      -2.088  12.929  21.002  0.00  0.00    +0.000 OA
ATOM     15  H   UNL     1      -2.383  11.977  24.046  0.00  0.00    +0.000 HD
BRANCH  12  20
ATOM     16  C   UNL     1      -5.936  17.064  24.246  0.00  0.00    +0.000 C 
ATOM     17  C   UNL     1      -5.085  15.861  23.966  0.00  0.00    +0.000 A 
ATOM     18  C   UNL     1      -5.675  14.675  23.562  0.00  0.00    +0.000 A 
ATOM     19  C   UNL     1      -4.871  13.566  23.320  0.00  0.00    +0.000 A 
ATOM     20  C   UNL     1      -3.486  13.643  23.474  0.00  0.00    +0.000 A 
ATOM     21  C   UNL     1      -2.984  14.880  23.882  0.00  0.00    +0.000 A 
ATOM     22  N   UNL     1      -3.745  15.980  24.130  0.00  0.00    +0.000 NA
ENDBRANCH  12  20
ENDBRANCH   6  13
ENDBRANCH   1  10
BRANCH   3  23
ATOM     23  N   UNL     1       3.561   7.467  17.726  0.00  0.00    +0.000 N 
ATOM     24  C   UNL     1       3.471   6.131  17.444  0.00  0.00    +0.000 C 
ATOM     25  O   UNL     1       4.383   5.570  16.840  0.00  0.00    +0.000 OA
ATOM     26  N   UNL     1       2.331   5.496  17.847  0.00  0.00    +0.000 N 
ATOM     27  H   UNL     1       4.301   7.941  17.223  0.00  0.00    +0.000 HD
ATOM     28  H   UNL     1       1.778   5.950  18.561  0.00  0.00    +0.000 HD
BRANCH  26  29
ATOM     29  C   UNL     1       2.197   4.062  17.750  0.00  0.00    +0.000 C 
BRANCH  29  30
ATOM     30  C   UNL     1       2.729   3.355  18.971  0.00  0.00    +0.000 A 
ATOM     31  C   UNL     1       3.934   2.638  18.863  0.00  0.00    +0.000 A 
ATOM     32  C   UNL     1       4.481   1.975  19.963  0.00  0.00    +0.000 A 
ATOM     33  C   UNL     1       3.830   2.013  21.193  0.00  0.00    +0.000 A 
ATOM     34  C   UNL     1       2.634   2.719  21.322  0.00  0.00    +0.000 A 
ATOM     35  C   UNL     1       2.088   3.389  20.221  0.00  0.00    +0.000 A 
ATOM     36 CL   UNL     1       0.606   4.245  20.461  0.00  0.00    +0.000 Cl
ENDBRANCH  29  30
ENDBRANCH  26  29
ENDBRANCH   3  23
TORSDOF 6
ENDMDL
