MODEL 1
REMARK VINA RESULT:      -6.5      0.000      0.000
REMARK  Name = 
REMARK  5 active torsions:
REMARK  status: ('A' for Active; 'I' for Inactive)
REMARK    1  A    between atoms: C_1  and  N_2
REMARK    2  A    between atoms: N_7  and  C_8
REMARK    3  A    between atoms: C_11  and  C_12
REMARK    4  A    between atoms: C_19  and  C_20
REMARK    5  A    between atoms: C_22  and  N_23
REMARK                            x       y       z     vdW  Elec       q    Type
REMARK                         _______ _______ _______ _____ _____    ______ ____
ROOT
ATOM      1  C   UNL     1       4.979   6.979  14.925  0.00  0.00    +0.000 C 
ATOM      2  N   UNL     1       5.366   6.574  16.274  0.00  0.00    +0.000 N 
ATOM      3  C   UNL     1       4.522   6.813  17.342  0.00  0.00    +0.000 A 
ATOM      4  C   UNL     1       4.641   6.103  18.463  0.00  0.00    +0.000 A 
ATOM      5  C   UNL     1       5.833   5.278  18.696  0.00  0.00    +0.000 A 
ATOM      6  O   UNL     1       6.027   4.782  19.801  0.00  0.00    +0.000 OA
ATOM      7  N   UNL     1       6.681   5.132  17.619  0.00  0.00    +0.000 N 
ATOM      8  C   UNL     1       7.859   4.304  17.799  0.00  0.00    +0.000 C 
ATOM      9  C   UNL     1       6.475   5.723  16.378  0.00  0.00    +0.000 A 
ATOM     10  O   UNL     1       7.225   5.505  15.424  0.00  0.00    +0.000 OA
ATOM     11  C   UNL     1       3.515   6.019  19.445  0.00  0.00    +0.000 C 
ATOM     12  C   UNL     1       2.567   7.209  19.324  0.00  0.00    +0.000 C 
ATOM     13  C   UNL     1       2.607   8.024  18.254  0.00  0.00    +0.000 C 
ATOM     14  O   UNL     1       3.479   7.735  17.182  0.00  0.00    +0.000 OA
ENDROOT
BRANCH  11  15
ATOM     15  C   UNL     1       2.756   4.697  19.207  0.00  0.00    +0.000 A 
ATOM     16  C   UNL     1       2.458   4.297  17.879  0.00  0.00    +0.000 A 
ATOM     17  C   UNL     1       1.791   3.104  17.609  0.00  0.00    +0.000 A 
ATOM     18  C   UNL     1       1.400   2.280  18.656  0.00  0.00    +0.000 A 
ATOM     19  C   UNL     1       1.672   2.655  19.971  0.00  0.00    +0.000 A 
ATOM     20  C   UNL     1       2.342   3.852  20.248  0.00  0.00    +0.000 A 
ATOM     21 CL   UNL     1       2.608   4.236  21.911  0.00  0.00    +0.000 Cl
ENDBRANCH  11  15
BRANCH  13  22
ATOM     22  N   UNL     1       1.795   9.105  18.045  0.00  0.00    +0.000 N 
ATOM     23  H   UNL     1       2.126  10.007  18.378  0.00  0.00    +0.000 HD
ATOM     24  H   UNL     1       0.806   8.931  18.195  0.00  0.00    +0.000 HD
ENDBRANCH  13  22
BRANCH  12  25
ATOM     25  C   UNL     1       1.396   7.096  20.287  0.00  0.00    +0.000 C 
ATOM     26  N   UNL     1       0.426   7.001  21.086  0.00  0.00    +0.000 NA
ENDBRANCH  12  25
TORSDOF 3
ENDMDL
MODEL 2
REMARK VINA RESULT:      -6.1      2.961      5.792
REMARK  Name = 
REMARK  5 active torsions:
REMARK  status: ('A' for Active; 'I' for Inactive)
REMARK    1  A    between atoms: C_1  and  N_2
REMARK    2  A    between atoms: N_7  and  C_8
REMARK    3  A    between atoms: C_11  and  C_12
REMARK    4  A    between atoms: C_19  and  C_20
REMARK    5  A    between atoms: C_22  and  N_23
REMARK                            x       y       z     vdW  Elec       q    Type
REMARK                         _______ _______ _______ _____ _____    ______ ____
ROOT
ATOM      1  C   UNL     1       4.868   1.800  20.490  0.00  0.00    +0.000 C 
ATOM      2  N   UNL     1       4.163   2.931  19.893  0.00  0.00    +0.000 N 
ATOM      3  C   UNL     1       4.864   4.046  19.474  0.00  0.00    +0.000 A 
ATOM      4  C   UNL     1       4.335   4.873  18.574  0.00  0.00    +0.000 A 
ATOM      5  C   UNL     1       2.907   4.786  18.236  0.00  0.00    +0.000 A 
ATOM      6  O   UNL     1       2.386   5.665  17.556  0.00  0.00    +0.000 OA
ATOM      7  N   UNL     1       2.237   3.693  18.740  0.00  0.00    +0.000 N 
ATOM      8  C   UNL     1       0.831   3.557  18.410  0.00  0.00    +0.000 C 
ATOM      9  C   UNL     1       2.824   2.718  19.538  0.00  0.00    +0.000 A 
ATOM     10  O   UNL     1       2.199   1.720  19.907  0.00  0.00    +0.000 OA
ATOM     11  C   UNL     1       5.196   5.811  17.788  0.00  0.00    +0.000 C 
ATOM     12  C   UNL     1       6.508   6.113  18.507  0.00  0.00    +0.000 C 
ATOM     13  C   UNL     1       6.919   5.364  19.546  0.00  0.00    +0.000 C 
ATOM     14  O   UNL     1       6.176   4.228  19.933  0.00  0.00    +0.000 OA
ENDROOT
BRANCH  11  15
ATOM     15  C   UNL     1       5.469   5.183  16.406  0.00  0.00    +0.000 A 
ATOM     16  C   UNL     1       5.992   3.866  16.333  0.00  0.00    +0.000 A 
ATOM     17  C   UNL     1       6.239   3.246  15.109  0.00  0.00    +0.000 A 
ATOM     18  C   UNL     1       5.977   3.925  13.927  0.00  0.00    +0.000 A 
ATOM     19  C   UNL     1       5.472   5.224  13.971  0.00  0.00    +0.000 A 
ATOM     20  C   UNL     1       5.221   5.851  15.197  0.00  0.00    +0.000 A 
ATOM     21 CL   UNL     1       4.620   7.470  15.143  0.00  0.00    +0.000 Cl
ENDBRANCH  11  15
BRANCH  13  22
ATOM     22  N   UNL     1       8.081   5.543  20.247  0.00  0.00    +0.000 N 
ATOM     23  H   UNL     1       8.940   5.210  19.817  0.00  0.00    +0.000 HD
ATOM     24  H   UNL     1       8.008   5.371  21.244  0.00  0.00    +0.000 HD
ENDBRANCH  13  22
BRANCH  12  25
ATOM     25  C   UNL     1       7.403   7.025  17.685  0.00  0.00    +0.000 C 
ATOM     26  N   UNL     1       8.145   7.782  17.003  0.00  0.00    +0.000 NA
ENDBRANCH  12  25
TORSDOF 3
ENDMDL
MODEL 3
REMARK VINA RESULT:      -5.9      6.986      9.879
REMARK  Name = 
REMARK  5 active torsions:
REMARK  status: ('A' for Active; 'I' for Inactive)
REMARK    1  A    between atoms: C_1  and  N_2
REMARK    2  A    between atoms: N_7  and  C_8
REMARK    3  A    between atoms: C_11  and  C_12
REMARK    4  A    between atoms: C_19  and  C_20
REMARK    5  A    between atoms: C_22  and  N_23
REMARK                            x       y       z     vdW  Elec       q    Type
REMARK                         _______ _______ _______ _____ _____    ______ ____
ROOT
ATOM      1  C   UNL     1      -4.895  13.641  21.639  0.00  0.00    +0.000 C 
ATOM      2  N   UNL     1      -4.086  13.183  20.512  0.00  0.00    +0.000 N 
ATOM      3  C   UNL     1      -2.723  13.407  20.498  0.00  0.00    +0.000 A 
ATOM      4  C   UNL     1      -1.928  12.659  19.735  0.00  0.00    +0.000 A 
ATOM      5  C   UNL     1      -2.498  11.798  18.689  0.00  0.00    +0.000 A 
ATOM      6  O   UNL     1      -1.760  11.263  17.869  0.00  0.00    +0.000 OA
ATOM      7  N   UNL     1      -3.869  11.667  18.703  0.00  0.00    +0.000 N 
ATOM      8  C   UNL     1      -4.472  10.807  17.702  0.00  0.00    +0.000 C 
ATOM      9  C   UNL     1      -4.705  12.303  19.614  0.00  0.00    +0.000 A 
ATOM     10  O   UNL     1      -5.921  12.098  19.630  0.00  0.00    +0.000 OA
ATOM     11  C   UNL     1      -0.459  12.569  20.006  0.00  0.00    +0.000 C 
ATOM     12  C   UNL     1       0.050  13.785  20.777  0.00  0.00    +0.000 C 
ATOM     13  C   UNL     1      -0.803  14.632  21.379  0.00  0.00    +0.000 C 
ATOM     14  O   UNL     1      -2.188  14.358  21.377  0.00  0.00    +0.000 OA
ENDROOT
BRANCH  11  15
ATOM     15  C   UNL     1      -0.186  11.274  20.798  0.00  0.00    +0.000 A 
ATOM     16  C   UNL     1      -0.731  11.128  22.100  0.00  0.00    +0.000 A 
ATOM     17  C   UNL     1      -0.530   9.971  22.849  0.00  0.00    +0.000 A 
ATOM     18  C   UNL     1       0.224   8.931  22.323  0.00  0.00    +0.000 A 
ATOM     19  C   UNL     1       0.780   9.053  21.051  0.00  0.00    +0.000 A 
ATOM     20  C   UNL     1       0.580  10.213  20.293  0.00  0.00    +0.000 A 
ATOM     21 CL   UNL     1       1.332  10.274  18.739  0.00  0.00    +0.000 Cl
ENDBRANCH  11  15
BRANCH  13  22
ATOM     22  N   UNL     1      -0.448  15.739  22.103  0.00  0.00    +0.000 N 
ATOM     23  H   UNL     1      -0.876  16.623  21.840  0.00  0.00    +0.000 HD
ATOM     24  H   UNL     1       0.536  15.794  22.342  0.00  0.00    +0.000 HD
ENDBRANCH  13  22
BRANCH  12  25
ATOM     25  C   UNL     1       1.531  13.668  21.096  0.00  0.00    +0.000 C 
ATOM     26  N   UNL     1       2.760  13.570  21.361  0.00  0.00    +0.000 NA
ENDBRANCH  12  25
TORSDOF 3
ENDMDL
MODEL 4
REMARK VINA RESULT:      -5.9      7.598     10.832
REMARK  Name = 
REMARK  5 active torsions:
REMARK  status: ('A' for Active; 'I' for Inactive)
REMARK    1  A    between atoms: C_1  and  N_2
REMARK    2  A    between atoms: N_7  and  C_8
REMARK    3  A    between atoms: C_11  and  C_12
REMARK    4  A    between atoms: C_19  and  C_20
REMARK    5  A    between atoms: C_22  and  N_23
REMARK                            x       y       z     vdW  Elec       q    Type
REMARK                         _______ _______ _______ _____ _____    ______ ____
ROOT
ATOM      1  C   UNL     1      -5.023  13.774  23.769  0.00  0.00    +0.000 C 
ATOM      2  N   UNL     1      -4.611  13.480  22.399  0.00  0.00    +0.000 N 
ATOM      3  C   UNL     1      -3.301  13.678  22.007  0.00  0.00    +0.000 A 
ATOM      4  C   UNL     1      -2.815  13.042  20.943  0.00  0.00    +0.000 A 
ATOM      5  C   UNL     1      -3.721  12.363  20.007  0.00  0.00    +0.000 A 
ATOM      6  O   UNL     1      -3.292  11.946  18.936  0.00  0.00    +0.000 OA
ATOM      7  N   UNL     1      -5.032  12.256  20.413  0.00  0.00    +0.000 N 
ATOM      8  C   UNL     1      -5.956  11.570  19.529  0.00  0.00    +0.000 C 
ATOM      9  C   UNL     1      -5.521  12.760  21.613  0.00  0.00    +0.000 A 
ATOM     10  O   UNL     1      -6.690  12.577  21.964  0.00  0.00    +0.000 OA
ATOM     11  C   UNL     1      -1.340  12.885  20.746  0.00  0.00    +0.000 C 
ATOM     12  C   UNL     1      -0.551  13.958  21.491  0.00  0.00    +0.000 C 
ATOM     13  C   UNL     1      -1.133  14.719  22.435  0.00  0.00    +0.000 C 
ATOM     14  O   UNL     1      -2.472  14.473  22.810  0.00  0.00    +0.000 OA
ENDROOT
BRANCH  11  15
ATOM     15  C   UNL     1      -0.929  11.479  21.228  0.00  0.00    +0.000 A 
ATOM     16  C   UNL     1      -1.111  11.132  22.592  0.00  0.00    +0.000 A 
ATOM     17  C   UNL     1      -0.773   9.869  23.075  0.00  0.00    +0.000 A 
ATOM     18  C   UNL     1      -0.240   8.920  22.212  0.00  0.00    +0.000 A 
ATOM     19  C   UNL     1      -0.042   9.239  20.870  0.00  0.00    +0.000 A 
ATOM     20  C   UNL     1      -0.380  10.506  20.379  0.00  0.00    +0.000 A 
ATOM     21 CL   UNL     1      -0.071  10.808  18.706  0.00  0.00    +0.000 Cl
ENDBRANCH  11  15
BRANCH  13  22
ATOM     22  N   UNL     1      -0.512  15.694  23.167  0.00  0.00    +0.000 N 
ATOM     23  H   UNL     1      -1.032  16.552  23.335  0.00  0.00    +0.000 HD
ATOM     24  H   UNL     1       0.472  15.826  22.955  0.00  0.00    +0.000 HD
ENDBRANCH  13  22
BRANCH  12  25
ATOM     25  C   UNL     1       0.948  13.767  21.331  0.00  0.00    +0.000 C 
ATOM     26  N   UNL     1       2.192  13.608  21.198  0.00  0.00    +0.000 NA
ENDBRANCH  12  25
TORSDOF 3
ENDMDL
MODEL 5
REMARK VINA RESULT:      -5.7      7.421      9.882
REMARK  Name = 
REMARK  5 active torsions:
REMARK  status: ('A' for Active; 'I' for Inactive)
REMARK    1  A    between atoms: C_1  and  N_2
REMARK    2  A    between atoms: N_7  and  C_8
REMARK    3  A    between atoms: C_11  and  C_12
REMARK    4  A    between atoms: C_19  and  C_20
REMARK    5  A    between atoms: C_22  and  N_23
REMARK                            x       y       z     vdW  Elec       q    Type
REMARK                         _______ _______ _______ _____ _____    ______ ____
ROOT
ATOM      1  C   UNL     1       1.238  12.531  19.153  0.00  0.00    +0.000 C 
ATOM      2  N   UNL     1       0.733  11.941  20.389  0.00  0.00    +0.000 N 
ATOM      3  C   UNL     1       0.204  12.746  21.380  0.00  0.00    +0.000 A 
ATOM      4  C   UNL     1      -0.623  12.235  22.290  0.00  0.00    +0.000 A 
ATOM      5  C   UNL     1      -0.754  10.779  22.439  0.00  0.00    +0.000 A 
ATOM      6  O   UNL     1      -1.365  10.315  23.397  0.00  0.00    +0.000 OA
ATOM      7  N   UNL     1      -0.146  10.019  21.464  0.00  0.00    +0.000 N 
ATOM      8  C   UNL     1      -0.272   8.577  21.560  0.00  0.00    +0.000 C 
ATOM      9  C   UNL     1       0.573  10.548  20.399  0.00  0.00    +0.000 A 
ATOM     10  O   UNL     1       1.040   9.829  19.511  0.00  0.00    +0.000 OA
ATOM     11  C   UNL     1      -1.535  13.115  23.085  0.00  0.00    +0.000 C 
ATOM     12  C   UNL     1      -1.013  14.548  23.164  0.00  0.00    +0.000 C 
ATOM     13  C   UNL     1      -0.033  14.976  22.348  0.00  0.00    +0.000 C 
ATOM     14  O   UNL     1       0.470  14.121  21.343  0.00  0.00    +0.000 OA
ENDROOT
BRANCH  11  15
ATOM     15  C   UNL     1      -2.933  13.085  22.435  0.00  0.00    +0.000 A 
ATOM     16  C   UNL     1      -3.058  13.326  21.043  0.00  0.00    +0.000 A 
ATOM     17  C   UNL     1      -4.296  13.292  20.404  0.00  0.00    +0.000 A 
ATOM     18  C   UNL     1      -5.443  13.021  21.138  0.00  0.00    +0.000 A 
ATOM     19  C   UNL     1      -5.350  12.791  22.509  0.00  0.00    +0.000 A 
ATOM     20  C   UNL     1      -4.109  12.823  23.156  0.00  0.00    +0.000 A 
ATOM     21 CL   UNL     1      -4.105  12.549  24.861  0.00  0.00    +0.000 Cl
ENDBRANCH  11  15
BRANCH  13  22
ATOM     22  N   UNL     1       0.494  16.239  22.330  0.00  0.00    +0.000 N 
ATOM     23  H   UNL     1       1.310  16.411  22.910  0.00  0.00    +0.000 HD
ATOM     24  H   UNL     1      -0.192  16.987  22.325  0.00  0.00    +0.000 HD
ENDBRANCH  13  22
BRANCH  12  25
ATOM     25  C   UNL     1      -1.966  15.453  23.928  0.00  0.00    +0.000 C 
ATOM     26  N   UNL     1      -2.756  16.203  24.560  0.00  0.00    +0.000 NA
ENDBRANCH  12  25
TORSDOF 3
ENDMDL
MODEL 6
REMARK VINA RESULT:      -5.6      6.002      8.838
REMARK  Name = 
REMARK  5 active torsions:
REMARK  status: ('A' for Active; 'I' for Inactive)
REMARK    1  A    between atoms: C_1  and  N_2
REMARK    2  A    between atoms: N_7  and  C_8
REMARK    3  A    between atoms: C_11  and  C_12
REMARK    4  A    between atoms: C_19  and  C_20
REMARK    5  A    between atoms: C_22  and  N_23
REMARK                            x       y       z     vdW  Elec       q    Type
REMARK                         _______ _______ _______ _____ _____    ______ ____
ROOT
ATOM      1  C   UNL     1      -2.019  13.836  23.047  0.00  0.00    +0.000 C 
ATOM      2  N   UNL     1      -0.842  13.712  22.191  0.00  0.00    +0.000 N 
ATOM      3  C   UNL     1      -0.237  12.483  22.014  0.00  0.00    +0.000 A 
ATOM      4  C   UNL     1       0.535  12.262  20.951  0.00  0.00    +0.000 A 
ATOM      5  C   UNL     1       0.990  13.383  20.119  0.00  0.00    +0.000 A 
ATOM      6  O   UNL     1       1.849  13.199  19.261  0.00  0.00    +0.000 OA
ATOM      7  N   UNL     1       0.408  14.603  20.385  0.00  0.00    +0.000 N 
ATOM      8  C   UNL     1       0.812  15.733  19.570  0.00  0.00    +0.000 C 
ATOM      9  C   UNL     1      -0.539  14.814  21.380  0.00  0.00    +0.000 A 
ATOM     10  O   UNL     1      -1.084  15.910  21.533  0.00  0.00    +0.000 OA
ATOM     11  C   UNL     1       0.843  10.869  20.498  0.00  0.00    +0.000 C 
ATOM     12  C   UNL     1       0.703   9.860  21.634  0.00  0.00    +0.000 C 
ATOM     13  C   UNL     1       0.078  10.185  22.780  0.00  0.00    +0.000 C 
ATOM     14  O   UNL     1      -0.535  11.450  22.912  0.00  0.00    +0.000 OA
ENDROOT
BRANCH  11  15
ATOM     15  C   UNL     1      -0.107  10.511  19.337  0.00  0.00    +0.000 A 
ATOM     16  C   UNL     1      -1.482  10.848  19.435  0.00  0.00    +0.000 A 
ATOM     17  C   UNL     1      -2.378  10.564  18.406  0.00  0.00    +0.000 A 
ATOM     18  C   UNL     1      -1.929   9.930  17.256  0.00  0.00    +0.000 A 
ATOM     19  C   UNL     1      -0.585   9.578  17.138  0.00  0.00    +0.000 A 
ATOM     20  C   UNL     1       0.320   9.862  18.168  0.00  0.00    +0.000 A 
ATOM     21 CL   UNL     1       1.957   9.363  17.934  0.00  0.00    +0.000 Cl
ENDBRANCH  11  15
BRANCH  13  22
ATOM     22  N   UNL     1      -0.110   9.352  23.849  0.00  0.00    +0.000 N 
ATOM     23  H   UNL     1       0.717   9.057  24.361  0.00  0.00    +0.000 HD
ATOM     24  H   UNL     1      -0.807   8.627  23.707  0.00  0.00    +0.000 HD
ENDBRANCH  13  22
BRANCH  12  25
ATOM     25  C   UNL     1       0.967   8.440  21.161  0.00  0.00    +0.000 C 
ATOM     26  N   UNL     1       1.184   7.262  20.768  0.00  0.00    +0.000 NA
ENDBRANCH  12  25
TORSDOF 3
ENDMDL
MODEL 7
REMARK VINA RESULT:      -5.6      5.921      8.559
REMARK  Name = 
REMARK  5 active torsions:
REMARK  status: ('A' for Active; 'I' for Inactive)
REMARK    1  A    between atoms: C_1  and  N_2
REMARK    2  A    between atoms: N_7  and  C_8
REMARK    3  A    between atoms: C_11  and  C_12
REMARK    4  A    between atoms: C_19  and  C_20
REMARK    5  A    between atoms: C_22  and  N_23
REMARK                            x       y       z     vdW  Elec       q    Type
REMARK                         _______ _______ _______ _____ _____    ______ ____
ROOT
ATOM      1  C   UNL     1       1.678   8.668  18.779  0.00  0.00    +0.000 C 
ATOM      2  N   UNL     1       1.316   9.494  19.929  0.00  0.00    +0.000 N 
ATOM      3  C   UNL     1       1.135  10.855  19.779  0.00  0.00    +0.000 A 
ATOM      4  C   UNL     1       0.416  11.539  20.667  0.00  0.00    +0.000 A 
ATOM      5  C   UNL     1       0.057  10.932  21.956  0.00  0.00    +0.000 A 
ATOM      6  O   UNL     1      -0.435  11.625  22.841  0.00  0.00    +0.000 OA
ATOM      7  N   UNL     1       0.325   9.587  22.080  0.00  0.00    +0.000 N 
ATOM      8  C   UNL     1      -0.036   8.942  23.329  0.00  0.00    +0.000 C 
ATOM      9  C   UNL     1       0.915   8.814  21.087  0.00  0.00    +0.000 A 
ATOM     10  O   UNL     1       1.070   7.597  21.219  0.00  0.00    +0.000 OA
ATOM     11  C   UNL     1      -0.158  12.879  20.327  0.00  0.00    +0.000 C 
ATOM     12  C   UNL     1       0.618  13.559  19.202  0.00  0.00    +0.000 C 
ATOM     13  C   UNL     1       1.487  12.869  18.442  0.00  0.00    +0.000 C 
ATOM     14  O   UNL     1       1.631  11.476  18.624  0.00  0.00    +0.000 OA
ENDROOT
BRANCH  11  15
ATOM     15  C   UNL     1      -1.636  12.691  19.929  0.00  0.00    +0.000 A 
ATOM     16  C   UNL     1      -1.956  11.877  18.812  0.00  0.00    +0.000 A 
ATOM     17  C   UNL     1      -3.276  11.660  18.422  0.00  0.00    +0.000 A 
ATOM     18  C   UNL     1      -4.311  12.253  19.131  0.00  0.00    +0.000 A 
ATOM     19  C   UNL     1      -4.024  13.066  20.227  0.00  0.00    +0.000 A 
ATOM     20  C   UNL     1      -2.699  13.287  20.624  0.00  0.00    +0.000 A 
ATOM     21 CL   UNL     1      -2.449  14.330  21.978  0.00  0.00    +0.000 Cl
ENDBRANCH  11  15
BRANCH  13  22
ATOM     22  N   UNL     1       2.218  13.380  17.404  0.00  0.00    +0.000 N 
ATOM     23  H   UNL     1       3.101  12.924  17.187  0.00  0.00    +0.000 HD
ATOM     24  H   UNL     1       2.238  14.394  17.355  0.00  0.00    +0.000 HD
ENDBRANCH  13  22
BRANCH  12  25
ATOM     25  C   UNL     1       0.003  14.896  18.823  0.00  0.00    +0.000 C 
ATOM     26  N   UNL     1      -0.508  16.005  18.510  0.00  0.00    +0.000 NA
ENDBRANCH  12  25
TORSDOF 3
ENDMDL
MODEL 8
REMARK VINA RESULT:      -5.5      8.715     11.800
REMARK  Name = 
REMARK  5 active torsions:
REMARK  status: ('A' for Active; 'I' for Inactive)
REMARK    1  A    between atoms: C_1  and  N_2
REMARK    2  A    between atoms: N_7  and  C_8
REMARK    3  A    between atoms: C_11  and  C_12
REMARK    4  A    between atoms: C_19  and  C_20
REMARK    5  A    between atoms: C_22  and  N_23
REMARK                            x       y       z     vdW  Elec       q    Type
REMARK                         _______ _______ _______ _____ _____    ______ ____
ROOT
ATOM      1  C   UNL     1      -6.440  13.165  23.842  0.00  0.00    +0.000 C 
ATOM      2  N   UNL     1      -5.969  13.059  22.464  0.00  0.00    +0.000 N 
ATOM      3  C   UNL     1      -4.795  13.679  22.079  0.00  0.00    +0.000 A 
ATOM      4  C   UNL     1      -4.140  13.264  20.996  0.00  0.00    +0.000 A 
ATOM      5  C   UNL     1      -4.789  12.358  20.039  0.00  0.00    +0.000 A 
ATOM      6  O   UNL     1      -4.258  12.132  18.956  0.00  0.00    +0.000 OA
ATOM      7  N   UNL     1      -5.993  11.824  20.441  0.00  0.00    +0.000 N 
ATOM      8  C   UNL     1      -6.656  10.904  19.535  0.00  0.00    +0.000 C 
ATOM      9  C   UNL     1      -6.606  12.108  21.655  0.00  0.00    +0.000 A 
ATOM     10  O   UNL     1      -7.651  11.550  22.000  0.00  0.00    +0.000 OA
ATOM     11  C   UNL     1      -2.695  13.595  20.795  0.00  0.00    +0.000 C 
ATOM     12  C   UNL     1      -2.285  14.842  21.574  0.00  0.00    +0.000 C 
ATOM     13  C   UNL     1      -3.072  15.348  22.540  0.00  0.00    +0.000 C 
ATOM     14  O   UNL     1      -4.257  14.674  22.907  0.00  0.00    +0.000 OA
ENDROOT
BRANCH  11  15
ATOM     15  C   UNL     1      -1.850  12.381  21.235  0.00  0.00    +0.000 A 
ATOM     16  C   UNL     1      -1.896  11.956  22.587  0.00  0.00    +0.000 A 
ATOM     17  C   UNL     1      -1.167  10.855  23.031  0.00  0.00    +0.000 A 
ATOM     18  C   UNL     1      -0.367  10.152  22.139  0.00  0.00    +0.000 A 
ATOM     19  C   UNL     1      -0.296  10.556  20.807  0.00  0.00    +0.000 A 
ATOM     20  C   UNL     1      -1.027  11.661  20.355  0.00  0.00    +0.000 A 
ATOM     21 CL   UNL     1      -0.849  12.093  18.693  0.00  0.00    +0.000 Cl
ENDBRANCH  11  15
BRANCH  13  22
ATOM     22  N   UNL     1      -2.790  16.449  23.303  0.00  0.00    +0.000 N 
ATOM     23  H   UNL     1      -1.955  16.977  23.066  0.00  0.00    +0.000 HD
ATOM     24  H   UNL     1      -2.955  16.333  24.297  0.00  0.00    +0.000 HD
ENDBRANCH  13  22
BRANCH  12  25
ATOM     25  C   UNL     1      -0.805  15.147  21.409  0.00  0.00    +0.000 C 
ATOM     26  N   UNL     1       0.422  15.399  21.272  0.00  0.00    +0.000 NA
ENDBRANCH  12  25
TORSDOF 3
ENDMDL
MODEL 9
REMARK VINA RESULT:      -5.5      8.087     11.147
REMARK  Name = 
REMARK  5 active torsions:
REMARK  status: ('A' for Active; 'I' for Inactive)
REMARK    1  A    between atoms: C_1  and  N_2
REMARK    2  A    between atoms: N_7  and  C_8
REMARK    3  A    between atoms: C_11  and  C_12
REMARK    4  A    between atoms: C_19  and  C_20
REMARK    5  A    between atoms: C_22  and  N_23
REMARK                            x       y       z     vdW  Elec       q    Type
REMARK                         _______ _______ _______ _____ _____    ______ ____
ROOT
ATOM      1  C   UNL     1      -1.850  11.624  19.668  0.00  0.00    +0.000 C 
ATOM      2  N   UNL     1      -0.981  12.390  20.556  0.00  0.00    +0.000 N 
ATOM      3  C   UNL     1       0.237  12.863  20.104  0.00  0.00    +0.000 A 
ATOM      4  C   UNL     1       0.831  13.884  20.717  0.00  0.00    +0.000 A 
ATOM      5  C   UNL     1       0.365  14.329  22.038  0.00  0.00    +0.000 A 
ATOM      6  O   UNL     1       1.029  15.137  22.680  0.00  0.00    +0.000 OA
ATOM      7  N   UNL     1      -0.817  13.773  22.475  0.00  0.00    +0.000 N 
ATOM      8  C   UNL     1      -1.326  14.203  23.764  0.00  0.00    +0.000 C 
ATOM      9  C   UNL     1      -1.549  12.832  21.759  0.00  0.00    +0.000 A 
ATOM     10  O   UNL     1      -2.638  12.416  22.161  0.00  0.00    +0.000 OA
ATOM     11  C   UNL     1       1.889  14.688  20.029  0.00  0.00    +0.000 C 
ATOM     12  C   UNL     1       2.564  13.897  18.912  0.00  0.00    +0.000 C 
ATOM     13  C   UNL     1       2.027  12.755  18.446  0.00  0.00    +0.000 C 
ATOM     14  O   UNL     1       0.775  12.317  18.931  0.00  0.00    +0.000 OA
ENDROOT
BRANCH  11  15
ATOM     15  C   UNL     1       1.241  15.970  19.468  0.00  0.00    +0.000 A 
ATOM     16  C   UNL     1       0.085  15.864  18.651  0.00  0.00    +0.000 A 
ATOM     17  C   UNL     1      -0.549  16.993  18.135  0.00  0.00    +0.000 A 
ATOM     18  C   UNL     1      -0.044  18.256  18.413  0.00  0.00    +0.000 A 
ATOM     19  C   UNL     1       1.096  18.387  19.204  0.00  0.00    +0.000 A 
ATOM     20  C   UNL     1       1.737  17.257  19.727  0.00  0.00    +0.000 A 
ATOM     21 CL   UNL     1       3.157  17.527  20.673  0.00  0.00    +0.000 Cl
ENDBRANCH  11  15
BRANCH  13  22
ATOM     22  N   UNL     1       2.545  11.982  17.442  0.00  0.00    +0.000 N 
ATOM     23  H   UNL     1       1.925  11.741  16.674  0.00  0.00    +0.000 HD
ATOM     24  H   UNL     1       3.153  11.232  17.753  0.00  0.00    +0.000 HD
ENDBRANCH  13  22
BRANCH  12  25
ATOM     25  C   UNL     1       3.603  14.731  18.180  0.00  0.00    +0.000 C 
ATOM     26  N   UNL     1       4.464  15.424  17.574  0.00  0.00    +0.000 NA
ENDBRANCH  12  25
TORSDOF 3
ENDMDL
