MODEL 1
REMARK VINA RESULT:      -8.3      0.000      0.000
REMARK  Name = 
REMARK  4 active torsions:
REMARK  status: ('A' for Active; 'I' for Inactive)
REMARK    1  A    between atoms: S_2  and  N_4
REMARK    2  A    between atoms: S_2  and  C_24
REMARK    3  A    between atoms: N_4  and  C_5
REMARK    4  A    between atoms: C_8  and  N_9
REMARK                            x       y       z     vdW  Elec       q    Type
REMARK                         _______ _______ _______ _____ _____    ______ ____
ROOT
ATOM      1  C   UNL     1       2.386   6.213  18.791  0.00  0.00    +0.000 A 
ATOM      2  C   UNL     1       2.543   7.209  17.829  0.00  0.00    +0.000 A 
ATOM      3  C   UNL     1       2.255   8.547  18.139  0.00  0.00    +0.000 A 
ATOM      4  C   UNL     1       1.767   8.901  19.403  0.00  0.00    +0.000 A 
ATOM      5  C   UNL     1       1.671   7.895  20.374  0.00  0.00    +0.000 A 
ATOM      6  C   UNL     1       1.966   6.564  20.071  0.00  0.00    +0.000 A 
ENDROOT
BRANCH   4   7
ATOM      7  N   UNL     1       1.491  10.259  19.707  0.00  0.00    +0.000 N 
ATOM      8  C   UNL     1       0.194  10.827  19.682  0.00  0.00    +0.000 A 
ATOM      9  C   UNL     1      -0.101  11.902  20.485  0.00  0.00    +0.000 A 
ATOM     10  C   UNL     1      -1.383  12.369  20.416  0.00  0.00    +0.000 A 
ATOM     11  N   UNL     1      -2.306  11.866  19.576  0.00  0.00    +0.000 NA
ATOM     12  C   UNL     1      -1.932  10.861  18.777  0.00  0.00    +0.000 A 
ATOM     13  N   UNL     1      -2.841  10.339  17.890  0.00  0.00    +0.000 N 
ATOM     14  C   UNL     1      -4.186  10.895  17.810  0.00  0.00    +0.000 C 
ATOM     15  C   UNL     1      -4.462  11.487  16.412  0.00  0.00    +0.000 C 
ATOM     16  N   UNL     1      -4.156  10.558  15.308  0.00  0.00    +0.000 NA
ATOM     17  C   UNL     1      -2.744  10.141  15.414  0.00  0.00    +0.000 C 
ATOM     18  C   UNL     1      -2.388   9.505  16.778  0.00  0.00    +0.000 C 
ATOM     19  N   UNL     1      -0.707  10.331  18.820  0.00  0.00    +0.000 NA
ATOM     20  H   UNL     1       2.097  10.869  19.162  0.00  0.00    +0.000 HD
ATOM     21  H   UNL     1      -4.298  11.036  14.420  0.00  0.00    +0.000 HD
ENDBRANCH   4   7
BRANCH   1  22
ATOM     22  N   UNL     1       2.748   4.862  18.480  0.00  0.00    +0.000 N 
ATOM     23  H   UNL     1       2.138   4.152  18.882  0.00  0.00    +0.000 HD
BRANCH  22  25
ATOM     24  O   UNL     1       4.976   5.551  19.540  0.00  0.00    +0.000 OA
ATOM     25  S   UNL     1       4.374   4.458  18.803  0.00  0.00    +0.000 S 
ATOM     26  O   UNL     1       4.454   3.102  19.280  0.00  0.00    +0.000 OA
BRANCH  25  27
ATOM     27  C   UNL     1       5.237   4.455  17.240  0.00  0.00    +0.000 A 
ATOM     28  C   UNL     1       4.800   4.311  15.938  0.00  0.00    +0.000 A 
ATOM     29  C   UNL     1       5.856   4.437  14.995  0.00  0.00    +0.000 A 
ATOM     30  C   UNL     1       7.067   4.672  15.605  0.00  0.00    +0.000 A 
ATOM     31  S   UNL     1       6.928   4.723  17.309  0.00  0.00    +0.000 S 
ENDBRANCH  25  27
ENDBRANCH  22  25
ENDBRANCH   1  22
TORSDOF 4
ENDMDL
MODEL 2
REMARK VINA RESULT:      -8.2      2.233      2.928
REMARK  Name = 
REMARK  4 active torsions:
REMARK  status: ('A' for Active; 'I' for Inactive)
REMARK    1  A    between atoms: S_2  and  N_4
REMARK    2  A    between atoms: S_2  and  C_24
REMARK    3  A    between atoms: N_4  and  C_5
REMARK    4  A    between atoms: C_8  and  N_9
REMARK                            x       y       z     vdW  Elec       q    Type
REMARK                         _______ _______ _______ _____ _____    ______ ____
ROOT
ATOM      1  C   UNL     1       2.758   6.656  18.202  0.00  0.00    +0.000 A 
ATOM      2  C   UNL     1       2.785   7.781  17.379  0.00  0.00    +0.000 A 
ATOM      3  C   UNL     1       2.354   9.026  17.865  0.00  0.00    +0.000 A 
ATOM      4  C   UNL     1       1.853   9.153  19.167  0.00  0.00    +0.000 A 
ATOM      5  C   UNL     1       1.889   8.024  19.996  0.00  0.00    +0.000 A 
ATOM      6  C   UNL     1       2.326   6.787  19.519  0.00  0.00    +0.000 A 
ENDROOT
BRANCH   4   7
ATOM      7  N   UNL     1       1.432  10.420  19.649  0.00  0.00    +0.000 N 
ATOM      8  C   UNL     1       0.082  10.844  19.682  0.00  0.00    +0.000 A 
ATOM      9  C   UNL     1      -0.328  11.761  20.619  0.00  0.00    +0.000 A 
ATOM     10  C   UNL     1      -1.652  12.094  20.594  0.00  0.00    +0.000 A 
ATOM     11  N   UNL     1      -2.515  11.616  19.679  0.00  0.00    +0.000 NA
ATOM     12  C   UNL     1      -2.035  10.775  18.756  0.00  0.00    +0.000 A 
ATOM     13  N   UNL     1      -2.882  10.286  17.792  0.00  0.00    +0.000 N 
ATOM     14  C   UNL     1      -4.279  10.702  17.768  0.00  0.00    +0.000 C 
ATOM     15  C   UNL     1      -4.616  11.447  16.460  0.00  0.00    +0.000 C 
ATOM     16  N   UNL     1      -4.210  10.716  15.245  0.00  0.00    +0.000 NA
ATOM     17  C   UNL     1      -2.762  10.442  15.315  0.00  0.00    +0.000 C 
ATOM     18  C   UNL     1      -2.341   9.666  16.584  0.00  0.00    +0.000 C 
ATOM     19  N   UNL     1      -0.760  10.378  18.746  0.00  0.00    +0.000 NA
ATOM     20  H   UNL     1       1.969  11.159  19.202  0.00  0.00    +0.000 HD
ATOM     21  H   UNL     1      -4.403  11.294  14.428  0.00  0.00    +0.000 HD
ENDBRANCH   4   7
BRANCH   1  22
ATOM     22  N   UNL     1       3.263   5.408  17.713  0.00  0.00    +0.000 N 
ATOM     23  H   UNL     1       3.721   5.457  16.805  0.00  0.00    +0.000 HD
BRANCH  22  25
ATOM     24  O   UNL     1       0.828   4.671  17.418  0.00  0.00    +0.000 OA
ATOM     25  S   UNL     1       2.137   4.125  17.711  0.00  0.00    +0.000 S 
ATOM     26  O   UNL     1       2.668   3.013  16.965  0.00  0.00    +0.000 OA
BRANCH  25  27
ATOM     27  C   UNL     1       2.004   3.538  19.391  0.00  0.00    +0.000 A 
ATOM     28  C   UNL     1       0.926   3.398  20.244  0.00  0.00    +0.000 A 
ATOM     29  C   UNL     1       1.292   2.823  21.490  0.00  0.00    +0.000 A 
ATOM     30  C   UNL     1       2.639   2.541  21.553  0.00  0.00    +0.000 A 
ATOM     31  S   UNL     1       3.455   2.986  20.117  0.00  0.00    +0.000 S 
ENDBRANCH  25  27
ENDBRANCH  22  25
ENDBRANCH   1  22
TORSDOF 4
ENDMDL
MODEL 3
REMARK VINA RESULT:      -7.6      2.946      3.891
REMARK  Name = 
REMARK  4 active torsions:
REMARK  status: ('A' for Active; 'I' for Inactive)
REMARK    1  A    between atoms: S_2  and  N_4
REMARK    2  A    between atoms: S_2  and  C_24
REMARK    3  A    between atoms: N_4  and  C_5
REMARK    4  A    between atoms: C_8  and  N_9
REMARK                            x       y       z     vdW  Elec       q    Type
REMARK                         _______ _______ _______ _____ _____    ______ ____
ROOT
ATOM      1  C   UNL     1       3.577   5.088  17.733  0.00  0.00    +0.000 A 
ATOM      2  C   UNL     1       3.323   4.420  18.930  0.00  0.00    +0.000 A 
ATOM      3  C   UNL     1       2.762   5.104  20.020  0.00  0.00    +0.000 A 
ATOM      4  C   UNL     1       2.486   6.475  19.940  0.00  0.00    +0.000 A 
ATOM      5  C   UNL     1       2.693   7.115  18.710  0.00  0.00    +0.000 A 
ATOM      6  C   UNL     1       3.243   6.434  17.622  0.00  0.00    +0.000 A 
ENDROOT
BRANCH   4   7
ATOM      7  N   UNL     1       1.907   7.152  21.045  0.00  0.00    +0.000 N 
ATOM      8  C   UNL     1       1.083   8.297  20.927  0.00  0.00    +0.000 A 
ATOM      9  C   UNL     1       0.133   8.563  21.884  0.00  0.00    +0.000 A 
ATOM     10  C   UNL     1      -0.634   9.673  21.676  0.00  0.00    +0.000 A 
ATOM     11  N   UNL     1      -0.453  10.510  20.639  0.00  0.00    +0.000 NA
ATOM     12  C   UNL     1       0.531  10.226  19.779  0.00  0.00    +0.000 A 
ATOM     13  N   UNL     1       0.761  11.072  18.722  0.00  0.00    +0.000 N 
ATOM     14  C   UNL     1      -0.048  12.274  18.560  0.00  0.00    +0.000 C 
ATOM     15  C   UNL     1       0.822  13.546  18.648  0.00  0.00    +0.000 C 
ATOM     16  N   UNL     1       1.998  13.517  17.758  0.00  0.00    +0.000 NA
ATOM     17  C   UNL     1       2.808  12.325  18.077  0.00  0.00    +0.000 C 
ATOM     18  C   UNL     1       2.019  10.999  17.981  0.00  0.00    +0.000 C 
ATOM     19  N   UNL     1       1.293   9.136  19.900  0.00  0.00    +0.000 NA
ATOM     20  H   UNL     1       2.623   7.366  21.736  0.00  0.00    +0.000 HD
ATOM     21  H   UNL     1       2.558  14.354  17.918  0.00  0.00    +0.000 HD
ENDBRANCH   4   7
BRANCH   1  22
ATOM     22  N   UNL     1       4.087   4.361  16.609  0.00  0.00    +0.000 N 
ATOM     23  H   UNL     1       4.198   3.360  16.761  0.00  0.00    +0.000 HD
BRANCH  22  25
ATOM     24  O   UNL     1       6.260   3.899  15.334  0.00  0.00    +0.000 OA
ATOM     25  S   UNL     1       5.521   4.992  15.932  0.00  0.00    +0.000 S 
ATOM     26  O   UNL     1       5.224   6.189  15.189  0.00  0.00    +0.000 OA
BRANCH  25  27
ATOM     27  C   UNL     1       6.551   5.528  17.288  0.00  0.00    +0.000 A 
ATOM     28  C   UNL     1       7.041   4.872  18.400  0.00  0.00    +0.000 A 
ATOM     29  C   UNL     1       7.884   5.698  19.191  0.00  0.00    +0.000 A 
ATOM     30  C   UNL     1       8.014   6.962  18.659  0.00  0.00    +0.000 A 
ATOM     31  S   UNL     1       7.105   7.149  17.221  0.00  0.00    +0.000 S 
ENDBRANCH  25  27
ENDBRANCH  22  25
ENDBRANCH   1  22
TORSDOF 4
ENDMDL
MODEL 4
REMARK VINA RESULT:      -7.6      2.959      3.932
REMARK  Name = 
REMARK  4 active torsions:
REMARK  status: ('A' for Active; 'I' for Inactive)
REMARK    1  A    between atoms: S_2  and  N_4
REMARK    2  A    between atoms: S_2  and  C_24
REMARK    3  A    between atoms: N_4  and  C_5
REMARK    4  A    between atoms: C_8  and  N_9
REMARK                            x       y       z     vdW  Elec       q    Type
REMARK                         _______ _______ _______ _____ _____    ______ ____
ROOT
ATOM      1  C   UNL     1       3.884   5.104  17.481  0.00  0.00    +0.000 A 
ATOM      2  C   UNL     1       3.537   6.453  17.459  0.00  0.00    +0.000 A 
ATOM      3  C   UNL     1       2.950   7.053  18.585  0.00  0.00    +0.000 A 
ATOM      4  C   UNL     1       2.665   6.301  19.732  0.00  0.00    +0.000 A 
ATOM      5  C   UNL     1       3.074   4.960  19.754  0.00  0.00    +0.000 A 
ATOM      6  C   UNL     1       3.667   4.364  18.639  0.00  0.00    +0.000 A 
ENDROOT
BRANCH   4   7
ATOM      7  N   UNL     1       2.083   6.922  20.867  0.00  0.00    +0.000 N 
ATOM      8  C   UNL     1       1.218   8.040  20.798  0.00  0.00    +0.000 A 
ATOM      9  C   UNL     1       0.276   8.242  21.778  0.00  0.00    +0.000 A 
ATOM     10  C   UNL     1      -0.533   9.330  21.619  0.00  0.00    +0.000 A 
ATOM     11  N   UNL     1      -0.400  10.206  20.605  0.00  0.00    +0.000 NA
ATOM     12  C   UNL     1       0.579   9.984  19.721  0.00  0.00    +0.000 A 
ATOM     13  N   UNL     1       0.760  10.869  18.688  0.00  0.00    +0.000 N 
ATOM     14  C   UNL     1      -0.093  12.047  18.578  0.00  0.00    +0.000 C 
ATOM     15  C   UNL     1       0.733  13.345  18.691  0.00  0.00    +0.000 C 
ATOM     16  N   UNL     1       1.895  13.386  17.782  0.00  0.00    +0.000 NA
ATOM     17  C   UNL     1       2.750  12.213  18.049  0.00  0.00    +0.000 C 
ATOM     18  C   UNL     1       2.007  10.864  17.925  0.00  0.00    +0.000 C 
ATOM     19  N   UNL     1       1.380   8.918  19.796  0.00  0.00    +0.000 NA
ATOM     20  H   UNL     1       2.803   7.140  21.553  0.00  0.00    +0.000 HD
ATOM     21  H   UNL     1       2.427  14.236  17.958  0.00  0.00    +0.000 HD
ENDBRANCH   4   7
BRANCH   1  22
ATOM     22  N   UNL     1       4.543   4.522  16.349  0.00  0.00    +0.000 N 
ATOM     23  H   UNL     1       4.886   3.574  16.494  0.00  0.00    +0.000 HD
BRANCH  22  25
ATOM     24  O   UNL     1       6.629   4.615  14.865  0.00  0.00    +0.000 OA
ATOM     25  S   UNL     1       5.786   5.475  15.670  0.00  0.00    +0.000 S 
ATOM     26  O   UNL     1       5.231   6.691  15.135  0.00  0.00    +0.000 OA
BRANCH  25  27
ATOM     27  C   UNL     1       6.843   5.995  17.012  0.00  0.00    +0.000 A 
ATOM     28  C   UNL     1       7.299   7.237  17.408  0.00  0.00    +0.000 A 
ATOM     29  C   UNL     1       8.084   7.176  18.590  0.00  0.00    +0.000 A 
ATOM     30  C   UNL     1       8.204   5.888  19.063  0.00  0.00    +0.000 A 
ATOM     31  S   UNL     1       7.385   4.761  18.070  0.00  0.00    +0.000 S 
ENDBRANCH  25  27
ENDBRANCH  22  25
ENDBRANCH   1  22
TORSDOF 4
ENDMDL
MODEL 5
REMARK VINA RESULT:      -7.6      0.663      1.242
REMARK  Name = 
REMARK  4 active torsions:
REMARK  status: ('A' for Active; 'I' for Inactive)
REMARK    1  A    between atoms: S_2  and  N_4
REMARK    2  A    between atoms: S_2  and  C_24
REMARK    3  A    between atoms: N_4  and  C_5
REMARK    4  A    between atoms: C_8  and  N_9
REMARK                            x       y       z     vdW  Elec       q    Type
REMARK                         _______ _______ _______ _____ _____    ______ ____
ROOT
ATOM      1  C   UNL     1       2.536   6.560  18.497  0.00  0.00    +0.000 A 
ATOM      2  C   UNL     1       2.033   6.841  19.766  0.00  0.00    +0.000 A 
ATOM      3  C   UNL     1       1.688   8.156  20.117  0.00  0.00    +0.000 A 
ATOM      4  C   UNL     1       1.880   9.213  19.218  0.00  0.00    +0.000 A 
ATOM      5  C   UNL     1       2.332   8.901  17.928  0.00  0.00    +0.000 A 
ATOM      6  C   UNL     1       2.667   7.593  17.573  0.00  0.00    +0.000 A 
ENDROOT
BRANCH   4   7
ATOM      7  N   UNL     1       1.516  10.535  19.581  0.00  0.00    +0.000 N 
ATOM      8  C   UNL     1       0.182  11.010  19.601  0.00  0.00    +0.000 A 
ATOM      9  C   UNL     1      -0.172  12.029  20.452  0.00  0.00    +0.000 A 
ATOM     10  C   UNL     1      -1.484  12.406  20.424  0.00  0.00    +0.000 A 
ATOM     11  N   UNL     1      -2.386  11.872  19.580  0.00  0.00    +0.000 NA
ATOM     12  C   UNL     1      -1.959  10.928  18.734  0.00  0.00    +0.000 A 
ATOM     13  N   UNL     1      -2.846  10.378  17.842  0.00  0.00    +0.000 N 
ATOM     14  C   UNL     1      -4.229  10.841  17.808  0.00  0.00    +0.000 C 
ATOM     15  C   UNL     1      -4.573  11.466  16.440  0.00  0.00    +0.000 C 
ATOM     16  N   UNL     1      -4.224  10.605  15.295  0.00  0.00    +0.000 NA
ATOM     17  C   UNL     1      -2.785  10.285  15.359  0.00  0.00    +0.000 C 
ATOM     18  C   UNL     1      -2.358   9.623  16.690  0.00  0.00    +0.000 C 
ATOM     19  N   UNL     1      -0.699  10.485  18.735  0.00  0.00    +0.000 NA
ATOM     20  H   UNL     1       2.066  11.207  19.051  0.00  0.00    +0.000 HD
ATOM     21  H   UNL     1      -4.417  11.106  14.429  0.00  0.00    +0.000 HD
ENDBRANCH   4   7
BRANCH   1  22
ATOM     22  N   UNL     1       2.821   5.205  18.130  0.00  0.00    +0.000 N 
ATOM     23  H   UNL     1       2.050   4.553  18.268  0.00  0.00    +0.000 HD
BRANCH  22  25
ATOM     24  O   UNL     1       4.731   5.485  19.814  0.00  0.00    +0.000 OA
ATOM     25  S   UNL     1       4.240   4.553  18.819  0.00  0.00    +0.000 S 
ATOM     26  O   UNL     1       4.035   3.163  19.133  0.00  0.00    +0.000 OA
BRANCH  25  27
ATOM     27  C   UNL     1       5.495   4.565  17.549  0.00  0.00    +0.000 A 
ATOM     28  C   UNL     1       6.865   4.728  17.598  0.00  0.00    +0.000 A 
ATOM     29  C   UNL     1       7.473   4.601  16.320  0.00  0.00    +0.000 A 
ATOM     30  C   UNL     1       6.548   4.345  15.332  0.00  0.00    +0.000 A 
ATOM     31  S   UNL     1       4.953   4.277  15.949  0.00  0.00    +0.000 S 
ENDBRANCH  25  27
ENDBRANCH  22  25
ENDBRANCH   1  22
TORSDOF 4
ENDMDL
MODEL 6
REMARK VINA RESULT:      -7.5      2.669      3.209
REMARK  Name = 
REMARK  4 active torsions:
REMARK  status: ('A' for Active; 'I' for Inactive)
REMARK    1  A    between atoms: S_2  and  N_4
REMARK    2  A    between atoms: S_2  and  C_24
REMARK    3  A    between atoms: N_4  and  C_5
REMARK    4  A    between atoms: C_8  and  N_9
REMARK                            x       y       z     vdW  Elec       q    Type
REMARK                         _______ _______ _______ _____ _____    ______ ____
ROOT
ATOM      1  C   UNL     1       2.428   5.463  18.525  0.00  0.00    +0.000 A 
ATOM      2  C   UNL     1       2.620   6.843  18.491  0.00  0.00    +0.000 A 
ATOM      3  C   UNL     1       2.275   7.635  19.597  0.00  0.00    +0.000 A 
ATOM      4  C   UNL     1       1.695   7.062  20.736  0.00  0.00    +0.000 A 
ATOM      5  C   UNL     1       1.564   5.667  20.773  0.00  0.00    +0.000 A 
ATOM      6  C   UNL     1       1.916   4.876  19.678  0.00  0.00    +0.000 A 
ENDROOT
BRANCH   4   7
ATOM      7  N   UNL     1       1.362   7.873  21.852  0.00  0.00    +0.000 N 
ATOM      8  C   UNL     1       0.683   9.111  21.754  0.00  0.00    +0.000 A 
ATOM      9  C   UNL     1      -0.088   9.558  22.800  0.00  0.00    +0.000 A 
ATOM     10  C   UNL     1      -0.727  10.749  22.610  0.00  0.00    +0.000 A 
ATOM     11  N   UNL     1      -0.581  11.494  21.499  0.00  0.00    +0.000 NA
ATOM     12  C   UNL     1       0.235  11.031  20.546  0.00  0.00    +0.000 A 
ATOM     13  N   UNL     1       0.427  11.776  19.409  0.00  0.00    +0.000 N 
ATOM     14  C   UNL     1      -0.234  13.067  19.262  0.00  0.00    +0.000 C 
ATOM     15  C   UNL     1       0.795  14.211  19.146  0.00  0.00    +0.000 C 
ATOM     16  N   UNL     1       1.828  13.971  18.121  0.00  0.00    +0.000 NA
ATOM     17  C   UNL     1       2.513  12.699  18.422  0.00  0.00    +0.000 C 
ATOM     18  C   UNL     1       1.555  11.490  18.524  0.00  0.00    +0.000 C 
ATOM     19  N   UNL     1       0.860   9.855  20.651  0.00  0.00    +0.000 NA
ATOM     20  H   UNL     1       2.185   8.026  22.430  0.00  0.00    +0.000 HD
ATOM     21  H   UNL     1       2.506  14.731  18.147  0.00  0.00    +0.000 HD
ENDBRANCH   4   7
BRANCH   1  22
ATOM     22  N   UNL     1       2.848   4.660  17.414  0.00  0.00    +0.000 N 
ATOM     23  H   UNL     1       2.126   4.056  17.026  0.00  0.00    +0.000 HD
BRANCH  22  25
ATOM     24  O   UNL     1       4.941   4.285  18.843  0.00  0.00    +0.000 OA
ATOM     25  S   UNL     1       4.266   3.748  17.679  0.00  0.00    +0.000 S 
ATOM     26  O   UNL     1       3.969   2.343  17.568  0.00  0.00    +0.000 OA
BRANCH  25  27
ATOM     27  C   UNL     1       5.377   4.099  16.327  0.00  0.00    +0.000 A 
ATOM     28  C   UNL     1       5.238   3.991  14.957  0.00  0.00    +0.000 A 
ATOM     29  C   UNL     1       6.387   4.448  14.257  0.00  0.00    +0.000 A 
ATOM     30  C   UNL     1       7.370   4.891  15.113  0.00  0.00    +0.000 A 
ATOM     31  S   UNL     1       6.909   4.737  16.753  0.00  0.00    +0.000 S 
ENDBRANCH  25  27
ENDBRANCH  22  25
ENDBRANCH   1  22
TORSDOF 4
ENDMDL
MODEL 7
REMARK VINA RESULT:      -7.3      2.817      3.587
REMARK  Name = 
REMARK  4 active torsions:
REMARK  status: ('A' for Active; 'I' for Inactive)
REMARK    1  A    between atoms: S_2  and  N_4
REMARK    2  A    between atoms: S_2  and  C_24
REMARK    3  A    between atoms: N_4  and  C_5
REMARK    4  A    between atoms: C_8  and  N_9
REMARK                            x       y       z     vdW  Elec       q    Type
REMARK                         _______ _______ _______ _____ _____    ______ ____
ROOT
ATOM      1  C   UNL     1       2.846   5.842  18.390  0.00  0.00    +0.000 A 
ATOM      2  C   UNL     1       2.409   5.214  19.555  0.00  0.00    +0.000 A 
ATOM      3  C   UNL     1       1.887   5.971  20.616  0.00  0.00    +0.000 A 
ATOM      4  C   UNL     1       1.833   7.369  20.541  0.00  0.00    +0.000 A 
ATOM      5  C   UNL     1       2.223   7.977  19.340  0.00  0.00    +0.000 A 
ATOM      6  C   UNL     1       2.734   7.225  18.279  0.00  0.00    +0.000 A 
ENDROOT
BRANCH   4   7
ATOM      7  N   UNL     1       1.292   8.121  21.616  0.00  0.00    +0.000 N 
ATOM      8  C   UNL     1       0.580   9.333  21.452  0.00  0.00    +0.000 A 
ATOM      9  C   UNL     1      -0.365   9.706  22.377  0.00  0.00    +0.000 A 
ATOM     10  C   UNL     1      -1.022  10.876  22.127  0.00  0.00    +0.000 A 
ATOM     11  N   UNL     1      -0.739  11.670  21.078  0.00  0.00    +0.000 NA
ATOM     12  C   UNL     1       0.236  11.278  20.251  0.00  0.00    +0.000 A 
ATOM     13  N   UNL     1       0.569  12.075  19.183  0.00  0.00    +0.000 N 
ATOM     14  C   UNL     1      -0.122  13.342  18.975  0.00  0.00    +0.000 C 
ATOM     15  C   UNL     1       0.858  14.531  19.060  0.00  0.00    +0.000 C 
ATOM     16  N   UNL     1       2.049  14.375  18.204  0.00  0.00    +0.000 NA
ATOM     17  C   UNL     1       2.737  13.121  18.568  0.00  0.00    +0.000 C 
ATOM     18  C   UNL     1       1.833  11.871  18.478  0.00  0.00    +0.000 C 
ATOM     19  N   UNL     1       0.892  10.126  20.415  0.00  0.00    +0.000 NA
ATOM     20  H   UNL     1       2.007   8.285  22.322  0.00  0.00    +0.000 HD
ATOM     21  H   UNL     1       2.678  15.160  18.361  0.00  0.00    +0.000 HD
ENDBRANCH   4   7
BRANCH   1  22
ATOM     22  N   UNL     1       3.314   5.052  17.290  0.00  0.00    +0.000 N 
ATOM     23  H   UNL     1       2.660   4.342  16.964  0.00  0.00    +0.000 HD
BRANCH  22  25
ATOM     24  O   UNL     1       4.880   3.722  18.819  0.00  0.00    +0.000 OA
ATOM     25  S   UNL     1       4.851   4.345  17.512  0.00  0.00    +0.000 S 
ATOM     26  O   UNL     1       5.228   3.616  16.327  0.00  0.00    +0.000 OA
BRANCH  25  27
ATOM     27  C   UNL     1       6.032   5.678  17.634  0.00  0.00    +0.000 A 
ATOM     28  C   UNL     1       6.143   6.885  16.973  0.00  0.00    +0.000 A 
ATOM     29  C   UNL     1       7.228   7.668  17.449  0.00  0.00    +0.000 A 
ATOM     30  C   UNL     1       7.915   7.035  18.462  0.00  0.00    +0.000 A 
ATOM     31  S   UNL     1       7.257   5.496  18.818  0.00  0.00    +0.000 S 
ENDBRANCH  25  27
ENDBRANCH  22  25
ENDBRANCH   1  22
TORSDOF 4
ENDMDL
MODEL 8
REMARK VINA RESULT:      -7.3      4.401      9.294
REMARK  Name = 
REMARK  4 active torsions:
REMARK  status: ('A' for Active; 'I' for Inactive)
REMARK    1  A    between atoms: S_2  and  N_4
REMARK    2  A    between atoms: S_2  and  C_24
REMARK    3  A    between atoms: N_4  and  C_5
REMARK    4  A    between atoms: C_8  and  N_9
REMARK                            x       y       z     vdW  Elec       q    Type
REMARK                         _______ _______ _______ _____ _____    ______ ____
ROOT
ATOM      1  C   UNL     1       1.280   9.718  19.877  0.00  0.00    +0.000 A 
ATOM      2  C   UNL     1       1.705   9.011  18.753  0.00  0.00    +0.000 A 
ATOM      3  C   UNL     1       1.870   7.618  18.812  0.00  0.00    +0.000 A 
ATOM      4  C   UNL     1       1.651   6.920  20.007  0.00  0.00    +0.000 A 
ATOM      5  C   UNL     1       1.168   7.640  21.108  0.00  0.00    +0.000 A 
ATOM      6  C   UNL     1       0.994   9.025  21.049  0.00  0.00    +0.000 A 
ENDROOT
BRANCH   4   7
ATOM      7  N   UNL     1       1.810   5.511  20.049  0.00  0.00    +0.000 N 
ATOM      8  C   UNL     1       3.021   4.843  19.747  0.00  0.00    +0.000 A 
ATOM      9  C   UNL     1       3.295   3.623  20.319  0.00  0.00    +0.000 A 
ATOM     10  C   UNL     1       4.497   3.064  19.993  0.00  0.00    +0.000 A 
ATOM     11  N   UNL     1       5.356   3.620  19.119  0.00  0.00    +0.000 NA
ATOM     12  C   UNL     1       4.998   4.776  18.551  0.00  0.00    +0.000 A 
ATOM     13  N   UNL     1       5.839   5.361  17.636  0.00  0.00    +0.000 N 
ATOM     14  C   UNL     1       7.092   4.708  17.276  0.00  0.00    +0.000 C 
ATOM     15  C   UNL     1       7.120   4.344  15.777  0.00  0.00    +0.000 C 
ATOM     16  N   UNL     1       6.781   5.473  14.890  0.00  0.00    +0.000 NA
ATOM     17  C   UNL     1       5.450   5.989  15.263  0.00  0.00    +0.000 C 
ATOM     18  C   UNL     1       5.344   6.410  16.747  0.00  0.00    +0.000 C 
ATOM     19  N   UNL     1       3.855   5.398  18.854  0.00  0.00    +0.000 NA
ATOM     20  H   UNL     1       1.075   5.060  19.507  0.00  0.00    +0.000 HD
ATOM     21  H   UNL     1       6.755   5.144  13.926  0.00  0.00    +0.000 HD
ENDBRANCH   4   7
BRANCH   1  22
ATOM     22  N   UNL     1       1.051  11.130  19.783  0.00  0.00    +0.000 N 
ATOM     23  H   UNL     1       1.341  11.666  20.599  0.00  0.00    +0.000 HD
BRANCH  22  25
ATOM     24  O   UNL     1      -0.483  12.854  18.671  0.00  0.00    +0.000 OA
ATOM     25  S   UNL     1      -0.538  11.575  19.349  0.00  0.00    +0.000 S 
ATOM     26  O   UNL     1      -1.218  10.448  18.765  0.00  0.00    +0.000 OA
BRANCH  25  27
ATOM     27  C   UNL     1      -1.421  11.918  20.863  0.00  0.00    +0.000 A 
ATOM     28  C   UNL     1      -1.121  11.675  22.189  0.00  0.00    +0.000 A 
ATOM     29  C   UNL     1      -2.111  12.186  23.071  0.00  0.00    +0.000 A 
ATOM     30  C   UNL     1      -3.137  12.804  22.393  0.00  0.00    +0.000 A 
ATOM     31  S   UNL     1      -2.910  12.750  20.698  0.00  0.00    +0.000 S 
ENDBRANCH  25  27
ENDBRANCH  22  25
ENDBRANCH   1  22
TORSDOF 4
ENDMDL
MODEL 9
REMARK VINA RESULT:      -7.3      2.850      3.512
REMARK  Name = 
REMARK  4 active torsions:
REMARK  status: ('A' for Active; 'I' for Inactive)
REMARK    1  A    between atoms: S_2  and  N_4
REMARK    2  A    between atoms: S_2  and  C_24
REMARK    3  A    between atoms: N_4  and  C_5
REMARK    4  A    between atoms: C_8  and  N_9
REMARK                            x       y       z     vdW  Elec       q    Type
REMARK                         _______ _______ _______ _____ _____    ______ ____
ROOT
ATOM      1  C   UNL     1       2.616   5.628  18.456  0.00  0.00    +0.000 A 
ATOM      2  C   UNL     1       2.707   7.019  18.441  0.00  0.00    +0.000 A 
ATOM      3  C   UNL     1       2.301   7.769  19.556  0.00  0.00    +0.000 A 
ATOM      4  C   UNL     1       1.760   7.140  20.685  0.00  0.00    +0.000 A 
ATOM      5  C   UNL     1       1.732   5.739  20.704  0.00  0.00    +0.000 A 
ATOM      6  C   UNL     1       2.144   4.990  19.600  0.00  0.00    +0.000 A 
ENDROOT
BRANCH   4   7
ATOM      7  N   UNL     1       1.365   7.909  21.810  0.00  0.00    +0.000 N 
ATOM      8  C   UNL     1       0.659   9.133  21.721  0.00  0.00    +0.000 A 
ATOM      9  C   UNL     1      -0.162   9.530  22.749  0.00  0.00    +0.000 A 
ATOM     10  C   UNL     1      -0.824  10.711  22.568  0.00  0.00    +0.000 A 
ATOM     11  N   UNL     1      -0.654  11.492  21.486  0.00  0.00    +0.000 NA
ATOM     12  C   UNL     1       0.208  11.076  20.552  0.00  0.00    +0.000 A 
ATOM     13  N   UNL     1       0.425  11.859  19.445  0.00  0.00    +0.000 N 
ATOM     14  C   UNL     1      -0.263  13.137  19.309  0.00  0.00    +0.000 C 
ATOM     15  C   UNL     1       0.741  14.308  19.266  0.00  0.00    +0.000 C 
ATOM     16  N   UNL     1       1.818  14.124  18.275  0.00  0.00    +0.000 NA
ATOM     17  C   UNL     1       2.523  12.860  18.566  0.00  0.00    +0.000 C 
ATOM     18  C   UNL     1       1.592  11.627  18.596  0.00  0.00    +0.000 C 
ATOM     19  N   UNL     1       0.859   9.913  20.647  0.00  0.00    +0.000 NA
ATOM     20  H   UNL     1       2.161   8.065  22.424  0.00  0.00    +0.000 HD
ATOM     21  H   UNL     1       2.475  14.899  18.348  0.00  0.00    +0.000 HD
ENDBRANCH   4   7
BRANCH   1  22
ATOM     22  N   UNL     1       3.097   4.873  17.338  0.00  0.00    +0.000 N 
ATOM     23  H   UNL     1       2.412   4.248  16.916  0.00  0.00    +0.000 HD
BRANCH  22  25
ATOM     24  O   UNL     1       4.436   3.337  18.891  0.00  0.00    +0.000 OA
ATOM     25  S   UNL     1       4.547   4.016  17.616  0.00  0.00    +0.000 S 
ATOM     26  O   UNL     1       4.931   3.308  16.422  0.00  0.00    +0.000 OA
BRANCH  25  27
ATOM     27  C   UNL     1       5.833   5.226  17.874  0.00  0.00    +0.000 A 
ATOM     28  C   UNL     1       6.799   5.363  18.852  0.00  0.00    +0.000 A 
ATOM     29  C   UNL     1       7.661   6.467  18.613  0.00  0.00    +0.000 A 
ATOM     30  C   UNL     1       7.328   7.142  17.460  0.00  0.00    +0.000 A 
ATOM     31  S   UNL     1       5.969   6.451  16.683  0.00  0.00    +0.000 S 
ENDBRANCH  25  27
ENDBRANCH  22  25
ENDBRANCH   1  22
TORSDOF 4
ENDMDL
