MODEL 1
REMARK VINA RESULT:      -8.0      0.000      0.000
REMARK  Name = 
REMARK  4 active torsions:
REMARK  status: ('A' for Active; 'I' for Inactive)
REMARK    1  A    between atoms: C_2  and  C_3
REMARK    2  A    between atoms: C_14  and  O_15
REMARK    3  A    between atoms: O_15  and  C_16
REMARK    4  A    between atoms: C_16  and  C_17
REMARK                            x       y       z     vdW  Elec       q    Type
REMARK                         _______ _______ _______ _____ _____    ______ ____
ROOT
ATOM      1  O   UNL     1       5.338   3.966  16.125  0.00  0.00    +0.000 OA
ATOM      2  C   UNL     1       5.357   4.359  17.290  0.00  0.00    +0.000 C 
ATOM      3  N   UNL     1       4.466   3.824  18.230  0.00  0.00    +0.000 N 
ATOM      4  C   UNL     1       3.702   2.605  17.898  0.00  0.00    +0.000 C 
ATOM      5  C   UNL     1       2.192   2.849  17.787  0.00  0.00    +0.000 C 
ATOM      6  C   UNL     1       1.648   3.721  18.924  0.00  0.00    +0.000 C 
ATOM      7  C   UNL     1       2.496   4.986  19.088  0.00  0.00    +0.000 C 
ATOM      8  C   UNL     1       2.389   5.899  17.873  0.00  0.00    +0.000 C 
ATOM      9  C   UNL     1       2.617   7.289  18.417  0.00  0.00    +0.000 C 
ATOM     10  C   UNL     1       2.408   7.140  19.924  0.00  0.00    +0.000 C 
ATOM     11  O   UNL     1       2.025   5.776  20.187  0.00  0.00    +0.000 OA
ATOM     12  C   UNL     1       3.941   4.548  19.376  0.00  0.00    +0.000 C 
ENDROOT
BRANCH   2  13
ATOM     13  C   UNL     1       6.287   5.416  17.671  0.00  0.00    +0.000 A 
ATOM     14  C   UNL     1       7.408   5.491  18.530  0.00  0.00    +0.000 A 
ATOM     15  N   UNL     1       7.966   6.705  18.560  0.00  0.00    +0.000 NA
ATOM     16  O   UNL     1       7.253   7.445  17.637  0.00  0.00    +0.000 OA
ATOM     17  C   UNL     1       6.279   6.670  17.101  0.00  0.00    +0.000 A 
ENDBRANCH   2  13
BRANCH   9  18
ATOM     18  O   UNL     1       1.658   8.115  17.772  0.00  0.00    +0.000 OA
BRANCH  18  19
ATOM     19  C   UNL     1       1.935   9.507  17.860  0.00  0.00    +0.000 C 
BRANCH  19  20
ATOM     20  C   UNL     1       0.741  10.174  18.495  0.00  0.00    +0.000 A 
ATOM     21  C   UNL     1      -0.529  10.010  17.940  0.00  0.00    +0.000 A 
ATOM     22  C   UNL     1      -1.614  10.622  18.561  0.00  0.00    +0.000 A 
ATOM     23  C   UNL     1      -1.409  11.367  19.716  0.00  0.00    +0.000 A 
ATOM     24  C   UNL     1      -0.119  11.466  20.206  0.00  0.00    +0.000 A 
ATOM     25  N   UNL     1       0.958  10.901  19.620  0.00  0.00    +0.000 NA
ENDBRANCH  19  20
ENDBRANCH  18  19
ENDBRANCH   9  18
TORSDOF 4
ENDMDL
MODEL 2
REMARK VINA RESULT:      -7.7      0.691      1.208
REMARK  Name = 
REMARK  4 active torsions:
REMARK  status: ('A' for Active; 'I' for Inactive)
REMARK    1  A    between atoms: C_2  and  C_3
REMARK    2  A    between atoms: C_14  and  O_15
REMARK    3  A    between atoms: O_15  and  C_16
REMARK    4  A    between atoms: C_16  and  C_17
REMARK                            x       y       z     vdW  Elec       q    Type
REMARK                         _______ _______ _______ _____ _____    ______ ____
ROOT
ATOM      1  O   UNL     1       5.360   4.127  15.981  0.00  0.00    +0.000 OA
ATOM      2  C   UNL     1       5.386   4.488  17.155  0.00  0.00    +0.000 C 
ATOM      3  N   UNL     1       4.505   3.924  18.087  0.00  0.00    +0.000 N 
ATOM      4  C   UNL     1       3.744   2.710  17.728  0.00  0.00    +0.000 C 
ATOM      5  C   UNL     1       2.232   2.950  17.635  0.00  0.00    +0.000 C 
ATOM      6  C   UNL     1       1.693   3.789  18.798  0.00  0.00    +0.000 C 
ATOM      7  C   UNL     1       2.536   5.053  18.991  0.00  0.00    +0.000 C 
ATOM      8  C   UNL     1       2.415   5.998  17.802  0.00  0.00    +0.000 C 
ATOM      9  C   UNL     1       2.640   7.374  18.381  0.00  0.00    +0.000 C 
ATOM     10  C   UNL     1       2.444   7.183  19.886  0.00  0.00    +0.000 C 
ATOM     11  O   UNL     1       2.069   5.810  20.114  0.00  0.00    +0.000 OA
ATOM     12  C   UNL     1       3.985   4.614  19.256  0.00  0.00    +0.000 C 
ENDROOT
BRANCH   2  13
ATOM     13  C   UNL     1       6.314   5.539  17.558  0.00  0.00    +0.000 A 
ATOM     14  C   UNL     1       6.433   6.921  17.279  0.00  0.00    +0.000 A 
ATOM     15  N   UNL     1       7.472   7.493  17.895  0.00  0.00    +0.000 NA
ATOM     16  O   UNL     1       8.020   6.490  18.672  0.00  0.00    +0.000 OA
ATOM     17  C   UNL     1       7.316   5.347  18.484  0.00  0.00    +0.000 A 
ENDBRANCH   2  13
BRANCH   9  18
ATOM     18  O   UNL     1       1.674   8.212  17.767  0.00  0.00    +0.000 OA
BRANCH  18  19
ATOM     19  C   UNL     1       1.935   9.603  17.905  0.00  0.00    +0.000 C 
BRANCH  19  20
ATOM     20  C   UNL     1       0.715  10.241  18.520  0.00  0.00    +0.000 A 
ATOM     21  C   UNL     1       0.844  11.056  19.645  0.00  0.00    +0.000 A 
ATOM     22  C   UNL     1      -0.299  11.647  20.177  0.00  0.00    +0.000 A 
ATOM     23  C   UNL     1      -1.530  11.420  19.573  0.00  0.00    +0.000 A 
ATOM     24  C   UNL     1      -1.565  10.608  18.452  0.00  0.00    +0.000 A 
ATOM     25  N   UNL     1      -0.480  10.007  17.920  0.00  0.00    +0.000 NA
ENDBRANCH  19  20
ENDBRANCH  18  19
ENDBRANCH   9  18
TORSDOF 4
ENDMDL
MODEL 3
REMARK VINA RESULT:      -7.6      0.969      1.297
REMARK  Name = 
REMARK  4 active torsions:
REMARK  status: ('A' for Active; 'I' for Inactive)
REMARK    1  A    between atoms: C_2  and  C_3
REMARK    2  A    between atoms: C_14  and  O_15
REMARK    3  A    between atoms: O_15  and  C_16
REMARK    4  A    between atoms: C_16  and  C_17
REMARK                            x       y       z     vdW  Elec       q    Type
REMARK                         _______ _______ _______ _____ _____    ______ ____
ROOT
ATOM      1  O   UNL     1       4.889   4.190  15.967  0.00  0.00    +0.000 OA
ATOM      2  C   UNL     1       5.018   4.589  17.123  0.00  0.00    +0.000 C 
ATOM      3  N   UNL     1       4.199   4.084  18.141  0.00  0.00    +0.000 N 
ATOM      4  C   UNL     1       3.379   2.882  17.886  0.00  0.00    +0.000 C 
ATOM      5  C   UNL     1       1.872   3.163  17.903  0.00  0.00    +0.000 C 
ATOM      6  C   UNL     1       1.450   4.056  19.074  0.00  0.00    +0.000 C 
ATOM      7  C   UNL     1       2.339   5.300  19.155  0.00  0.00    +0.000 C 
ATOM      8  C   UNL     1       2.150   6.208  17.945  0.00  0.00    +0.000 C 
ATOM      9  C   UNL     1       2.458   7.595  18.455  0.00  0.00    +0.000 C 
ATOM     10  C   UNL     1       2.377   7.462  19.976  0.00  0.00    +0.000 C 
ATOM     11  O   UNL     1       1.984   6.109  20.282  0.00  0.00    +0.000 OA
ATOM     12  C   UNL     1       3.792   4.828  19.321  0.00  0.00    +0.000 C 
ENDROOT
BRANCH   2  13
ATOM     13  C   UNL     1       6.004   5.625  17.413  0.00  0.00    +0.000 A 
ATOM     14  C   UNL     1       7.207   5.672  18.155  0.00  0.00    +0.000 A 
ATOM     15  N   UNL     1       7.789   6.874  18.134  0.00  0.00    +0.000 NA
ATOM     16  O   UNL     1       7.002   7.635  17.292  0.00  0.00    +0.000 OA
ATOM     17  C   UNL     1       5.963   6.884  16.853  0.00  0.00    +0.000 A 
ENDBRANCH   2  13
BRANCH   9  18
ATOM     18  O   UNL     1       1.468   8.441  17.888  0.00  0.00    +0.000 OA
BRANCH  18  19
ATOM     19  C   UNL     1       1.292   9.674  18.575  0.00  0.00    +0.000 C 
BRANCH  19  20
ATOM     20  C   UNL     1      -0.065  10.216  18.204  0.00  0.00    +0.000 A 
ATOM     21  C   UNL     1      -0.467  11.471  18.662  0.00  0.00    +0.000 A 
ATOM     22  C   UNL     1      -1.718  11.952  18.286  0.00  0.00    +0.000 A 
ATOM     23  C   UNL     1      -2.527  11.179  17.461  0.00  0.00    +0.000 A 
ATOM     24  C   UNL     1      -2.044   9.951  17.041  0.00  0.00    +0.000 A 
ATOM     25  N   UNL     1      -0.845   9.448  17.400  0.00  0.00    +0.000 NA
ENDBRANCH  19  20
ENDBRANCH  18  19
ENDBRANCH   9  18
TORSDOF 4
ENDMDL
MODEL 4
REMARK VINA RESULT:      -7.2      1.081      1.450
REMARK  Name = 
REMARK  4 active torsions:
REMARK  status: ('A' for Active; 'I' for Inactive)
REMARK    1  A    between atoms: C_2  and  C_3
REMARK    2  A    between atoms: C_14  and  O_15
REMARK    3  A    between atoms: O_15  and  C_16
REMARK    4  A    between atoms: C_16  and  C_17
REMARK                            x       y       z     vdW  Elec       q    Type
REMARK                         _______ _______ _______ _____ _____    ______ ____
ROOT
ATOM      1  O   UNL     1       5.252   4.234  16.065  0.00  0.00    +0.000 OA
ATOM      2  C   UNL     1       5.275   4.600  17.239  0.00  0.00    +0.000 C 
ATOM      3  N   UNL     1       4.349   4.086  18.156  0.00  0.00    +0.000 N 
ATOM      4  C   UNL     1       3.534   2.911  17.787  0.00  0.00    +0.000 C 
ATOM      5  C   UNL     1       2.038   3.227  17.665  0.00  0.00    +0.000 C 
ATOM      6  C   UNL     1       1.521   4.098  18.814  0.00  0.00    +0.000 C 
ATOM      7  C   UNL     1       2.423   5.318  19.018  0.00  0.00    +0.000 C 
ATOM      8  C   UNL     1       2.373   6.262  17.823  0.00  0.00    +0.000 C 
ATOM      9  C   UNL     1       2.658   7.628  18.400  0.00  0.00    +0.000 C 
ATOM     10  C   UNL     1       2.424   7.455  19.902  0.00  0.00    +0.000 C 
ATOM     11  O   UNL     1       1.975   6.104  20.128  0.00  0.00    +0.000 OA
ATOM     12  C   UNL     1       3.843   4.808  19.312  0.00  0.00    +0.000 C 
ENDROOT
BRANCH   2  13
ATOM     13  C   UNL     1       6.248   5.604  17.655  0.00  0.00    +0.000 A 
ATOM     14  C   UNL     1       7.386   5.597  18.495  0.00  0.00    +0.000 A 
ATOM     15  N   UNL     1       7.985   6.788  18.575  0.00  0.00    +0.000 NA
ATOM     16  O   UNL     1       7.282   7.599  17.705  0.00  0.00    +0.000 OA
ATOM     17  C   UNL     1       6.273   6.886  17.149  0.00  0.00    +0.000 A 
ENDBRANCH   2  13
BRANCH   9  18
ATOM     18  O   UNL     1       1.747   8.511  17.764  0.00  0.00    +0.000 OA
BRANCH  18  19
ATOM     19  C   UNL     1       0.823   9.133  18.648  0.00  0.00    +0.000 C 
BRANCH  19  20
ATOM     20  C   UNL     1       1.041  10.622  18.568  0.00  0.00    +0.000 A 
ATOM     21  C   UNL     1       2.283  11.127  18.183  0.00  0.00    +0.000 A 
ATOM     22  C   UNL     1       2.446  12.508  18.098  0.00  0.00    +0.000 A 
ATOM     23  C   UNL     1       1.373  13.342  18.388  0.00  0.00    +0.000 A 
ATOM     24  C   UNL     1       0.172  12.755  18.749  0.00  0.00    +0.000 A 
ATOM     25  N   UNL     1      -0.016  11.423  18.857  0.00  0.00    +0.000 NA
ENDBRANCH  19  20
ENDBRANCH  18  19
ENDBRANCH   9  18
TORSDOF 4
ENDMDL
MODEL 5
REMARK VINA RESULT:      -7.1      2.177      4.266
REMARK  Name = 
REMARK  4 active torsions:
REMARK  status: ('A' for Active; 'I' for Inactive)
REMARK    1  A    between atoms: C_2  and  C_3
REMARK    2  A    between atoms: C_14  and  O_15
REMARK    3  A    between atoms: O_15  and  C_16
REMARK    4  A    between atoms: C_16  and  C_17
REMARK                            x       y       z     vdW  Elec       q    Type
REMARK                         _______ _______ _______ _____ _____    ______ ____
ROOT
ATOM      1  O   UNL     1       4.692   2.911  20.028  0.00  0.00    +0.000 OA
ATOM      2  C   UNL     1       4.019   3.281  19.068  0.00  0.00    +0.000 C 
ATOM      3  N   UNL     1       4.587   4.097  18.081  0.00  0.00    +0.000 N 
ATOM      4  C   UNL     1       6.052   4.283  18.044  0.00  0.00    +0.000 C 
ATOM      5  C   UNL     1       6.487   5.720  18.358  0.00  0.00    +0.000 C 
ATOM      6  C   UNL     1       5.635   6.768  17.634  0.00  0.00    +0.000 C 
ATOM      7  C   UNL     1       4.144   6.487  17.836  0.00  0.00    +0.000 C 
ATOM      8  C   UNL     1       3.731   6.656  19.293  0.00  0.00    +0.000 C 
ATOM      9  C   UNL     1       2.278   7.063  19.235  0.00  0.00    +0.000 C 
ATOM     10  C   UNL     1       2.074   7.518  17.789  0.00  0.00    +0.000 C 
ATOM     11  O   UNL     1       3.345   7.432  17.114  0.00  0.00    +0.000 OA
ATOM     12  C   UNL     1       3.854   5.078  17.297  0.00  0.00    +0.000 C 
ENDROOT
BRANCH   2  13
ATOM     13  C   UNL     1       2.614   2.896  18.990  0.00  0.00    +0.000 A 
ATOM     14  C   UNL     1       1.848   2.105  18.102  0.00  0.00    +0.000 A 
ATOM     15  N   UNL     1       0.559   2.032  18.445  0.00  0.00    +0.000 NA
ATOM     16  O   UNL     1       0.469   2.724  19.637  0.00  0.00    +0.000 OA
ATOM     17  C   UNL     1       1.691   3.211  19.963  0.00  0.00    +0.000 A 
ENDBRANCH   2  13
BRANCH   9  18
ATOM     18  O   UNL     1       2.130   8.095  20.199  0.00  0.00    +0.000 OA
BRANCH  18  19
ATOM     19  C   UNL     1       1.345   9.196  19.760  0.00  0.00    +0.000 C 
BRANCH  19  20
ATOM     20  C   UNL     1       0.542   9.686  20.938  0.00  0.00    +0.000 A 
ATOM     21  C   UNL     1       0.660   9.055  22.177  0.00  0.00    +0.000 A 
ATOM     22  C   UNL     1      -0.079   9.545  23.250  0.00  0.00    +0.000 A 
ATOM     23  C   UNL     1      -0.904  10.648  23.066  0.00  0.00    +0.000 A 
ATOM     24  C   UNL     1      -0.951  11.221  21.806  0.00  0.00    +0.000 A 
ATOM     25  N   UNL     1      -0.261  10.763  20.741  0.00  0.00    +0.000 NA
ENDBRANCH  19  20
ENDBRANCH  18  19
ENDBRANCH   9  18
TORSDOF 4
ENDMDL
MODEL 6
REMARK VINA RESULT:      -7.0      1.199      1.750
REMARK  Name = 
REMARK  4 active torsions:
REMARK  status: ('A' for Active; 'I' for Inactive)
REMARK    1  A    between atoms: C_2  and  C_3
REMARK    2  A    between atoms: C_14  and  O_15
REMARK    3  A    between atoms: O_15  and  C_16
REMARK    4  A    between atoms: C_16  and  C_17
REMARK                            x       y       z     vdW  Elec       q    Type
REMARK                         _______ _______ _______ _____ _____    ______ ____
ROOT
ATOM      1  O   UNL     1       4.951   4.176  15.914  0.00  0.00    +0.000 OA
ATOM      2  C   UNL     1       5.064   4.528  17.086  0.00  0.00    +0.000 C 
ATOM      3  N   UNL     1       4.194   4.023  18.062  0.00  0.00    +0.000 N 
ATOM      4  C   UNL     1       3.330   2.869  17.740  0.00  0.00    +0.000 C 
ATOM      5  C   UNL     1       1.837   3.216  17.726  0.00  0.00    +0.000 C 
ATOM      6  C   UNL     1       1.420   4.085  18.918  0.00  0.00    +0.000 C 
ATOM      7  C   UNL     1       2.360   5.285  19.069  0.00  0.00    +0.000 C 
ATOM      8  C   UNL     1       2.246   6.242  17.889  0.00  0.00    +0.000 C 
ATOM      9  C   UNL     1       2.599   7.595  18.458  0.00  0.00    +0.000 C 
ATOM     10  C   UNL     1       2.468   7.411  19.970  0.00  0.00    +0.000 C 
ATOM     11  O   UNL     1       2.008   6.068  20.215  0.00  0.00    +0.000 OA
ATOM     12  C   UNL     1       3.786   4.743  19.257  0.00  0.00    +0.000 C 
ENDROOT
BRANCH   2  13
ATOM     13  C   UNL     1       6.085   5.508  17.442  0.00  0.00    +0.000 A 
ATOM     14  C   UNL     1       6.261   6.890  17.202  0.00  0.00    +0.000 A 
ATOM     15  N   UNL     1       7.382   7.377  17.743  0.00  0.00    +0.000 NA
ATOM     16  O   UNL     1       7.934   6.315  18.433  0.00  0.00    +0.000 OA
ATOM     17  C   UNL     1       7.150   5.222  18.269  0.00  0.00    +0.000 A 
ENDBRANCH   2  13
BRANCH   9  18
ATOM     18  O   UNL     1       1.664   8.504  17.896  0.00  0.00    +0.000 OA
BRANCH  18  19
ATOM     19  C   UNL     1       0.867   9.188  18.854  0.00  0.00    +0.000 C 
BRANCH  19  20
ATOM     20  C   UNL     1       1.334  10.621  18.902  0.00  0.00    +0.000 A 
ATOM     21  C   UNL     1       0.896  11.465  19.923  0.00  0.00    +0.000 A 
ATOM     22  C   UNL     1       1.362  12.777  19.951  0.00  0.00    +0.000 A 
ATOM     23  C   UNL     1       2.253  13.207  18.975  0.00  0.00    +0.000 A 
ATOM     24  C   UNL     1       2.645  12.299  18.007  0.00  0.00    +0.000 A 
ATOM     25  N   UNL     1       2.201  11.026  17.940  0.00  0.00    +0.000 NA
ENDBRANCH  19  20
ENDBRANCH  18  19
ENDBRANCH   9  18
TORSDOF 4
ENDMDL
MODEL 7
REMARK VINA RESULT:      -6.9      2.177      4.253
REMARK  Name = 
REMARK  4 active torsions:
REMARK  status: ('A' for Active; 'I' for Inactive)
REMARK    1  A    between atoms: C_2  and  C_3
REMARK    2  A    between atoms: C_14  and  O_15
REMARK    3  A    between atoms: O_15  and  C_16
REMARK    4  A    between atoms: C_16  and  C_17
REMARK                            x       y       z     vdW  Elec       q    Type
REMARK                         _______ _______ _______ _____ _____    ______ ____
ROOT
ATOM      1  O   UNL     1       4.807   2.929  19.901  0.00  0.00    +0.000 OA
ATOM      2  C   UNL     1       4.090   3.316  18.981  0.00  0.00    +0.000 C 
ATOM      3  N   UNL     1       4.604   4.166  17.994  0.00  0.00    +0.000 N 
ATOM      4  C   UNL     1       6.064   4.373  17.900  0.00  0.00    +0.000 C 
ATOM      5  C   UNL     1       6.494   5.807  18.234  0.00  0.00    +0.000 C 
ATOM      6  C   UNL     1       5.599   6.862  17.577  0.00  0.00    +0.000 C 
ATOM      7  C   UNL     1       4.121   6.556  17.834  0.00  0.00    +0.000 C 
ATOM      8  C   UNL     1       3.769   6.679  19.312  0.00  0.00    +0.000 C 
ATOM      9  C   UNL     1       2.310   7.068  19.327  0.00  0.00    +0.000 C 
ATOM     10  C   UNL     1       2.038   7.559  17.905  0.00  0.00    +0.000 C 
ATOM     11  O   UNL     1       3.280   7.508  17.174  0.00  0.00    +0.000 OA
ATOM     12  C   UNL     1       3.826   5.157  17.269  0.00  0.00    +0.000 C 
ENDROOT
BRANCH   2  13
ATOM     13  C   UNL     1       2.687   2.914  18.953  0.00  0.00    +0.000 A 
ATOM     14  C   UNL     1       1.543   3.248  19.713  0.00  0.00    +0.000 A 
ATOM     15  N   UNL     1       0.440   2.612  19.307  0.00  0.00    +0.000 NA
ATOM     16  O   UNL     1       0.834   1.893  18.195  0.00  0.00    +0.000 OA
ATOM     17  C   UNL     1       2.157   2.096  17.979  0.00  0.00    +0.000 A 
ENDBRANCH   2  13
BRANCH   9  18
ATOM     18  O   UNL     1       2.191   8.071  20.325  0.00  0.00    +0.000 OA
BRANCH  18  19
ATOM     19  C   UNL     1       1.159   7.830  21.274  0.00  0.00    +0.000 C 
BRANCH  19  20
ATOM     20  C   UNL     1       0.498   9.150  21.579  0.00  0.00    +0.000 A 
ATOM     21  C   UNL     1      -0.225   9.314  22.761  0.00  0.00    +0.000 A 
ATOM     22  C   UNL     1      -0.806  10.552  23.023  0.00  0.00    +0.000 A 
ATOM     23  C   UNL     1      -0.645  11.589  22.113  0.00  0.00    +0.000 A 
ATOM     24  C   UNL     1       0.100  11.343  20.972  0.00  0.00    +0.000 A 
ATOM     25  N   UNL     1       0.663  10.152  20.678  0.00  0.00    +0.000 NA
ENDBRANCH  19  20
ENDBRANCH  18  19
ENDBRANCH   9  18
TORSDOF 4
ENDMDL
MODEL 8
REMARK VINA RESULT:      -6.8      2.349      6.102
REMARK  Name = 
REMARK  4 active torsions:
REMARK  status: ('A' for Active; 'I' for Inactive)
REMARK    1  A    between atoms: C_2  and  C_3
REMARK    2  A    between atoms: C_14  and  O_15
REMARK    3  A    between atoms: O_15  and  C_16
REMARK    4  A    between atoms: C_16  and  C_17
REMARK                            x       y       z     vdW  Elec       q    Type
REMARK                         _______ _______ _______ _____ _____    ______ ____
ROOT
ATOM      1  O   UNL     1       2.564   5.822  21.408  0.00  0.00    +0.000 OA
ATOM      2  C   UNL     1       2.083   5.801  20.276  0.00  0.00    +0.000 C 
ATOM      3  N   UNL     1       1.437   4.651  19.804  0.00  0.00    +0.000 N 
ATOM      4  C   UNL     1       1.088   3.572  20.751  0.00  0.00    +0.000 C 
ATOM      5  C   UNL     1       1.865   2.273  20.501  0.00  0.00    +0.000 C 
ATOM      6  C   UNL     1       1.931   1.900  19.016  0.00  0.00    +0.000 C 
ATOM      7  C   UNL     1       2.388   3.097  18.177  0.00  0.00    +0.000 C 
ATOM      8  C   UNL     1       3.824   3.494  18.495  0.00  0.00    +0.000 C 
ATOM      9  C   UNL     1       4.346   4.103  17.216  0.00  0.00    +0.000 C 
ATOM     10  C   UNL     1       3.359   3.633  16.147  0.00  0.00    +0.000 C 
ATOM     11  O   UNL     1       2.396   2.769  16.782  0.00  0.00    +0.000 OA
ATOM     12  C   UNL     1       1.390   4.242  18.411  0.00  0.00    +0.000 C 
ENDROOT
BRANCH   2  13
ATOM     13  C   UNL     1       2.231   6.971  19.417  0.00  0.00    +0.000 A 
ATOM     14  C   UNL     1       2.872   7.222  18.181  0.00  0.00    +0.000 A 
ATOM     15  N   UNL     1       2.731   8.483  17.764  0.00  0.00    +0.000 NA
ATOM     16  O   UNL     1       1.907   9.077  18.701  0.00  0.00    +0.000 OA
ATOM     17  C   UNL     1       1.598   8.171  19.660  0.00  0.00    +0.000 A 
ENDBRANCH   2  13
BRANCH   9  18
ATOM     18  O   UNL     1       5.663   3.596  17.060  0.00  0.00    +0.000 OA
BRANCH  18  19
ATOM     19  C   UNL     1       6.498   4.389  16.224  0.00  0.00    +0.000 C 
BRANCH  19  20
ATOM     20  C   UNL     1       7.070   5.500  17.067  0.00  0.00    +0.000 A 
ATOM     21  C   UNL     1       7.596   5.221  18.329  0.00  0.00    +0.000 A 
ATOM     22  C   UNL     1       8.136   6.266  19.074  0.00  0.00    +0.000 A 
ATOM     23  C   UNL     1       8.146   7.550  18.543  0.00  0.00    +0.000 A 
ATOM     24  C   UNL     1       7.615   7.735  17.278  0.00  0.00    +0.000 A 
ATOM     25  N   UNL     1       7.070   6.749  16.535  0.00  0.00    +0.000 NA
ENDBRANCH  19  20
ENDBRANCH  18  19
ENDBRANCH   9  18
TORSDOF 4
ENDMDL
MODEL 9
REMARK VINA RESULT:      -6.7      2.247      6.105
REMARK  Name = 
REMARK  4 active torsions:
REMARK  status: ('A' for Active; 'I' for Inactive)
REMARK    1  A    between atoms: C_2  and  C_3
REMARK    2  A    between atoms: C_14  and  O_15
REMARK    3  A    between atoms: O_15  and  C_16
REMARK    4  A    between atoms: C_16  and  C_17
REMARK                            x       y       z     vdW  Elec       q    Type
REMARK                         _______ _______ _______ _____ _____    ______ ____
ROOT
ATOM      1  O   UNL     1       2.719   6.251  21.004  0.00  0.00    +0.000 OA
ATOM      2  C   UNL     1       2.192   6.089  19.906  0.00  0.00    +0.000 C 
ATOM      3  N   UNL     1       1.494   4.907  19.625  0.00  0.00    +0.000 N 
ATOM      4  C   UNL     1       1.155   3.983  20.727  0.00  0.00    +0.000 C 
ATOM      5  C   UNL     1       1.883   2.636  20.633  0.00  0.00    +0.000 C 
ATOM      6  C   UNL     1       1.877   2.058  19.214  0.00  0.00    +0.000 C 
ATOM      7  C   UNL     1       2.332   3.109  18.198  0.00  0.00    +0.000 C 
ATOM      8  C   UNL     1       3.791   3.498  18.404  0.00  0.00    +0.000 C 
ATOM      9  C   UNL     1       4.276   3.905  17.033  0.00  0.00    +0.000 C 
ATOM     10  C   UNL     1       3.232   3.324  16.079  0.00  0.00    +0.000 C 
ATOM     11  O   UNL     1       2.273   2.589  16.865  0.00  0.00    +0.000 OA
ATOM     12  C   UNL     1       1.377   4.309  18.305  0.00  0.00    +0.000 C 
ENDROOT
BRANCH   2  13
ATOM     13  C   UNL     1       2.336   7.121  18.885  0.00  0.00    +0.000 A 
ATOM     14  C   UNL     1       1.671   8.336  18.600  0.00  0.00    +0.000 A 
ATOM     15  N   UNL     1       2.168   8.968  17.533  0.00  0.00    +0.000 NA
ATOM     16  O   UNL     1       3.247   8.202  17.138  0.00  0.00    +0.000 OA
ATOM     17  C   UNL     1       3.353   7.126  17.955  0.00  0.00    +0.000 A 
ENDBRANCH   2  13
BRANCH   9  18
ATOM     18  O   UNL     1       5.570   3.337  16.900  0.00  0.00    +0.000 OA
BRANCH  18  19
ATOM     19  C   UNL     1       6.480   4.127  16.144  0.00  0.00    +0.000 C 
BRANCH  19  20
ATOM     20  C   UNL     1       7.069   5.161  17.069  0.00  0.00    +0.000 A 
ATOM     21  C   UNL     1       7.077   6.507  16.699  0.00  0.00    +0.000 A 
ATOM     22  C   UNL     1       7.610   7.440  17.584  0.00  0.00    +0.000 A 
ATOM     23  C   UNL     1       8.108   7.014  18.809  0.00  0.00    +0.000 A 
ATOM     24  C   UNL     1       8.048   5.662  19.100  0.00  0.00    +0.000 A 
ATOM     25  N   UNL     1       7.554   4.728  18.260  0.00  0.00    +0.000 NA
ENDBRANCH  19  20
ENDBRANCH  18  19
ENDBRANCH   9  18
TORSDOF 4
ENDMDL
