MODEL 1
REMARK VINA RESULT:      -9.4      0.000      0.000
REMARK  Name = 
REMARK  6 active torsions:
REMARK  status: ('A' for Active; 'I' for Inactive)
REMARK    1  A    between atoms: C_8  and  N_9
REMARK    2  A    between atoms: N_9  and  C_10
REMARK    3  A    between atoms: C_10  and  C_11
REMARK    4  A    between atoms: C_13  and  N_14
REMARK    5  A    between atoms: C_24  and  O_25
REMARK    6  A    between atoms: C_26  and  O_27
REMARK                            x       y       z     vdW  Elec       q    Type
REMARK                         _______ _______ _______ _____ _____    ______ ____
ROOT
ATOM      1  C   UNL     1       2.226   3.309  19.640  0.00  0.00    +0.000 C 
ATOM      2  C   UNL     1       2.560   3.600  18.166  0.00  0.00    +0.000 C 
ATOM      3  C   UNL     1       4.069   3.355  17.990  0.00  0.00    +0.000 C 
ATOM      4  C   UNL     1       4.560   2.782  19.329  0.00  0.00    +0.000 C 
ATOM      5  C   UNL     1       3.567   3.299  20.374  0.00  0.00    +0.000 C 
ENDROOT
BRANCH   3   6
ATOM      6  N   UNL     1       4.805   4.521  17.518  0.00  0.00    +0.000 N 
ATOM      7  C   UNL     1       4.453   5.243  16.398  0.00  0.00    +0.000 A 
ATOM      8  C   UNL     1       5.338   6.289  16.264  0.00  0.00    +0.000 A 
ATOM      9  C   UNL     1       6.262   6.212  17.340  0.00  0.00    +0.000 A 
ATOM     10  C   UNL     1       7.368   6.955  17.780  0.00  0.00    +0.000 A 
ATOM     11  N   UNL     1       7.839   8.088  17.134  0.00  0.00    +0.000 N 
ATOM     12  N   UNL     1       8.023   6.557  18.886  0.00  0.00    +0.000 NA
ATOM     13  C   UNL     1       7.564   5.474  19.541  0.00  0.00    +0.000 A 
ATOM     14  N   UNL     1       6.519   4.690  19.220  0.00  0.00    +0.000 NA
ATOM     15  C   UNL     1       5.904   5.106  18.101  0.00  0.00    +0.000 A 
ATOM     16  H   UNL     1       7.623   8.155  16.150  0.00  0.00    +0.000 HD
ATOM     17  H   UNL     1       8.788   8.302  17.415  0.00  0.00    +0.000 HD
ENDBRANCH   3   6
BRANCH   4  18
ATOM     18  O   UNL     1       4.510   1.341  19.316  0.00  0.00    +0.000 OA
ATOM     19  H   UNL     1       5.420   0.998  19.258  0.00  0.00    +0.000 HD
ENDBRANCH   4  18
BRANCH   5  20
ATOM     20  O   UNL     1       3.495   2.441  21.509  0.00  0.00    +0.000 OA
ATOM     21  H   UNL     1       4.217   1.788  21.416  0.00  0.00    +0.000 HD
ENDBRANCH   5  20
BRANCH   1  22
ATOM     22  C   UNL     1       1.274   4.336  20.251  0.00  0.00    +0.000 C 
BRANCH  22  23
ATOM     23  N   UNL     1       2.027   5.485  20.747  0.00  0.00    +0.000 N 
ATOM     24  H   UNL     1       3.011   5.299  20.923  0.00  0.00    +0.000 HD
BRANCH  23  32
ATOM     25  N   UNL     1      -0.003  12.317  21.210  0.00  0.00    +0.000 N 
ATOM     26  C   UNL     1       0.542  11.312  20.416  0.00  0.00    +0.000 A 
ATOM     27  C   UNL     1       1.027  11.595  19.151  0.00  0.00    +0.000 A 
ATOM     28  C   UNL     1       1.592  10.565  18.406  0.00  0.00    +0.000 A 
ATOM     29  C   UNL     1       1.675   9.281  18.955  0.00  0.00    +0.000 A 
ATOM     30  C   UNL     1       2.256   8.207  18.265  0.00  0.00    +0.000 A 
ATOM     31  C   UNL     1       2.337   6.949  18.869  0.00  0.00    +0.000 A 
ATOM     32  C   UNL     1       1.829   6.737  20.154  0.00  0.00    +0.000 A 
ATOM     33  C   UNL     1       1.267   7.832  20.822  0.00  0.00    +0.000 A 
ATOM     34  C   UNL     1       1.169   9.095  20.253  0.00  0.00    +0.000 A 
ATOM     35  N   UNL     1       0.608  10.089  20.965  0.00  0.00    +0.000 NA
ATOM     36  H   UNL     1      -0.737  12.823  20.730  0.00  0.00    +0.000 HD
ATOM     37  H   UNL     1      -0.339  11.868  22.059  0.00  0.00    +0.000 HD
ENDBRANCH  23  32
ENDBRANCH  22  23
ENDBRANCH   1  22
TORSDOF 6
ENDMDL
MODEL 2
REMARK VINA RESULT:      -9.2      4.388      7.512
REMARK  Name = 
REMARK  6 active torsions:
REMARK  status: ('A' for Active; 'I' for Inactive)
REMARK    1  A    between atoms: C_8  and  N_9
REMARK    2  A    between atoms: N_9  and  C_10
REMARK    3  A    between atoms: C_10  and  C_11
REMARK    4  A    between atoms: C_13  and  N_14
REMARK    5  A    between atoms: C_24  and  O_25
REMARK    6  A    between atoms: C_26  and  O_27
REMARK                            x       y       z     vdW  Elec       q    Type
REMARK                         _______ _______ _______ _____ _____    ______ ____
ROOT
ATOM      1  C   UNL     1       7.961   6.838  17.750  0.00  0.00    +0.000 C 
ATOM      2  C   UNL     1       7.366   6.148  18.990  0.00  0.00    +0.000 C 
ATOM      3  C   UNL     1       6.470   5.004  18.483  0.00  0.00    +0.000 C 
ATOM      4  C   UNL     1       6.675   4.955  16.960  0.00  0.00    +0.000 C 
ATOM      5  C   UNL     1       7.111   6.369  16.569  0.00  0.00    +0.000 C 
ENDROOT
BRANCH   3   6
ATOM      6  N   UNL     1       5.080   5.110  18.908  0.00  0.00    +0.000 N 
ATOM      7  C   UNL     1       4.306   6.233  18.711  0.00  0.00    +0.000 A 
ATOM      8  C   UNL     1       3.045   5.979  19.202  0.00  0.00    +0.000 A 
ATOM      9  C   UNL     1       3.041   4.654  19.713  0.00  0.00    +0.000 A 
ATOM     10  C   UNL     1       2.102   3.805  20.319  0.00  0.00    +0.000 A 
ATOM     11  N   UNL     1       0.788   4.170  20.573  0.00  0.00    +0.000 N 
ATOM     12  N   UNL     1       2.482   2.568  20.685  0.00  0.00    +0.000 NA
ATOM     13  C   UNL     1       3.746   2.188  20.422  0.00  0.00    +0.000 A 
ATOM     14  N   UNL     1       4.727   2.906  19.847  0.00  0.00    +0.000 NA
ATOM     15  C   UNL     1       4.317   4.140  19.514  0.00  0.00    +0.000 A 
ATOM     16  H   UNL     1       0.617   5.160  20.669  0.00  0.00    +0.000 HD
ATOM     17  H   UNL     1       0.365   3.559  21.261  0.00  0.00    +0.000 HD
ENDBRANCH   3   6
BRANCH   4  18
ATOM     18  O   UNL     1       7.731   4.034  16.618  0.00  0.00    +0.000 OA
ATOM     19  H   UNL     1       8.413   4.515  16.114  0.00  0.00    +0.000 HD
ENDBRANCH   4  18
BRANCH   5  20
ATOM     20  O   UNL     1       7.889   6.375  15.376  0.00  0.00    +0.000 OA
ATOM     21  H   UNL     1       8.824   6.294  15.649  0.00  0.00    +0.000 HD
ENDBRANCH   5  20
BRANCH   1  22
ATOM     22  C   UNL     1       7.960   8.361  17.856  0.00  0.00    +0.000 C 
BRANCH  22  23
ATOM     23  N   UNL     1       8.527   8.775  19.137  0.00  0.00    +0.000 N 
ATOM     24  H   UNL     1       9.017   8.038  19.638  0.00  0.00    +0.000 HD
BRANCH  23  32
ATOM     25  N   UNL     1      11.133  14.651  16.023  0.00  0.00    +0.000 N 
ATOM     26  C   UNL     1      10.908  13.961  17.211  0.00  0.00    +0.000 A 
ATOM     27  C   UNL     1      11.181  14.549  18.433  0.00  0.00    +0.000 A 
ATOM     28  C   UNL     1      10.909  13.834  19.595  0.00  0.00    +0.000 A 
ATOM     29  C   UNL     1      10.351  12.554  19.503  0.00  0.00    +0.000 A 
ATOM     30  C   UNL     1      10.031  11.793  20.637  0.00  0.00    +0.000 A 
ATOM     31  C   UNL     1       9.452  10.530  20.491  0.00  0.00    +0.000 A 
ATOM     32  C   UNL     1       9.199  10.000  19.222  0.00  0.00    +0.000 A 
ATOM     33  C   UNL     1       9.518  10.789  18.110  0.00  0.00    +0.000 A 
ATOM     34  C   UNL     1      10.095  12.047  18.217  0.00  0.00    +0.000 A 
ATOM     35  N   UNL     1      10.374  12.734  17.095  0.00  0.00    +0.000 NA
ATOM     36  H   UNL     1      12.080  15.003  15.964  0.00  0.00    +0.000 HD
ATOM     37  H   UNL     1      10.916  14.007  15.266  0.00  0.00    +0.000 HD
ENDBRANCH  23  32
ENDBRANCH  22  23
ENDBRANCH   1  22
TORSDOF 6
ENDMDL
MODEL 3
REMARK VINA RESULT:      -9.0      3.881      9.392
REMARK  Name = 
REMARK  6 active torsions:
REMARK  status: ('A' for Active; 'I' for Inactive)
REMARK    1  A    between atoms: C_8  and  N_9
REMARK    2  A    between atoms: N_9  and  C_10
REMARK    3  A    between atoms: C_10  and  C_11
REMARK    4  A    between atoms: C_13  and  N_14
REMARK    5  A    between atoms: C_24  and  O_25
REMARK    6  A    between atoms: C_26  and  O_27
REMARK                            x       y       z     vdW  Elec       q    Type
REMARK                         _______ _______ _______ _____ _____    ______ ____
ROOT
ATOM      1  C   UNL     1       1.371  10.025  19.193  0.00  0.00    +0.000 C 
ATOM      2  C   UNL     1       0.609  11.185  18.527  0.00  0.00    +0.000 C 
ATOM      3  C   UNL     1      -0.613  11.486  19.413  0.00  0.00    +0.000 C 
ATOM      4  C   UNL     1      -0.460  10.596  20.657  0.00  0.00    +0.000 C 
ATOM      5  C   UNL     1       0.397   9.413  20.199  0.00  0.00    +0.000 C 
ENDROOT
BRANCH   3   6
ATOM      6  N   UNL     1      -1.890  11.355  18.722  0.00  0.00    +0.000 N 
ATOM      7  C   UNL     1      -2.068  10.590  17.590  0.00  0.00    +0.000 A 
ATOM      8  C   UNL     1      -3.394  10.665  17.224  0.00  0.00    +0.000 A 
ATOM      9  C   UNL     1      -4.054  11.499  18.166  0.00  0.00    +0.000 A 
ATOM     10  C   UNL     1      -5.364  11.958  18.368  0.00  0.00    +0.000 A 
ATOM     11  N   UNL     1      -6.431  11.626  17.545  0.00  0.00    +0.000 N 
ATOM     12  N   UNL     1      -5.617  12.770  19.410  0.00  0.00    +0.000 NA
ATOM     13  C   UNL     1      -4.600  13.081  20.234  0.00  0.00    +0.000 A 
ATOM     14  N   UNL     1      -3.313  12.701  20.146  0.00  0.00    +0.000 NA
ATOM     15  C   UNL     1      -3.095  11.910  19.083  0.00  0.00    +0.000 A 
ATOM     16  H   UNL     1      -6.191  11.369  16.598  0.00  0.00    +0.000 HD
ATOM     17  H   UNL     1      -7.202  12.269  17.669  0.00  0.00    +0.000 HD
ENDBRANCH   3   6
BRANCH   4  18
ATOM     18  O   UNL     1       0.242  11.298  21.703  0.00  0.00    +0.000 OA
ATOM     19  H   UNL     1       0.944  10.718  22.051  0.00  0.00    +0.000 HD
ENDBRANCH   4  18
BRANCH   5  20
ATOM     20  O   UNL     1       1.116   8.827  21.280  0.00  0.00    +0.000 OA
ATOM     21  H   UNL     1       0.941   7.866  21.248  0.00  0.00    +0.000 HD
ENDBRANCH   5  20
BRANCH   1  22
ATOM     22  C   UNL     1       1.858   8.978  18.193  0.00  0.00    +0.000 C 
BRANCH  22  23
ATOM     23  N   UNL     1       2.333   7.792  18.900  0.00  0.00    +0.000 N 
ATOM     24  H   UNL     1       1.681   7.422  19.588  0.00  0.00    +0.000 HD
BRANCH  23  32
ATOM     25  N   UNL     1       7.644   5.539  14.690  0.00  0.00    +0.000 N 
ATOM     26  C   UNL     1       6.505   5.201  15.414  0.00  0.00    +0.000 A 
ATOM     27  C   UNL     1       6.121   3.879  15.550  0.00  0.00    +0.000 A 
ATOM     28  C   UNL     1       4.994   3.585  16.311  0.00  0.00    +0.000 A 
ATOM     29  C   UNL     1       4.291   4.623  16.933  0.00  0.00    +0.000 A 
ATOM     30  C   UNL     1       3.163   4.390  17.733  0.00  0.00    +0.000 A 
ATOM     31  C   UNL     1       2.513   5.460  18.354  0.00  0.00    +0.000 A 
ATOM     32  C   UNL     1       2.961   6.772  18.176  0.00  0.00    +0.000 A 
ATOM     33  C   UNL     1       4.098   6.971  17.382  0.00  0.00    +0.000 A 
ATOM     34  C   UNL     1       4.768   5.932  16.749  0.00  0.00    +0.000 A 
ATOM     35  N   UNL     1       5.849   6.215  16.000  0.00  0.00    +0.000 NA
ATOM     36  H   UNL     1       7.628   5.150  13.755  0.00  0.00    +0.000 HD
ATOM     37  H   UNL     1       7.694   6.555  14.681  0.00  0.00    +0.000 HD
ENDBRANCH  23  32
ENDBRANCH  22  23
ENDBRANCH   1  22
TORSDOF 6
ENDMDL
MODEL 4
REMARK VINA RESULT:      -8.9      2.070      2.760
REMARK  Name = 
REMARK  6 active torsions:
REMARK  status: ('A' for Active; 'I' for Inactive)
REMARK    1  A    between atoms: C_8  and  N_9
REMARK    2  A    between atoms: N_9  and  C_10
REMARK    3  A    between atoms: C_10  and  C_11
REMARK    4  A    between atoms: C_13  and  N_14
REMARK    5  A    between atoms: C_24  and  O_25
REMARK    6  A    between atoms: C_26  and  O_27
REMARK                            x       y       z     vdW  Elec       q    Type
REMARK                         _______ _______ _______ _____ _____    ______ ____
ROOT
ATOM      1  C   UNL     1       2.613   4.276  19.138  0.00  0.00    +0.000 C 
ATOM      2  C   UNL     1       2.777   4.731  17.677  0.00  0.00    +0.000 C 
ATOM      3  C   UNL     1       3.765   3.757  17.011  0.00  0.00    +0.000 C 
ATOM      4  C   UNL     1       4.046   2.665  18.056  0.00  0.00    +0.000 C 
ATOM      5  C   UNL     1       3.781   3.328  19.410  0.00  0.00    +0.000 C 
ENDROOT
BRANCH   3   6
ATOM      6  N   UNL     1       4.954   4.403  16.468  0.00  0.00    +0.000 N 
ATOM      7  C   UNL     1       5.771   5.236  17.202  0.00  0.00    +0.000 A 
ATOM      8  C   UNL     1       6.810   5.640  16.393  0.00  0.00    +0.000 A 
ATOM      9  C   UNL     1       6.629   5.032  15.123  0.00  0.00    +0.000 A 
ATOM     10  C   UNL     1       7.316   5.021  13.899  0.00  0.00    +0.000 A 
ATOM     11  N   UNL     1       8.491   5.722  13.670  0.00  0.00    +0.000 N 
ATOM     12  N   UNL     1       6.817   4.300  12.878  0.00  0.00    +0.000 NA
ATOM     13  C   UNL     1       5.692   3.593  13.090  0.00  0.00    +0.000 A 
ATOM     14  N   UNL     1       4.954   3.522  14.213  0.00  0.00    +0.000 NA
ATOM     15  C   UNL     1       5.471   4.269  15.201  0.00  0.00    +0.000 A 
ATOM     16  H   UNL     1       8.641   6.531  14.256  0.00  0.00    +0.000 HD
ATOM     17  H   UNL     1       8.665   5.830  12.678  0.00  0.00    +0.000 HD
ENDBRANCH   3   6
BRANCH   4  18
ATOM     18  O   UNL     1       3.134   1.560  17.896  0.00  0.00    +0.000 OA
ATOM     19  H   UNL     1       3.331   0.892  18.577  0.00  0.00    +0.000 HD
ENDBRANCH   4  18
BRANCH   5  20
ATOM     20  O   UNL     1       3.416   2.377  20.406  0.00  0.00    +0.000 OA
ATOM     21  H   UNL     1       2.439   2.332  20.407  0.00  0.00    +0.000 HD
ENDBRANCH   5  20
BRANCH   1  22
ATOM     22  C   UNL     1       2.609   5.439  20.128  0.00  0.00    +0.000 C 
BRANCH  22  23
ATOM     23  N   UNL     1       3.001   6.674  19.454  0.00  0.00    +0.000 N 
ATOM     24  H   UNL     1       3.435   6.537  18.544  0.00  0.00    +0.000 HD
BRANCH  23  32
ATOM     25  N   UNL     1      -1.123  11.319  22.978  0.00  0.00    +0.000 N 
ATOM     26  C   UNL     1      -0.602  10.917  21.752  0.00  0.00    +0.000 A 
ATOM     27  C   UNL     1      -0.813  11.674  20.613  0.00  0.00    +0.000 A 
ATOM     28  C   UNL     1      -0.245  11.250  19.415  0.00  0.00    +0.000 A 
ATOM     29  C   UNL     1       0.536  10.089  19.394  0.00  0.00    +0.000 A 
ATOM     30  C   UNL     1       1.155   9.624  18.225  0.00  0.00    +0.000 A 
ATOM     31  C   UNL     1       1.946   8.473  18.262  0.00  0.00    +0.000 A 
ATOM     32  C   UNL     1       2.119   7.761  19.453  0.00  0.00    +0.000 A 
ATOM     33  C   UNL     1       1.499   8.258  20.606  0.00  0.00    +0.000 A 
ATOM     34  C   UNL     1       0.705   9.397  20.605  0.00  0.00    +0.000 A 
ATOM     35  N   UNL     1       0.141   9.800  21.758  0.00  0.00    +0.000 NA
ATOM     36  H   UNL     1      -2.120  11.489  22.930  0.00  0.00    +0.000 HD
ATOM     37  H   UNL     1      -0.891  10.589  23.648  0.00  0.00    +0.000 HD
ENDBRANCH  23  32
ENDBRANCH  22  23
ENDBRANCH   1  22
TORSDOF 6
ENDMDL
MODEL 5
REMARK VINA RESULT:      -8.9      3.902      9.142
REMARK  Name = 
REMARK  6 active torsions:
REMARK  status: ('A' for Active; 'I' for Inactive)
REMARK    1  A    between atoms: C_8  and  N_9
REMARK    2  A    between atoms: N_9  and  C_10
REMARK    3  A    between atoms: C_10  and  C_11
REMARK    4  A    between atoms: C_13  and  N_14
REMARK    5  A    between atoms: C_24  and  O_25
REMARK    6  A    between atoms: C_26  and  O_27
REMARK                            x       y       z     vdW  Elec       q    Type
REMARK                         _______ _______ _______ _____ _____    ______ ____
ROOT
ATOM      1  C   UNL     1       0.904  10.042  21.816  0.00  0.00    +0.000 C 
ATOM      2  C   UNL     1       0.737  10.968  20.598  0.00  0.00    +0.000 C 
ATOM      3  C   UNL     1      -0.609  11.695  20.768  0.00  0.00    +0.000 C 
ATOM      4  C   UNL     1      -1.132  11.291  22.156  0.00  0.00    +0.000 C 
ATOM      5  C   UNL     1      -0.484   9.936  22.449  0.00  0.00    +0.000 C 
ENDROOT
BRANCH   3   6
ATOM      6  N   UNL     1      -1.544  11.470  19.673  0.00  0.00    +0.000 N 
ATOM      7  C   UNL     1      -1.260  10.680  18.579  0.00  0.00    +0.000 A 
ATOM      8  C   UNL     1      -2.370  10.661  17.763  0.00  0.00    +0.000 A 
ATOM      9  C   UNL     1      -3.371  11.460  18.378  0.00  0.00    +0.000 A 
ATOM     10  C   UNL     1      -4.691  11.831  18.084  0.00  0.00    +0.000 A 
ATOM     11  N   UNL     1      -5.371  11.418  16.948  0.00  0.00    +0.000 N 
ATOM     12  N   UNL     1      -5.347  12.637  18.938  0.00  0.00    +0.000 NA
ATOM     13  C   UNL     1      -4.712  13.027  20.059  0.00  0.00    +0.000 A 
ATOM     14  N   UNL     1      -3.458  12.734  20.448  0.00  0.00    +0.000 NA
ATOM     15  C   UNL     1      -2.829  11.946  19.561  0.00  0.00    +0.000 A 
ATOM     16  H   UNL     1      -4.795  11.166  16.158  0.00  0.00    +0.000 HD
ATOM     17  H   UNL     1      -6.173  12.009  16.766  0.00  0.00    +0.000 HD
ENDBRANCH   3   6
BRANCH   4  18
ATOM     18  O   UNL     1      -0.704  12.235  23.157  0.00  0.00    +0.000 OA
ATOM     19  H   UNL     1      -0.548  11.756  23.991  0.00  0.00    +0.000 HD
ENDBRANCH   4  18
BRANCH   5  20
ATOM     20  O   UNL     1      -0.365   9.695  23.848  0.00  0.00    +0.000 OA
ATOM     21  H   UNL     1      -0.989   8.974  24.064  0.00  0.00    +0.000 HD
ENDBRANCH   5  20
BRANCH   1  22
ATOM     22  C   UNL     1       1.446   8.662  21.448  0.00  0.00    +0.000 C 
BRANCH  22  23
ATOM     23  N   UNL     1       1.288   8.427  20.015  0.00  0.00    +0.000 N 
ATOM     24  H   UNL     1       1.039   9.254  19.478  0.00  0.00    +0.000 HD
BRANCH  23  32
ATOM     25  N   UNL     1       4.953   2.326  19.424  0.00  0.00    +0.000 N 
ATOM     26  C   UNL     1       4.656   3.568  18.870  0.00  0.00    +0.000 A 
ATOM     27  C   UNL     1       5.136   3.918  17.621  0.00  0.00    +0.000 A 
ATOM     28  C   UNL     1       4.787   5.157  17.093  0.00  0.00    +0.000 A 
ATOM     29  C   UNL     1       3.947   6.005  17.823  0.00  0.00    +0.000 A 
ATOM     30  C   UNL     1       3.537   7.255  17.335  0.00  0.00    +0.000 A 
ATOM     31  C   UNL     1       2.676   8.054  18.092  0.00  0.00    +0.000 A 
ATOM     32  C   UNL     1       2.225   7.632  19.346  0.00  0.00    +0.000 A 
ATOM     33  C   UNL     1       2.641   6.375  19.800  0.00  0.00    +0.000 A 
ATOM     34  C   UNL     1       3.496   5.555  19.075  0.00  0.00    +0.000 A 
ATOM     35  N   UNL     1       3.850   4.364  19.591  0.00  0.00    +0.000 NA
ATOM     36  H   UNL     1       5.949   2.148  19.443  0.00  0.00    +0.000 HD
ATOM     37  H   UNL     1       4.545   2.317  20.356  0.00  0.00    +0.000 HD
ENDBRANCH  23  32
ENDBRANCH  22  23
ENDBRANCH   1  22
TORSDOF 6
ENDMDL
MODEL 6
REMARK VINA RESULT:      -8.9      4.207      9.835
REMARK  Name = 
REMARK  6 active torsions:
REMARK  status: ('A' for Active; 'I' for Inactive)
REMARK    1  A    between atoms: C_8  and  N_9
REMARK    2  A    between atoms: N_9  and  C_10
REMARK    3  A    between atoms: C_10  and  C_11
REMARK    4  A    between atoms: C_13  and  N_14
REMARK    5  A    between atoms: C_24  and  O_25
REMARK    6  A    between atoms: C_26  and  O_27
REMARK                            x       y       z     vdW  Elec       q    Type
REMARK                         _______ _______ _______ _____ _____    ______ ____
ROOT
ATOM      1  C   UNL     1       0.292  10.395  18.497  0.00  0.00    +0.000 C 
ATOM      2  C   UNL     1      -1.116  10.277  19.110  0.00  0.00    +0.000 C 
ATOM      3  C   UNL     1      -1.583  11.705  19.440  0.00  0.00    +0.000 C 
ATOM      4  C   UNL     1      -0.501  12.642  18.878  0.00  0.00    +0.000 C 
ATOM      5  C   UNL     1       0.778  11.802  18.846  0.00  0.00    +0.000 C 
ENDROOT
BRANCH   3   6
ATOM      6  N   UNL     1      -1.898  11.912  20.848  0.00  0.00    +0.000 N 
ATOM      7  C   UNL     1      -0.998  11.700  21.869  0.00  0.00    +0.000 A 
ATOM      8  C   UNL     1      -1.613  12.022  23.059  0.00  0.00    +0.000 A 
ATOM      9  C   UNL     1      -2.933  12.452  22.759  0.00  0.00    +0.000 A 
ATOM     10  C   UNL     1      -4.038  12.915  23.490  0.00  0.00    +0.000 A 
ATOM     11  N   UNL     1      -4.042  13.057  24.870  0.00  0.00    +0.000 N 
ATOM     12  N   UNL     1      -5.166  13.237  22.833  0.00  0.00    +0.000 NA
ATOM     13  C   UNL     1      -5.172  13.130  21.491  0.00  0.00    +0.000 A 
ATOM     14  N   UNL     1      -4.180  12.707  20.687  0.00  0.00    +0.000 NA
ATOM     15  C   UNL     1      -3.079  12.375  21.380  0.00  0.00    +0.000 A 
ATOM     16  H   UNL     1      -3.389  12.473  25.374  0.00  0.00    +0.000 HD
ATOM     17  H   UNL     1      -4.986  13.111  25.230  0.00  0.00    +0.000 HD
ENDBRANCH   3   6
BRANCH   4  18
ATOM     18  O   UNL     1      -0.824  13.044  17.532  0.00  0.00    +0.000 OA
ATOM     19  H   UNL     1      -0.849  12.250  16.966  0.00  0.00    +0.000 HD
ENDBRANCH   4  18
BRANCH   5  20
ATOM     20  O   UNL     1       1.692  12.261  17.855  0.00  0.00    +0.000 OA
ATOM     21  H   UNL     1       2.055  11.467  17.416  0.00  0.00    +0.000 HD
ENDBRANCH   5  20
BRANCH   1  22
ATOM     22  C   UNL     1       1.260   9.334  19.017  0.00  0.00    +0.000 C 
BRANCH  22  23
ATOM     23  N   UNL     1       2.228   8.987  17.980  0.00  0.00    +0.000 N 
ATOM     24  H   UNL     1       2.966   9.674  17.845  0.00  0.00    +0.000 HD
BRANCH  23  32
ATOM     25  N   UNL     1       1.210   1.948  18.633  0.00  0.00    +0.000 N 
ATOM     26  C   UNL     1       2.082   2.974  18.279  0.00  0.00    +0.000 A 
ATOM     27  C   UNL     1       3.315   2.692  17.718  0.00  0.00    +0.000 A 
ATOM     28  C   UNL     1       4.139   3.750  17.349  0.00  0.00    +0.000 A 
ATOM     29  C   UNL     1       3.698   5.065  17.534  0.00  0.00    +0.000 A 
ATOM     30  C   UNL     1       4.472   6.174  17.161  0.00  0.00    +0.000 A 
ATOM     31  C   UNL     1       3.975   7.467  17.343  0.00  0.00    +0.000 A 
ATOM     32  C   UNL     1       2.715   7.677  17.913  0.00  0.00    +0.000 A 
ATOM     33  C   UNL     1       1.962   6.550  18.264  0.00  0.00    +0.000 A 
ATOM     34  C   UNL     1       2.424   5.251  18.098  0.00  0.00    +0.000 A 
ATOM     35  N   UNL     1       1.636   4.226  18.469  0.00  0.00    +0.000 NA
ATOM     36  H   UNL     1       1.651   1.270  19.242  0.00  0.00    +0.000 HD
ATOM     37  H   UNL     1       0.404   2.388  19.072  0.00  0.00    +0.000 HD
ENDBRANCH  23  32
ENDBRANCH  22  23
ENDBRANCH   1  22
TORSDOF 6
ENDMDL
MODEL 7
REMARK VINA RESULT:      -8.8      1.934      2.548
REMARK  Name = 
REMARK  6 active torsions:
REMARK  status: ('A' for Active; 'I' for Inactive)
REMARK    1  A    between atoms: C_8  and  N_9
REMARK    2  A    between atoms: N_9  and  C_10
REMARK    3  A    between atoms: C_10  and  C_11
REMARK    4  A    between atoms: C_13  and  N_14
REMARK    5  A    between atoms: C_24  and  O_25
REMARK    6  A    between atoms: C_26  and  O_27
REMARK                            x       y       z     vdW  Elec       q    Type
REMARK                         _______ _______ _______ _____ _____    ______ ____
ROOT
ATOM      1  C   UNL     1       1.493   4.545  19.901  0.00  0.00    +0.000 C 
ATOM      2  C   UNL     1       1.740   4.885  18.420  0.00  0.00    +0.000 C 
ATOM      3  C   UNL     1       2.354   3.634  17.768  0.00  0.00    +0.000 C 
ATOM      4  C   UNL     1       2.317   2.538  18.846  0.00  0.00    +0.000 C 
ATOM      5  C   UNL     1       2.317   3.288  20.180  0.00  0.00    +0.000 C 
ENDROOT
BRANCH   3   6
ATOM      6  N   UNL     1       3.665   3.862  17.174  0.00  0.00    +0.000 N 
ATOM      7  C   UNL     1       4.409   2.872  16.568  0.00  0.00    +0.000 A 
ATOM      8  C   UNL     1       5.571   3.439  16.091  0.00  0.00    +0.000 A 
ATOM      9  C   UNL     1       5.537   4.823  16.408  0.00  0.00    +0.000 A 
ATOM     10  C   UNL     1       6.375   5.929  16.201  0.00  0.00    +0.000 A 
ATOM     11  N   UNL     1       7.593   5.859  15.541  0.00  0.00    +0.000 N 
ATOM     12  N   UNL     1       5.993   7.132  16.668  0.00  0.00    +0.000 NA
ATOM     13  C   UNL     1       4.802   7.224  17.288  0.00  0.00    +0.000 A 
ATOM     14  N   UNL     1       3.918   6.242  17.539  0.00  0.00    +0.000 NA
ATOM     15  C   UNL     1       4.342   5.055  17.078  0.00  0.00    +0.000 A 
ATOM     16  H   UNL     1       8.044   4.956  15.547  0.00  0.00    +0.000 HD
ATOM     17  H   UNL     1       8.168   6.665  15.749  0.00  0.00    +0.000 HD
ENDBRANCH   3   6
BRANCH   4  18
ATOM     18  O   UNL     1       1.102   1.768  18.748  0.00  0.00    +0.000 OA
ATOM     19  H   UNL     1       1.161   1.012  19.361  0.00  0.00    +0.000 HD
ENDBRANCH   4  18
BRANCH   5  20
ATOM     20  O   UNL     1       1.709   2.527  21.219  0.00  0.00    +0.000 OA
ATOM     21  H   UNL     1       1.019   3.094  21.617  0.00  0.00    +0.000 HD
ENDBRANCH   5  20
BRANCH   1  22
ATOM     22  C   UNL     1       1.883   5.679  20.847  0.00  0.00    +0.000 C 
BRANCH  22  23
ATOM     23  N   UNL     1       2.269   6.861  20.081  0.00  0.00    +0.000 N 
ATOM     24  H   UNL     1       2.408   6.692  19.088  0.00  0.00    +0.000 HD
BRANCH  23  32
ATOM     25  N   UNL     1      -1.002  12.723  17.642  0.00  0.00    +0.000 N 
ATOM     26  C   UNL     1      -0.628  11.971  18.752  0.00  0.00    +0.000 A 
ATOM     27  C   UNL     1      -1.049  12.326  20.021  0.00  0.00    +0.000 A 
ATOM     28  C   UNL     1      -0.678  11.526  21.097  0.00  0.00    +0.000 A 
ATOM     29  C   UNL     1       0.091  10.379  20.871  0.00  0.00    +0.000 A 
ATOM     30  C   UNL     1       0.477   9.519  21.909  0.00  0.00    +0.000 A 
ATOM     31  C   UNL     1       1.223   8.371  21.627  0.00  0.00    +0.000 A 
ATOM     32  C   UNL     1       1.609   8.073  20.317  0.00  0.00    +0.000 A 
ATOM     33  C   UNL     1       1.199   8.944  19.301  0.00  0.00    +0.000 A 
ATOM     34  C   UNL     1       0.458  10.093  19.544  0.00  0.00    +0.000 A 
ATOM     35  N   UNL     1       0.111  10.877  18.508  0.00  0.00    +0.000 NA
ATOM     36  H   UNL     1      -0.774  13.703  17.754  0.00  0.00    +0.000 HD
ATOM     37  H   UNL     1      -0.534  12.310  16.838  0.00  0.00    +0.000 HD
ENDBRANCH  23  32
ENDBRANCH  22  23
ENDBRANCH   1  22
TORSDOF 6
ENDMDL
MODEL 8
REMARK VINA RESULT:      -8.8      4.541      7.145
REMARK  Name = 
REMARK  6 active torsions:
REMARK  status: ('A' for Active; 'I' for Inactive)
REMARK    1  A    between atoms: C_8  and  N_9
REMARK    2  A    between atoms: N_9  and  C_10
REMARK    3  A    between atoms: C_10  and  C_11
REMARK    4  A    between atoms: C_13  and  N_14
REMARK    5  A    between atoms: C_24  and  O_25
REMARK    6  A    between atoms: C_26  and  O_27
REMARK                            x       y       z     vdW  Elec       q    Type
REMARK                         _______ _______ _______ _____ _____    ______ ____
ROOT
ATOM      1  C   UNL     1       7.832   6.680  17.914  0.00  0.00    +0.000 C 
ATOM      2  C   UNL     1       7.259   5.950  19.143  0.00  0.00    +0.000 C 
ATOM      3  C   UNL     1       6.403   4.786  18.615  0.00  0.00    +0.000 C 
ATOM      4  C   UNL     1       6.612   4.768  17.092  0.00  0.00    +0.000 C 
ATOM      5  C   UNL     1       7.000   6.202  16.724  0.00  0.00    +0.000 C 
ENDROOT
BRANCH   3   6
ATOM      6  N   UNL     1       5.010   4.838  19.040  0.00  0.00    +0.000 N 
ATOM      7  C   UNL     1       4.362   6.005  19.384  0.00  0.00    +0.000 A 
ATOM      8  C   UNL     1       3.057   5.695  19.700  0.00  0.00    +0.000 A 
ATOM      9  C   UNL     1       2.896   4.293  19.538  0.00  0.00    +0.000 A 
ATOM     10  C   UNL     1       1.847   3.372  19.681  0.00  0.00    +0.000 A 
ATOM     11  N   UNL     1       0.564   3.723  20.074  0.00  0.00    +0.000 N 
ATOM     12  N   UNL     1       2.084   2.072  19.432  0.00  0.00    +0.000 NA
ATOM     13  C   UNL     1       3.317   1.717  19.025  0.00  0.00    +0.000 A 
ATOM     14  N   UNL     1       4.393   2.505  18.849  0.00  0.00    +0.000 NA
ATOM     15  C   UNL     1       4.124   3.791  19.126  0.00  0.00    +0.000 A 
ATOM     16  H   UNL     1       0.487   4.570  20.617  0.00  0.00    +0.000 HD
ATOM     17  H   UNL     1       0.048   2.915  20.400  0.00  0.00    +0.000 HD
ENDBRANCH   3   6
BRANCH   4  18
ATOM     18  O   UNL     1       7.698   3.889  16.737  0.00  0.00    +0.000 OA
ATOM     19  H   UNL     1       7.420   2.969  16.898  0.00  0.00    +0.000 HD
ENDBRANCH   4  18
BRANCH   5  20
ATOM     20  O   UNL     1       7.779   6.253  15.533  0.00  0.00    +0.000 OA
ATOM     21  H   UNL     1       7.265   5.795  14.839  0.00  0.00    +0.000 HD
ENDBRANCH   5  20
BRANCH   1  22
ATOM     22  C   UNL     1       7.780   8.201  18.045  0.00  0.00    +0.000 C 
BRANCH  22  23
ATOM     23  N   UNL     1       8.820   8.661  18.962  0.00  0.00    +0.000 N 
ATOM     24  H   UNL     1       9.658   8.085  18.973  0.00  0.00    +0.000 HD
BRANCH  23  32
ATOM     25  N   UNL     1       9.804  14.646  22.733  0.00  0.00    +0.000 N 
ATOM     26  C   UNL     1       9.845  14.033  21.484  0.00  0.00    +0.000 A 
ATOM     27  C   UNL     1      10.338  14.708  20.382  0.00  0.00    +0.000 A 
ATOM     28  C   UNL     1      10.391  14.044  19.160  0.00  0.00    +0.000 A 
ATOM     29  C   UNL     1       9.967  12.712  19.080  0.00  0.00    +0.000 A 
ATOM     30  C   UNL     1      10.018  11.981  17.884  0.00  0.00    +0.000 A 
ATOM     31  C   UNL     1       9.607  10.645  17.863  0.00  0.00    +0.000 A 
ATOM     32  C   UNL     1       9.124  10.026  19.019  0.00  0.00    +0.000 A 
ATOM     33  C   UNL     1       9.097  10.779  20.200  0.00  0.00    +0.000 A 
ATOM     34  C   UNL     1       9.496  12.107  20.258  0.00  0.00    +0.000 A 
ATOM     35  N   UNL     1       9.431  12.757  21.434  0.00  0.00    +0.000 NA
ATOM     36  H   UNL     1       9.318  15.534  22.703  0.00  0.00    +0.000 HD
ATOM     37  H   UNL     1       9.357  13.988  23.368  0.00  0.00    +0.000 HD
ENDBRANCH  23  32
ENDBRANCH  22  23
ENDBRANCH   1  22
TORSDOF 6
ENDMDL
MODEL 9
REMARK VINA RESULT:      -8.8      4.181      9.946
REMARK  Name = 
REMARK  6 active torsions:
REMARK  status: ('A' for Active; 'I' for Inactive)
REMARK    1  A    between atoms: C_8  and  N_9
REMARK    2  A    between atoms: N_9  and  C_10
REMARK    3  A    between atoms: C_10  and  C_11
REMARK    4  A    between atoms: C_13  and  N_14
REMARK    5  A    between atoms: C_24  and  O_25
REMARK    6  A    between atoms: C_26  and  O_27
REMARK                            x       y       z     vdW  Elec       q    Type
REMARK                         _______ _______ _______ _____ _____    ______ ____
ROOT
ATOM      1  C   UNL     1       0.230  10.311  18.501  0.00  0.00    +0.000 C 
ATOM      2  C   UNL     1      -1.180  10.239  19.114  0.00  0.00    +0.000 C 
ATOM      3  C   UNL     1      -1.595  11.680  19.457  0.00  0.00    +0.000 C 
ATOM      4  C   UNL     1      -0.481  12.582  18.900  0.00  0.00    +0.000 C 
ATOM      5  C   UNL     1       0.767  11.696  18.860  0.00  0.00    +0.000 C 
ENDROOT
BRANCH   3   6
ATOM      6  N   UNL     1      -1.901  11.887  20.867  0.00  0.00    +0.000 N 
ATOM      7  C   UNL     1      -0.987  11.695  21.881  0.00  0.00    +0.000 A 
ATOM      8  C   UNL     1      -1.597  12.011  23.075  0.00  0.00    +0.000 A 
ATOM      9  C   UNL     1      -2.927  12.417  22.785  0.00  0.00    +0.000 A 
ATOM     10  C   UNL     1      -4.032  12.863  23.525  0.00  0.00    +0.000 A 
ATOM     11  N   UNL     1      -4.026  13.011  24.905  0.00  0.00    +0.000 N 
ATOM     12  N   UNL     1      -5.172  13.164  22.877  0.00  0.00    +0.000 NA
ATOM     13  C   UNL     1      -5.189  13.052  21.536  0.00  0.00    +0.000 A 
ATOM     14  N   UNL     1      -4.198  12.642  20.724  0.00  0.00    +0.000 NA
ATOM     15  C   UNL     1      -3.084  12.332  21.408  0.00  0.00    +0.000 A 
ATOM     16  H   UNL     1      -3.359  12.441  25.404  0.00  0.00    +0.000 HD
ATOM     17  H   UNL     1      -4.968  13.050  25.273  0.00  0.00    +0.000 HD
ENDBRANCH   3   6
BRANCH   4  18
ATOM     18  O   UNL     1      -0.791  13.006  17.558  0.00  0.00    +0.000 OA
ATOM     19  H   UNL     1      -0.141  13.679  17.286  0.00  0.00    +0.000 HD
ENDBRANCH   4  18
BRANCH   5  20
ATOM     20  O   UNL     1       1.696  12.130  17.871  0.00  0.00    +0.000 OA
ATOM     21  H   UNL     1       2.566  12.196  18.310  0.00  0.00    +0.000 HD
ENDBRANCH   5  20
BRANCH   1  22
ATOM     22  C   UNL     1       1.160   9.212  19.011  0.00  0.00    +0.000 C 
BRANCH  22  23
ATOM     23  N   UNL     1       2.363   9.149  18.185  0.00  0.00    +0.000 N 
ATOM     24  H   UNL     1       3.092   9.805  18.453  0.00  0.00    +0.000 HD
BRANCH  23  32
ATOM     25  N   UNL     1       7.459   5.196  15.119  0.00  0.00    +0.000 N 
ATOM     26  C   UNL     1       6.279   5.211  15.856  0.00  0.00    +0.000 A 
ATOM     27  C   UNL     1       5.751   4.040  16.369  0.00  0.00    +0.000 A 
ATOM     28  C   UNL     1       4.587   4.108  17.128  0.00  0.00    +0.000 A 
ATOM     29  C   UNL     1       3.993   5.352  17.371  0.00  0.00    +0.000 A 
ATOM     30  C   UNL     1       2.834   5.490  18.148  0.00  0.00    +0.000 A 
ATOM     31  C   UNL     1       2.295   6.757  18.383  0.00  0.00    +0.000 A 
ATOM     32  C   UNL     1       2.887   7.899  17.836  0.00  0.00    +0.000 A 
ATOM     33  C   UNL     1       4.050   7.731  17.075  0.00  0.00    +0.000 A 
ATOM     34  C   UNL     1       4.613   6.487  16.821  0.00  0.00    +0.000 A 
ATOM     35  N   UNL     1       5.729   6.416  16.073  0.00  0.00    +0.000 NA
ATOM     36  H   UNL     1       7.415   4.542  14.347  0.00  0.00    +0.000 HD
ATOM     37  H   UNL     1       7.620   6.150  14.803  0.00  0.00    +0.000 HD
ENDBRANCH  23  32
ENDBRANCH  22  23
ENDBRANCH   1  22
TORSDOF 6
ENDMDL
