MODEL 1
REMARK VINA RESULT:      -7.2      0.000      0.000
REMARK  Name = 
REMARK  4 active torsions:
REMARK  status: ('A' for Active; 'I' for Inactive)
REMARK    1  A    between atoms: N_3  and  C_4
REMARK    2  A    between atoms: C_4  and  C_5
REMARK    3  A    between atoms: C_5  and  O_6
REMARK    4  A    between atoms: N_12  and  C_13
REMARK                            x       y       z     vdW  Elec       q    Type
REMARK                         _______ _______ _______ _____ _____    ______ ____
ROOT
ATOM      1  O   UNL     1       4.772   5.580  16.400  0.00  0.00    +0.000 OA
ATOM      2  C   UNL     1       5.326   4.532  16.702  0.00  0.00    +0.000 C 
ATOM      3  N   UNL     1       5.252   4.004  17.975  0.00  0.00    +0.000 N 
ATOM      4  N   UNL     1       6.065   3.716  15.866  0.00  0.00    +0.000 N 
ATOM      5  H   UNL     1       6.030   3.436  18.269  0.00  0.00    +0.000 HD
ATOM      6  H   UNL     1       6.258   2.791  16.216  0.00  0.00    +0.000 HD
ENDROOT
BRANCH   4   7
ATOM      7  C   UNL     1       6.419   3.967  14.520  0.00  0.00    +0.000 A 
ATOM      8  C   UNL     1       5.806   3.330  13.433  0.00  0.00    +0.000 A 
ATOM      9  C   UNL     1       6.216   3.601  12.121  0.00  0.00    +0.000 A 
ATOM     10  C   UNL     1       7.230   4.520  11.883  0.00  0.00    +0.000 A 
ATOM     11  C   UNL     1       7.818   5.173  12.959  0.00  0.00    +0.000 A 
ATOM     12  F   UNL     1       8.785   6.068  12.737  0.00  0.00    +0.000 F 
ATOM     13  C   UNL     1       7.425   4.905  14.271  0.00  0.00    +0.000 A 
ENDBRANCH   4   7
BRANCH   3  14
ATOM     14  C   UNL     1       4.528   4.698  19.042  0.00  0.00    +0.000 C 
BRANCH  14  15
ATOM     15  C   UNL     1       3.063   4.227  19.131  0.00  0.00    +0.000 C 
ATOM     16  C   UNL     1       2.431   4.554  20.492  0.00  0.00    +0.000 C 
ATOM     17  C   UNL     1       1.010   4.011  20.562  0.00  0.00    +0.000 C 
ATOM     18  O   UNL     1       0.998   2.604  20.332  0.00  0.00    +0.000 OA
ATOM     19  C   UNL     1       1.491   2.269  19.032  0.00  0.00    +0.000 C 
ATOM     20  C   UNL     1       2.943   2.714  18.880  0.00  0.00    +0.000 C 
BRANCH  15  21
ATOM     21  O   UNL     1       2.327   4.889  18.087  0.00  0.00    +0.000 OA
ATOM     22  H   UNL     1       2.421   5.844  18.250  0.00  0.00    +0.000 HD
ENDBRANCH  15  21
ENDBRANCH  14  15
ENDBRANCH   3  14
TORSDOF 4
ENDMDL
MODEL 2
REMARK VINA RESULT:      -7.1      0.859      1.352
REMARK  Name = 
REMARK  4 active torsions:
REMARK  status: ('A' for Active; 'I' for Inactive)
REMARK    1  A    between atoms: N_3  and  C_4
REMARK    2  A    between atoms: C_4  and  C_5
REMARK    3  A    between atoms: C_5  and  O_6
REMARK    4  A    between atoms: N_12  and  C_13
REMARK                            x       y       z     vdW  Elec       q    Type
REMARK                         _______ _______ _______ _____ _____    ______ ____
ROOT
ATOM      1  O   UNL     1       4.517   5.305  16.480  0.00  0.00    +0.000 OA
ATOM      2  C   UNL     1       5.224   4.360  16.802  0.00  0.00    +0.000 C 
ATOM      3  N   UNL     1       5.211   3.839  18.080  0.00  0.00    +0.000 N 
ATOM      4  N   UNL     1       6.097   3.664  15.988  0.00  0.00    +0.000 N 
ATOM      5  H   UNL     1       6.064   3.403  18.393  0.00  0.00    +0.000 HD
ATOM      6  H   UNL     1       6.427   2.785  16.351  0.00  0.00    +0.000 HD
ENDROOT
BRANCH   4   7
ATOM      7  C   UNL     1       6.431   3.956  14.646  0.00  0.00    +0.000 A 
ATOM      8  C   UNL     1       5.773   3.384  13.549  0.00  0.00    +0.000 A 
ATOM      9  C   UNL     1       6.164   3.692  12.239  0.00  0.00    +0.000 A 
ATOM     10  C   UNL     1       7.203   4.585  12.014  0.00  0.00    +0.000 A 
ATOM     11  C   UNL     1       7.837   5.175  13.101  0.00  0.00    +0.000 A 
ATOM     12  F   UNL     1       8.829   6.045  12.891  0.00  0.00    +0.000 F 
ATOM     13  C   UNL     1       7.463   4.869  14.410  0.00  0.00    +0.000 A 
ENDBRANCH   4   7
BRANCH   3  14
ATOM     14  C   UNL     1       4.368   4.419  19.128  0.00  0.00    +0.000 C 
BRANCH  14  15
ATOM     15  C   UNL     1       3.206   3.479  19.503  0.00  0.00    +0.000 C 
ATOM     16  C   UNL     1       2.113   3.450  18.425  0.00  0.00    +0.000 C 
ATOM     17  C   UNL     1       0.954   2.565  18.866  0.00  0.00    +0.000 C 
ATOM     18  O   UNL     1       0.419   3.021  20.107  0.00  0.00    +0.000 OA
ATOM     19  C   UNL     1       1.386   2.970  21.159  0.00  0.00    +0.000 C 
ATOM     20  C   UNL     1       2.568   3.882  20.844  0.00  0.00    +0.000 C 
BRANCH  15  21
ATOM     21  O   UNL     1       3.750   2.158  19.673  0.00  0.00    +0.000 OA
ATOM     22  H   UNL     1       3.024   1.605  20.013  0.00  0.00    +0.000 HD
ENDBRANCH  15  21
ENDBRANCH  14  15
ENDBRANCH   3  14
TORSDOF 4
ENDMDL
MODEL 3
REMARK VINA RESULT:      -6.9      3.175      7.377
REMARK  Name = 
REMARK  4 active torsions:
REMARK  status: ('A' for Active; 'I' for Inactive)
REMARK    1  A    between atoms: N_3  and  C_4
REMARK    2  A    between atoms: C_4  and  C_5
REMARK    3  A    between atoms: C_5  and  O_6
REMARK    4  A    between atoms: N_12  and  C_13
REMARK                            x       y       z     vdW  Elec       q    Type
REMARK                         _______ _______ _______ _____ _____    ______ ____
ROOT
ATOM      1  O   UNL     1       4.721   5.292  17.648  0.00  0.00    +0.000 OA
ATOM      2  C   UNL     1       5.096   4.130  17.569  0.00  0.00    +0.000 C 
ATOM      3  N   UNL     1       6.243   3.776  16.888  0.00  0.00    +0.000 N 
ATOM      4  N   UNL     1       4.490   3.024  18.135  0.00  0.00    +0.000 N 
ATOM      5  H   UNL     1       6.261   2.848  16.496  0.00  0.00    +0.000 HD
ATOM      6  H   UNL     1       5.047   2.185  18.161  0.00  0.00    +0.000 HD
ENDROOT
BRANCH   4   7
ATOM      7  C   UNL     1       3.264   2.987  18.837  0.00  0.00    +0.000 A 
ATOM      8  C   UNL     1       2.048   2.625  18.241  0.00  0.00    +0.000 A 
ATOM      9  C   UNL     1       0.858   2.631  18.980  0.00  0.00    +0.000 A 
ATOM     10  C   UNL     1       0.874   2.984  20.324  0.00  0.00    +0.000 A 
ATOM     11  C   UNL     1       2.084   3.315  20.923  0.00  0.00    +0.000 A 
ATOM     12  F   UNL     1       2.109   3.642  22.218  0.00  0.00    +0.000 F 
ATOM     13  C   UNL     1       3.274   3.321  20.195  0.00  0.00    +0.000 A 
ENDBRANCH   4   7
BRANCH   3  14
ATOM     14  C   UNL     1       7.053   4.779  16.194  0.00  0.00    +0.000 C 
BRANCH  14  15
ATOM     15  C   UNL     1       6.695   4.858  14.696  0.00  0.00    +0.000 C 
ATOM     16  C   UNL     1       6.118   3.536  14.169  0.00  0.00    +0.000 C 
ATOM     17  C   UNL     1       5.843   3.635  12.674  0.00  0.00    +0.000 C 
ATOM     18  O   UNL     1       7.034   3.977  11.967  0.00  0.00    +0.000 OA
ATOM     19  C   UNL     1       7.547   5.250  12.365  0.00  0.00    +0.000 C 
ATOM     20  C   UNL     1       7.919   5.237  13.845  0.00  0.00    +0.000 C 
BRANCH  15  21
ATOM     21  O   UNL     1       5.723   5.906  14.534  0.00  0.00    +0.000 OA
ATOM     22  H   UNL     1       5.252   5.715  13.704  0.00  0.00    +0.000 HD
ENDBRANCH  15  21
ENDBRANCH  14  15
ENDBRANCH   3  14
TORSDOF 4
ENDMDL
MODEL 4
REMARK VINA RESULT:      -6.9      3.049      7.326
REMARK  Name = 
REMARK  4 active torsions:
REMARK  status: ('A' for Active; 'I' for Inactive)
REMARK    1  A    between atoms: N_3  and  C_4
REMARK    2  A    between atoms: C_4  and  C_5
REMARK    3  A    between atoms: C_5  and  O_6
REMARK    4  A    between atoms: N_12  and  C_13
REMARK                            x       y       z     vdW  Elec       q    Type
REMARK                         _______ _______ _______ _____ _____    ______ ____
ROOT
ATOM      1  O   UNL     1       4.784   5.557  17.534  0.00  0.00    +0.000 OA
ATOM      2  C   UNL     1       5.211   4.418  17.660  0.00  0.00    +0.000 C 
ATOM      3  N   UNL     1       6.401   4.015  17.090  0.00  0.00    +0.000 N 
ATOM      4  N   UNL     1       4.626   3.389  18.375  0.00  0.00    +0.000 N 
ATOM      5  H   UNL     1       6.476   3.038  16.856  0.00  0.00    +0.000 HD
ATOM      6  H   UNL     1       5.216   2.593  18.558  0.00  0.00    +0.000 HD
ENDROOT
BRANCH   4   7
ATOM      7  C   UNL     1       3.371   3.406  19.025  0.00  0.00    +0.000 A 
ATOM      8  C   UNL     1       3.132   4.104  20.216  0.00  0.00    +0.000 A 
ATOM      9  C   UNL     1       1.873   4.065  20.830  0.00  0.00    +0.000 A 
ATOM     10  C   UNL     1       0.839   3.341  20.251  0.00  0.00    +0.000 A 
ATOM     11  C   UNL     1       1.066   2.672  19.054  0.00  0.00    +0.000 A 
ATOM     12  F   UNL     1       0.072   1.985  18.485  0.00  0.00    +0.000 F 
ATOM     13  C   UNL     1       2.318   2.697  18.438  0.00  0.00    +0.000 A 
ENDBRANCH   4   7
BRANCH   3  14
ATOM     14  C   UNL     1       7.200   4.931  16.274  0.00  0.00    +0.000 C 
BRANCH  14  15
ATOM     15  C   UNL     1       6.747   4.917  14.801  0.00  0.00    +0.000 C 
ATOM     16  C   UNL     1       6.118   3.574  14.401  0.00  0.00    +0.000 C 
ATOM     17  C   UNL     1       5.749   3.579  12.923  0.00  0.00    +0.000 C 
ATOM     18  O   UNL     1       6.896   3.852  12.120  0.00  0.00    +0.000 OA
ATOM     19  C   UNL     1       7.451   5.139  12.399  0.00  0.00    +0.000 C 
ATOM     20  C   UNL     1       7.918   5.217  13.850  0.00  0.00    +0.000 C 
BRANCH  15  21
ATOM     21  O   UNL     1       5.781   5.970  14.630  0.00  0.00    +0.000 OA
ATOM     22  H   UNL     1       5.612   6.033  13.674  0.00  0.00    +0.000 HD
ENDBRANCH  15  21
ENDBRANCH  14  15
ENDBRANCH   3  14
TORSDOF 4
ENDMDL
MODEL 5
REMARK VINA RESULT:      -6.9      1.403      2.059
REMARK  Name = 
REMARK  4 active torsions:
REMARK  status: ('A' for Active; 'I' for Inactive)
REMARK    1  A    between atoms: N_3  and  C_4
REMARK    2  A    between atoms: C_4  and  C_5
REMARK    3  A    between atoms: C_5  and  O_6
REMARK    4  A    between atoms: N_12  and  C_13
REMARK                            x       y       z     vdW  Elec       q    Type
REMARK                         _______ _______ _______ _____ _____    ______ ____
ROOT
ATOM      1  O   UNL     1       4.459   5.319  16.467  0.00  0.00    +0.000 OA
ATOM      2  C   UNL     1       5.244   4.463  16.854  0.00  0.00    +0.000 C 
ATOM      3  N   UNL     1       5.261   4.023  18.161  0.00  0.00    +0.000 N 
ATOM      4  N   UNL     1       6.187   3.800  16.091  0.00  0.00    +0.000 N 
ATOM      5  H   UNL     1       6.145   3.686  18.507  0.00  0.00    +0.000 HD
ATOM      6  H   UNL     1       6.590   2.978  16.511  0.00  0.00    +0.000 HD
ENDROOT
BRANCH   4   7
ATOM      7  C   UNL     1       6.511   4.038  14.736  0.00  0.00    +0.000 A 
ATOM      8  C   UNL     1       7.466   4.978  14.328  0.00  0.00    +0.000 A 
ATOM      9  C   UNL     1       7.728   5.190  12.967  0.00  0.00    +0.000 A 
ATOM     10  C   UNL     1       7.050   4.453  12.005  0.00  0.00    +0.000 A 
ATOM     11  C   UNL     1       6.123   3.500  12.410  0.00  0.00    +0.000 A 
ATOM     12  F   UNL     1       5.476   2.779  11.490  0.00  0.00    +0.000 F 
ATOM     13  C   UNL     1       5.847   3.287  13.761  0.00  0.00    +0.000 A 
ENDBRANCH   4   7
BRANCH   3  14
ATOM     14  C   UNL     1       4.355   4.587  19.164  0.00  0.00    +0.000 C 
BRANCH  14  15
ATOM     15  C   UNL     1       3.224   3.603  19.522  0.00  0.00    +0.000 C 
ATOM     16  C   UNL     1       2.149   3.534  18.427  0.00  0.00    +0.000 C 
ATOM     17  C   UNL     1       1.018   2.606  18.850  0.00  0.00    +0.000 C 
ATOM     18  O   UNL     1       0.447   3.040  20.083  0.00  0.00    +0.000 OA
ATOM     19  C   UNL     1       1.399   3.025  21.149  0.00  0.00    +0.000 C 
ATOM     20  C   UNL     1       2.551   3.981  20.852  0.00  0.00    +0.000 C 
BRANCH  15  21
ATOM     21  O   UNL     1       3.815   2.303  19.699  0.00  0.00    +0.000 OA
ATOM     22  H   UNL     1       3.813   2.131  20.657  0.00  0.00    +0.000 HD
ENDBRANCH  15  21
ENDBRANCH  14  15
ENDBRANCH   3  14
TORSDOF 4
ENDMDL
MODEL 6
REMARK VINA RESULT:      -6.9      1.138      1.582
REMARK  Name = 
REMARK  4 active torsions:
REMARK  status: ('A' for Active; 'I' for Inactive)
REMARK    1  A    between atoms: N_3  and  C_4
REMARK    2  A    between atoms: C_4  and  C_5
REMARK    3  A    between atoms: C_5  and  O_6
REMARK    4  A    between atoms: N_12  and  C_13
REMARK                            x       y       z     vdW  Elec       q    Type
REMARK                         _______ _______ _______ _____ _____    ______ ____
ROOT
ATOM      1  O   UNL     1       4.796   5.657  16.426  0.00  0.00    +0.000 OA
ATOM      2  C   UNL     1       5.358   4.621  16.755  0.00  0.00    +0.000 C 
ATOM      3  N   UNL     1       5.284   4.124  18.040  0.00  0.00    +0.000 N 
ATOM      4  N   UNL     1       6.108   3.792  15.942  0.00  0.00    +0.000 N 
ATOM      5  H   UNL     1       6.065   3.570  18.351  0.00  0.00    +0.000 HD
ATOM      6  H   UNL     1       6.307   2.877  16.315  0.00  0.00    +0.000 HD
ENDROOT
BRANCH   4   7
ATOM      7  C   UNL     1       6.465   4.013  14.592  0.00  0.00    +0.000 A 
ATOM      8  C   UNL     1       7.430   4.948  14.196  0.00  0.00    +0.000 A 
ATOM      9  C   UNL     1       7.725   5.143  12.840  0.00  0.00    +0.000 A 
ATOM     10  C   UNL     1       7.070   4.395  11.870  0.00  0.00    +0.000 A 
ATOM     11  C   UNL     1       6.133   3.447  12.264  0.00  0.00    +0.000 A 
ATOM     12  F   UNL     1       5.509   2.714  11.337  0.00  0.00    +0.000 F 
ATOM     13  C   UNL     1       5.825   3.250  13.611  0.00  0.00    +0.000 A 
ENDBRANCH   4   7
BRANCH   3  14
ATOM     14  C   UNL     1       4.549   4.837  19.087  0.00  0.00    +0.000 C 
BRANCH  14  15
ATOM     15  C   UNL     1       3.068   4.411  19.130  0.00  0.00    +0.000 C 
ATOM     16  C   UNL     1       2.450   4.603  20.523  0.00  0.00    +0.000 C 
ATOM     17  C   UNL     1       1.011   4.106  20.540  0.00  0.00    +0.000 C 
ATOM     18  O   UNL     1       0.949   2.735  20.152  0.00  0.00    +0.000 OA
ATOM     19  C   UNL     1       1.428   2.533  18.820  0.00  0.00    +0.000 C 
ATOM     20  C   UNL     1       2.895   2.940  18.711  0.00  0.00    +0.000 C 
BRANCH  15  21
ATOM     21  O   UNL     1       2.355   5.212  18.172  0.00  0.00    +0.000 OA
ATOM     22  H   UNL     1       2.749   5.016  17.304  0.00  0.00    +0.000 HD
ENDBRANCH  15  21
ENDBRANCH  14  15
ENDBRANCH   3  14
TORSDOF 4
ENDMDL
MODEL 7
REMARK VINA RESULT:      -6.8      1.036      1.150
REMARK  Name = 
REMARK  4 active torsions:
REMARK  status: ('A' for Active; 'I' for Inactive)
REMARK    1  A    between atoms: N_3  and  C_4
REMARK    2  A    between atoms: C_4  and  C_5
REMARK    3  A    between atoms: C_5  and  O_6
REMARK    4  A    between atoms: N_12  and  C_13
REMARK                            x       y       z     vdW  Elec       q    Type
REMARK                         _______ _______ _______ _____ _____    ______ ____
ROOT
ATOM      1  O   UNL     1       4.814   6.121  16.336  0.00  0.00    +0.000 OA
ATOM      2  C   UNL     1       5.070   4.975  16.683  0.00  0.00    +0.000 C 
ATOM      3  N   UNL     1       4.787   4.515  17.953  0.00  0.00    +0.000 N 
ATOM      4  N   UNL     1       5.635   3.981  15.906  0.00  0.00    +0.000 N 
ATOM      5  H   UNL     1       5.379   3.779  18.304  0.00  0.00    +0.000 HD
ATOM      6  H   UNL     1       5.569   3.047  16.276  0.00  0.00    +0.000 HD
ENDROOT
BRANCH   4   7
ATOM      7  C   UNL     1       6.124   4.104  14.586  0.00  0.00    +0.000 A 
ATOM      8  C   UNL     1       5.547   3.451  13.489  0.00  0.00    +0.000 A 
ATOM      9  C   UNL     1       6.092   3.589  12.205  0.00  0.00    +0.000 A 
ATOM     10  C   UNL     1       7.206   4.393  12.004  0.00  0.00    +0.000 A 
ATOM     11  C   UNL     1       7.762   5.064  13.087  0.00  0.00    +0.000 A 
ATOM     12  F   UNL     1       8.826   5.849  12.899  0.00  0.00    +0.000 F 
ATOM     13  C   UNL     1       7.234   4.927  14.371  0.00  0.00    +0.000 A 
ENDBRANCH   4   7
BRANCH   3  14
ATOM     14  C   UNL     1       4.192   5.392  18.963  0.00  0.00    +0.000 C 
BRANCH  14  15
ATOM     15  C   UNL     1       3.104   4.663  19.776  0.00  0.00    +0.000 C 
ATOM     16  C   UNL     1       3.614   3.343  20.373  0.00  0.00    +0.000 C 
ATOM     17  C   UNL     1       2.492   2.622  21.107  0.00  0.00    +0.000 C 
ATOM     18  O   UNL     1       1.392   2.381  20.231  0.00  0.00    +0.000 OA
ATOM     19  C   UNL     1       0.829   3.596  19.731  0.00  0.00    +0.000 C 
ATOM     20  C   UNL     1       1.862   4.369  18.916  0.00  0.00    +0.000 C 
BRANCH  15  21
ATOM     21  O   UNL     1       2.687   5.541  20.836  0.00  0.00    +0.000 OA
ATOM     22  H   UNL     1       2.732   5.019  21.657  0.00  0.00    +0.000 HD
ENDBRANCH  15  21
ENDBRANCH  14  15
ENDBRANCH   3  14
TORSDOF 4
ENDMDL
MODEL 8
REMARK VINA RESULT:      -6.8      6.406      8.428
REMARK  Name = 
REMARK  4 active torsions:
REMARK  status: ('A' for Active; 'I' for Inactive)
REMARK    1  A    between atoms: N_3  and  C_4
REMARK    2  A    between atoms: C_4  and  C_5
REMARK    3  A    between atoms: C_5  and  O_6
REMARK    4  A    between atoms: N_12  and  C_13
REMARK                            x       y       z     vdW  Elec       q    Type
REMARK                         _______ _______ _______ _____ _____    ______ ____
ROOT
ATOM      1  O   UNL     1       8.322   7.168  18.718  0.00  0.00    +0.000 OA
ATOM      2  C   UNL     1       7.817   7.929  17.904  0.00  0.00    +0.000 C 
ATOM      3  N   UNL     1       8.142   9.269  17.854  0.00  0.00    +0.000 N 
ATOM      4  N   UNL     1       6.898   7.602  16.924  0.00  0.00    +0.000 N 
ATOM      5  H   UNL     1       7.428   9.889  17.506  0.00  0.00    +0.000 HD
ATOM      6  H   UNL     1       6.759   8.294  16.206  0.00  0.00    +0.000 HD
ENDROOT
BRANCH   4   7
ATOM      7  C   UNL     1       6.277   6.348  16.719  0.00  0.00    +0.000 A 
ATOM      8  C   UNL     1       6.893   5.287  16.042  0.00  0.00    +0.000 A 
ATOM      9  C   UNL     1       6.218   4.074  15.847  0.00  0.00    +0.000 A 
ATOM     10  C   UNL     1       4.930   3.907  16.339  0.00  0.00    +0.000 A 
ATOM     11  C   UNL     1       4.330   4.948  17.036  0.00  0.00    +0.000 A 
ATOM     12  F   UNL     1       3.096   4.789  17.524  0.00  0.00    +0.000 F 
ATOM     13  C   UNL     1       4.988   6.164  17.229  0.00  0.00    +0.000 A 
ENDBRANCH   4   7
BRANCH   3  14
ATOM     14  C   UNL     1       9.091   9.855  18.803  0.00  0.00    +0.000 C 
BRANCH  14  15
ATOM     15  C   UNL     1       9.389  11.330  18.467  0.00  0.00    +0.000 C 
ATOM     16  C   UNL     1      10.746  11.502  17.770  0.00  0.00    +0.000 C 
ATOM     17  C   UNL     1      11.032  12.977  17.520  0.00  0.00    +0.000 C 
ATOM     18  O   UNL     1      11.003  13.709  18.744  0.00  0.00    +0.000 OA
ATOM     19  C   UNL     1       9.721  13.649  19.373  0.00  0.00    +0.000 C 
ATOM     20  C   UNL     1       9.365  12.209  19.730  0.00  0.00    +0.000 C 
BRANCH  15  21
ATOM     21  O   UNL     1       8.340  11.801  17.602  0.00  0.00    +0.000 OA
ATOM     22  H   UNL     1       7.605  11.170  17.695  0.00  0.00    +0.000 HD
ENDBRANCH  15  21
ENDBRANCH  14  15
ENDBRANCH   3  14
TORSDOF 4
ENDMDL
MODEL 9
REMARK VINA RESULT:      -6.7      4.762      8.092
REMARK  Name = 
REMARK  4 active torsions:
REMARK  status: ('A' for Active; 'I' for Inactive)
REMARK    1  A    between atoms: N_3  and  C_4
REMARK    2  A    between atoms: C_4  and  C_5
REMARK    3  A    between atoms: C_5  and  O_6
REMARK    4  A    between atoms: N_12  and  C_13
REMARK                            x       y       z     vdW  Elec       q    Type
REMARK                         _______ _______ _______ _____ _____    ______ ____
ROOT
ATOM      1  O   UNL     1       2.135   6.328  18.044  0.00  0.00    +0.000 OA
ATOM      2  C   UNL     1       2.761   6.330  19.096  0.00  0.00    +0.000 C 
ATOM      3  N   UNL     1       3.787   5.440  19.340  0.00  0.00    +0.000 N 
ATOM      4  N   UNL     1       2.581   7.190  20.164  0.00  0.00    +0.000 N 
ATOM      5  H   UNL     1       3.949   5.200  20.304  0.00  0.00    +0.000 HD
ATOM      6  H   UNL     1       3.321   7.198  20.848  0.00  0.00    +0.000 HD
ENDROOT
BRANCH   4   7
ATOM      7  C   UNL     1       1.581   8.178  20.307  0.00  0.00    +0.000 A 
ATOM      8  C   UNL     1       1.328   9.161  19.341  0.00  0.00    +0.000 A 
ATOM      9  C   UNL     1       0.338  10.132  19.548  0.00  0.00    +0.000 A 
ATOM     10  C   UNL     1      -0.416  10.119  20.714  0.00  0.00    +0.000 A 
ATOM     11  C   UNL     1      -0.186   9.127  21.659  0.00  0.00    +0.000 A 
ATOM     12  F   UNL     1      -0.918   9.100  22.777  0.00  0.00    +0.000 F 
ATOM     13  C   UNL     1       0.802   8.160  21.468  0.00  0.00    +0.000 A 
ENDBRANCH   4   7
BRANCH   3  14
ATOM     14  C   UNL     1       4.157   4.422  18.355  0.00  0.00    +0.000 C 
BRANCH  14  15
ATOM     15  C   UNL     1       5.557   4.686  17.767  0.00  0.00    +0.000 C 
ATOM     16  C   UNL     1       5.931   6.176  17.809  0.00  0.00    +0.000 C 
ATOM     17  C   UNL     1       7.288   6.402  17.156  0.00  0.00    +0.000 C 
ATOM     18  O   UNL     1       7.284   5.927  15.812  0.00  0.00    +0.000 OA
ATOM     19  C   UNL     1       7.034   4.521  15.741  0.00  0.00    +0.000 C 
ATOM     20  C   UNL     1       5.658   4.193  16.313  0.00  0.00    +0.000 C 
BRANCH  15  21
ATOM     21  O   UNL     1       6.506   3.930  18.539  0.00  0.00    +0.000 OA
ATOM     22  H   UNL     1       6.392   4.211  19.463  0.00  0.00    +0.000 HD
ENDBRANCH  15  21
ENDBRANCH  14  15
ENDBRANCH   3  14
TORSDOF 4
ENDMDL
