MODEL 1
REMARK VINA RESULT:      -8.6      0.000      0.000
REMARK  Name = 
REMARK  8 active torsions:
REMARK  status: ('A' for Active; 'I' for Inactive)
REMARK    1  A    between atoms: C_1  and  N_2
REMARK    2  A    between atoms: N_5  and  C_6
REMARK    3  A    between atoms: C_6  and  C_7
REMARK    4  A    between atoms: C_7  and  C_8
REMARK    5  A    between atoms: C_8  and  N_9
REMARK    6  A    between atoms: N_9  and  C_10
REMARK    7  A    between atoms: C_15  and  C_16
REMARK    8  A    between atoms: N_28  and  O_29
REMARK                            x       y       z     vdW  Elec       q    Type
REMARK                         _______ _______ _______ _____ _____    ______ ____
ROOT
ATOM      1  C   UNL     1      -0.555  11.318  22.315  0.00  0.00    +0.000 A 
ATOM      2  C   UNL     1      -0.511  10.020  22.839  0.00  0.00    +0.000 A 
ATOM      3  C   UNL     1       0.137   8.988  22.154  0.00  0.00    +0.000 A 
ATOM      4  C   UNL     1       0.752   9.246  20.934  0.00  0.00    +0.000 A 
ATOM      5  O   UNL     1       1.339   8.183  20.299  0.00  0.00    +0.000 OA
ATOM      6  C   UNL     1       2.018   8.428  19.120  0.00  0.00    +0.000 A 
ATOM      7  C   UNL     1       2.127   9.632  18.541  0.00  0.00    +0.000 A 
ATOM      8  C   UNL     1       1.459  10.810  19.144  0.00  0.00    +0.000 A 
ATOM      9  N   UNL     1       1.479  12.017  18.659  0.00  0.00    +0.000 NA
ATOM     10  C   UNL     1       0.736  10.533  20.405  0.00  0.00    +0.000 A 
ATOM     11  C   UNL     1       0.057  11.553  21.078  0.00  0.00    +0.000 A 
ENDROOT
BRANCH   6  12
ATOM     12  C   UNL     1       2.652   7.247  18.506  0.00  0.00    +0.000 A 
ATOM     13  C   UNL     1       3.636   7.385  17.531  0.00  0.00    +0.000 A 
ATOM     14  C   UNL     1       4.231   6.239  16.992  0.00  0.00    +0.000 A 
ATOM     15  C   UNL     1       5.243   6.315  16.022  0.00  0.00    +0.000 A 
ATOM     16  C   UNL     1       5.807   5.151  15.497  0.00  0.00    +0.000 A 
ATOM     17  C   UNL     1       5.372   3.901  15.934  0.00  0.00    +0.000 A 
ATOM     18  C   UNL     1       4.376   3.811  16.904  0.00  0.00    +0.000 A 
ATOM     19  C   UNL     1       3.803   4.974  17.440  0.00  0.00    +0.000 A 
ATOM     20  C   UNL     1       2.811   4.942  18.418  0.00  0.00    +0.000 A 
ATOM     21  N   UNL     1       2.238   6.039  18.959  0.00  0.00    +0.000 NA
ENDBRANCH   6  12
BRANCH   1  22
ATOM     22  N   UNL     1      -1.293  12.355  22.899  0.00  0.00    +0.000 N 
ATOM     23  H   UNL     1      -0.786  12.755  23.687  0.00  0.00    +0.000 HD
BRANCH  22  24
ATOM     24  C   UNL     1      -2.688  12.085  23.245  0.00  0.00    +0.000 C 
BRANCH  24  25
ATOM     25  C   UNL     1      -3.573  13.051  22.459  0.00  0.00    +0.000 C 
BRANCH  25  26
ATOM     26  C   UNL     1      -5.062  12.758  22.648  0.00  0.00    +0.000 C 
BRANCH  26  31
ATOM     27  C   UNL     1      -6.776  10.396  18.805  0.00  0.00    +0.000 C 
ATOM     28  N   UNL     1      -6.773  11.671  19.513  0.00  0.00    +0.000 NA
ATOM     29  C   UNL     1      -5.420  12.250  19.564  0.00  0.00    +0.000 C 
ATOM     30  C   UNL     1      -5.400  13.583  20.346  0.00  0.00    +0.000 C 
ATOM     31  N   UNL     1      -5.937  13.496  21.723  0.00  0.00    +0.000 NA
ATOM     32  C   UNL     1      -7.278  12.871  21.649  0.00  0.00    +0.000 C 
ATOM     33  C   UNL     1      -7.321  11.532  20.874  0.00  0.00    +0.000 C 
ENDBRANCH  26  31
ENDBRANCH  25  26
ENDBRANCH  24  25
ENDBRANCH  22  24
ENDBRANCH   1  22
BRANCH   9  34
ATOM     34  O   UNL     1       2.220  12.094  17.472  0.00  0.00    +0.000 OA
ATOM     35  H   UNL     1       1.558  11.859  16.798  0.00  0.00    +0.000 HD
ENDBRANCH   9  34
TORSDOF 7
ENDMDL
MODEL 2
REMARK VINA RESULT:      -8.5      6.459     10.196
REMARK  Name = 
REMARK  8 active torsions:
REMARK  status: ('A' for Active; 'I' for Inactive)
REMARK    1  A    between atoms: C_1  and  N_2
REMARK    2  A    between atoms: N_5  and  C_6
REMARK    3  A    between atoms: C_6  and  C_7
REMARK    4  A    between atoms: C_7  and  C_8
REMARK    5  A    between atoms: C_8  and  N_9
REMARK    6  A    between atoms: N_9  and  C_10
REMARK    7  A    between atoms: C_15  and  C_16
REMARK    8  A    between atoms: N_28  and  O_29
REMARK                            x       y       z     vdW  Elec       q    Type
REMARK                         _______ _______ _______ _____ _____    ______ ____
ROOT
ATOM      1  C   UNL     1       5.366   4.296  16.473  0.00  0.00    +0.000 A 
ATOM      2  C   UNL     1       5.267   5.317  15.519  0.00  0.00    +0.000 A 
ATOM      3  C   UNL     1       5.880   6.556  15.724  0.00  0.00    +0.000 A 
ATOM      4  C   UNL     1       6.605   6.787  16.888  0.00  0.00    +0.000 A 
ATOM      5  O   UNL     1       7.151   8.034  17.041  0.00  0.00    +0.000 OA
ATOM      6  C   UNL     1       7.935   8.265  18.157  0.00  0.00    +0.000 A 
ATOM      7  C   UNL     1       8.184   7.358  19.112  0.00  0.00    +0.000 A 
ATOM      8  C   UNL     1       7.569   6.011  19.038  0.00  0.00    +0.000 A 
ATOM      9  N   UNL     1       7.722   5.064  19.915  0.00  0.00    +0.000 NA
ATOM     10  C   UNL     1       6.733   5.778  17.839  0.00  0.00    +0.000 A 
ATOM     11  C   UNL     1       6.088   4.554  17.645  0.00  0.00    +0.000 A 
ENDROOT
BRANCH   6  12
ATOM     12  C   UNL     1       8.516   9.616  18.244  0.00  0.00    +0.000 A 
ATOM     13  C   UNL     1       9.601   9.880  19.077  0.00  0.00    +0.000 A 
ATOM     14  C   UNL     1      10.140  11.170  19.112  0.00  0.00    +0.000 A 
ATOM     15  C   UNL     1      11.245  11.491  19.915  0.00  0.00    +0.000 A 
ATOM     16  C   UNL     1      11.751  12.792  19.934  0.00  0.00    +0.000 A 
ATOM     17  C   UNL     1      11.163  13.785  19.152  0.00  0.00    +0.000 A 
ATOM     18  C   UNL     1      10.072  13.478  18.341  0.00  0.00    +0.000 A 
ATOM     19  C   UNL     1       9.557  12.173  18.313  0.00  0.00    +0.000 A 
ATOM     20  C   UNL     1       8.475  11.810  17.515  0.00  0.00    +0.000 A 
ATOM     21  N   UNL     1       7.952  10.566  17.459  0.00  0.00    +0.000 NA
ENDBRANCH   6  12
BRANCH   1  22
ATOM     22  N   UNL     1       4.672   3.084  16.372  0.00  0.00    +0.000 N 
ATOM     23  H   UNL     1       4.789   2.680  15.444  0.00  0.00    +0.000 HD
BRANCH  22  24
ATOM     24  C   UNL     1       3.270   3.067  16.787  0.00  0.00    +0.000 C 
BRANCH  24  25
ATOM     25  C   UNL     1       3.073   1.911  17.765  0.00  0.00    +0.000 C 
BRANCH  25  26
ATOM     26  C   UNL     1       1.894   2.146  18.711  0.00  0.00    +0.000 C 
BRANCH  26  31
ATOM     27  C   UNL     1       1.918   6.666  20.398  0.00  0.00    +0.000 C 
ATOM     28  N   UNL     1       2.152   5.267  20.740  0.00  0.00    +0.000 NA
ATOM     29  C   UNL     1       3.253   4.701  19.943  0.00  0.00    +0.000 C 
ATOM     30  C   UNL     1       3.483   3.208  20.272  0.00  0.00    +0.000 C 
ATOM     31  N   UNL     1       2.285   2.351  20.114  0.00  0.00    +0.000 NA
ATOM     32  C   UNL     1       1.182   2.966  20.888  0.00  0.00    +0.000 C 
ATOM     33  C   UNL     1       0.931   4.461  20.572  0.00  0.00    +0.000 C 
ENDBRANCH  26  31
ENDBRANCH  25  26
ENDBRANCH  24  25
ENDBRANCH  22  24
ENDBRANCH   1  22
BRANCH   9  34
ATOM     34  O   UNL     1       8.554   5.456  20.972  0.00  0.00    +0.000 OA
ATOM     35  H   UNL     1       7.920   5.831  21.609  0.00  0.00    +0.000 HD
ENDBRANCH   9  34
TORSDOF 7
ENDMDL
MODEL 3
REMARK VINA RESULT:      -8.4      2.871     10.602
REMARK  Name = 
REMARK  8 active torsions:
REMARK  status: ('A' for Active; 'I' for Inactive)
REMARK    1  A    between atoms: C_1  and  N_2
REMARK    2  A    between atoms: N_5  and  C_6
REMARK    3  A    between atoms: C_6  and  C_7
REMARK    4  A    between atoms: C_7  and  C_8
REMARK    5  A    between atoms: C_8  and  N_9
REMARK    6  A    between atoms: N_9  and  C_10
REMARK    7  A    between atoms: C_15  and  C_16
REMARK    8  A    between atoms: N_28  and  O_29
REMARK                            x       y       z     vdW  Elec       q    Type
REMARK                         _______ _______ _______ _____ _____    ______ ____
ROOT
ATOM      1  C   UNL     1       2.350   6.141  19.453  0.00  0.00    +0.000 A 
ATOM      2  C   UNL     1       1.678   5.984  20.671  0.00  0.00    +0.000 A 
ATOM      3  C   UNL     1       1.068   7.071  21.303  0.00  0.00    +0.000 A 
ATOM      4  C   UNL     1       1.121   8.332  20.717  0.00  0.00    +0.000 A 
ATOM      5  O   UNL     1       0.531   9.359  21.405  0.00  0.00    +0.000 OA
ATOM      6  C   UNL     1       0.508  10.608  20.810  0.00  0.00    +0.000 A 
ATOM      7  C   UNL     1       1.040  10.889  19.612  0.00  0.00    +0.000 A 
ATOM      8  C   UNL     1       1.749   9.835  18.848  0.00  0.00    +0.000 A 
ATOM      9  N   UNL     1       2.319   9.999  17.690  0.00  0.00    +0.000 NA
ATOM     10  C   UNL     1       1.766   8.505  19.496  0.00  0.00    +0.000 A 
ATOM     11  C   UNL     1       2.404   7.421  18.887  0.00  0.00    +0.000 A 
ENDROOT
BRANCH   6  12
ATOM     12  C   UNL     1      -0.167  11.660  21.591  0.00  0.00    +0.000 A 
ATOM     13  C   UNL     1      -1.376  11.411  22.235  0.00  0.00    +0.000 A 
ATOM     14  C   UNL     1      -1.973  12.429  22.987  0.00  0.00    +0.000 A 
ATOM     15  C   UNL     1      -3.180  12.233  23.676  0.00  0.00    +0.000 A 
ATOM     16  C   UNL     1      -3.754  13.274  24.408  0.00  0.00    +0.000 A 
ATOM     17  C   UNL     1      -3.130  14.519  24.463  0.00  0.00    +0.000 A 
ATOM     18  C   UNL     1      -1.926  14.726  23.793  0.00  0.00    +0.000 A 
ATOM     19  C   UNL     1      -1.340  13.686  23.055  0.00  0.00    +0.000 A 
ATOM     20  C   UNL     1      -0.134  13.834  22.375  0.00  0.00    +0.000 A 
ATOM     21  N   UNL     1       0.462  12.858  21.657  0.00  0.00    +0.000 NA
ENDBRANCH   6  12
BRANCH   1  22
ATOM     22  N   UNL     1       3.079   5.113  18.842  0.00  0.00    +0.000 N 
ATOM     23  H   UNL     1       3.934   5.478  18.426  0.00  0.00    +0.000 HD
BRANCH  22  24
ATOM     24  C   UNL     1       2.368   4.234  17.914  0.00  0.00    +0.000 C 
BRANCH  24  25
ATOM     25  C   UNL     1       3.401   3.510  17.053  0.00  0.00    +0.000 C 
BRANCH  25  26
ATOM     26  C   UNL     1       4.833   3.935  17.383  0.00  0.00    +0.000 C 
BRANCH  26  31
ATOM     27  C   UNL     1       7.575   7.897  17.647  0.00  0.00    +0.000 C 
ATOM     28  N   UNL     1       7.176   6.780  16.797  0.00  0.00    +0.000 NA
ATOM     29  C   UNL     1       5.733   6.819  16.507  0.00  0.00    +0.000 C 
ATOM     30  C   UNL     1       5.295   5.619  15.638  0.00  0.00    +0.000 C 
ATOM     31  N   UNL     1       5.636   4.293  16.203  0.00  0.00    +0.000 NA
ATOM     32  C   UNL     1       7.082   4.295  16.526  0.00  0.00    +0.000 C 
ATOM     33  C   UNL     1       7.543   5.487  17.400  0.00  0.00    +0.000 C 
ENDBRANCH  26  31
ENDBRANCH  25  26
ENDBRANCH  24  25
ENDBRANCH  22  24
ENDBRANCH   1  22
BRANCH   9  34
ATOM     34  O   UNL     1       2.193  11.314  17.224  0.00  0.00    +0.000 OA
ATOM     35  H   UNL     1       3.051  11.466  16.790  0.00  0.00    +0.000 HD
ENDBRANCH   9  34
TORSDOF 7
ENDMDL
MODEL 4
REMARK VINA RESULT:      -8.4      2.228      3.847
REMARK  Name = 
REMARK  8 active torsions:
REMARK  status: ('A' for Active; 'I' for Inactive)
REMARK    1  A    between atoms: C_1  and  N_2
REMARK    2  A    between atoms: N_5  and  C_6
REMARK    3  A    between atoms: C_6  and  C_7
REMARK    4  A    between atoms: C_7  and  C_8
REMARK    5  A    between atoms: C_8  and  N_9
REMARK    6  A    between atoms: N_9  and  C_10
REMARK    7  A    between atoms: C_15  and  C_16
REMARK    8  A    between atoms: N_28  and  O_29
REMARK                            x       y       z     vdW  Elec       q    Type
REMARK                         _______ _______ _______ _____ _____    ______ ____
ROOT
ATOM      1  C   UNL     1       0.145  13.410  20.094  0.00  0.00    +0.000 A 
ATOM      2  C   UNL     1       0.578  13.000  18.827  0.00  0.00    +0.000 A 
ATOM      3  C   UNL     1       0.990  11.684  18.596  0.00  0.00    +0.000 A 
ATOM      4  C   UNL     1       0.970  10.760  19.636  0.00  0.00    +0.000 A 
ATOM      5  O   UNL     1       1.418   9.498  19.351  0.00  0.00    +0.000 OA
ATOM      6  C   UNL     1       1.341   8.543  20.348  0.00  0.00    +0.000 A 
ATOM      7  C   UNL     1       0.875   8.770  21.584  0.00  0.00    +0.000 A 
ATOM      8  C   UNL     1       0.436  10.131  21.974  0.00  0.00    +0.000 A 
ATOM      9  N   UNL     1      -0.011  10.470  23.148  0.00  0.00    +0.000 NA
ATOM     10  C   UNL     1       0.524  11.142  20.898  0.00  0.00    +0.000 A 
ATOM     11  C   UNL     1       0.147  12.468  21.130  0.00  0.00    +0.000 A 
ENDROOT
BRANCH   6  12
ATOM     12  C   UNL     1       1.811   7.199  19.965  0.00  0.00    +0.000 A 
ATOM     13  C   UNL     1       1.397   6.067  20.663  0.00  0.00    +0.000 A 
ATOM     14  C   UNL     1       1.846   4.807  20.252  0.00  0.00    +0.000 A 
ATOM     15  C   UNL     1       1.447   3.629  20.902  0.00  0.00    +0.000 A 
ATOM     16  C   UNL     1       1.923   2.389  20.473  0.00  0.00    +0.000 A 
ATOM     17  C   UNL     1       2.799   2.310  19.391  0.00  0.00    +0.000 A 
ATOM     18  C   UNL     1       3.195   3.471  18.729  0.00  0.00    +0.000 A 
ATOM     19  C   UNL     1       2.721   4.722  19.151  0.00  0.00    +0.000 A 
ATOM     20  C   UNL     1       3.077   5.912  18.521  0.00  0.00    +0.000 A 
ATOM     21  N   UNL     1       2.641   7.134  18.896  0.00  0.00    +0.000 NA
ENDBRANCH   6  12
BRANCH   1  22
ATOM     22  N   UNL     1      -0.161  14.740  20.405  0.00  0.00    +0.000 N 
ATOM     23  H   UNL     1       0.376  15.052  21.213  0.00  0.00    +0.000 HD
BRANCH  22  24
ATOM     24  C   UNL     1      -1.572  15.101  20.533  0.00  0.00    +0.000 C 
BRANCH  24  25
ATOM     25  C   UNL     1      -1.840  15.486  21.987  0.00  0.00    +0.000 C 
BRANCH  25  26
ATOM     26  C   UNL     1      -3.105  14.825  22.538  0.00  0.00    +0.000 C 
BRANCH  26  31
ATOM     27  C   UNL     1      -7.107  12.497  23.895  0.00  0.00    +0.000 C 
ATOM     28  N   UNL     1      -5.782  12.340  23.307  0.00  0.00    +0.000 NA
ATOM     29  C   UNL     1      -4.728  12.745  24.252  0.00  0.00    +0.000 C 
ATOM     30  C   UNL     1      -3.321  12.619  23.623  0.00  0.00    +0.000 C 
ATOM     31  N   UNL     1      -3.143  13.366  22.357  0.00  0.00    +0.000 NA
ATOM     32  C   UNL     1      -4.240  12.973  21.441  0.00  0.00    +0.000 C 
ATOM     33  C   UNL     1      -5.659  13.096  22.048  0.00  0.00    +0.000 C 
ENDBRANCH  26  31
ENDBRANCH  25  26
ENDBRANCH  24  25
ENDBRANCH  22  24
ENDBRANCH   1  22
BRANCH   9  34
ATOM     34  O   UNL     1      -0.038   9.385  24.034  0.00  0.00    +0.000 OA
ATOM     35  H   UNL     1      -0.574   8.733  23.549  0.00  0.00    +0.000 HD
ENDBRANCH   9  34
TORSDOF 7
ENDMDL
MODEL 5
REMARK VINA RESULT:      -8.4      0.841      1.190
REMARK  Name = 
REMARK  8 active torsions:
REMARK  status: ('A' for Active; 'I' for Inactive)
REMARK    1  A    between atoms: C_1  and  N_2
REMARK    2  A    between atoms: N_5  and  C_6
REMARK    3  A    between atoms: C_6  and  C_7
REMARK    4  A    between atoms: C_7  and  C_8
REMARK    5  A    between atoms: C_8  and  N_9
REMARK    6  A    between atoms: N_9  and  C_10
REMARK    7  A    between atoms: C_15  and  C_16
REMARK    8  A    between atoms: N_28  and  O_29
REMARK                            x       y       z     vdW  Elec       q    Type
REMARK                         _______ _______ _______ _____ _____    ______ ____
ROOT
ATOM      1  C   UNL     1      -0.679  11.255  22.267  0.00  0.00    +0.000 A 
ATOM      2  C   UNL     1      -0.627   9.959  22.796  0.00  0.00    +0.000 A 
ATOM      3  C   UNL     1       0.049   8.935  22.127  0.00  0.00    +0.000 A 
ATOM      4  C   UNL     1       0.687   9.199  20.919  0.00  0.00    +0.000 A 
ATOM      5  O   UNL     1       1.303   8.144  20.300  0.00  0.00    +0.000 OA
ATOM      6  C   UNL     1       2.004   8.396  19.135  0.00  0.00    +0.000 A 
ATOM      7  C   UNL     1       2.109   9.601  18.556  0.00  0.00    +0.000 A 
ATOM      8  C   UNL     1       1.411  10.770  19.142  0.00  0.00    +0.000 A 
ATOM      9  N   UNL     1       1.425  11.976  18.656  0.00  0.00    +0.000 NA
ATOM     10  C   UNL     1       0.665  10.486  20.388  0.00  0.00    +0.000 A 
ATOM     11  C   UNL     1      -0.043  11.496  21.043  0.00  0.00    +0.000 A 
ENDROOT
BRANCH   6  12
ATOM     12  C   UNL     1       2.668   7.223  18.538  0.00  0.00    +0.000 A 
ATOM     13  C   UNL     1       3.633   7.372  17.546  0.00  0.00    +0.000 A 
ATOM     14  C   UNL     1       4.258   6.234  17.023  0.00  0.00    +0.000 A 
ATOM     15  C   UNL     1       5.253   6.321  16.037  0.00  0.00    +0.000 A 
ATOM     16  C   UNL     1       5.848   5.165  15.529  0.00  0.00    +0.000 A 
ATOM     17  C   UNL     1       5.460   3.912  15.999  0.00  0.00    +0.000 A 
ATOM     18  C   UNL     1       4.481   3.810  16.985  0.00  0.00    +0.000 A 
ATOM     19  C   UNL     1       3.877   4.966  17.504  0.00  0.00    +0.000 A 
ATOM     20  C   UNL     1       2.901   4.924  18.497  0.00  0.00    +0.000 A 
ATOM     21  N   UNL     1       2.300   6.012  19.022  0.00  0.00    +0.000 NA
ENDBRANCH   6  12
BRANCH   1  22
ATOM     22  N   UNL     1      -1.443  12.283  22.834  0.00  0.00    +0.000 N 
ATOM     23  H   UNL     1      -0.879  12.838  23.474  0.00  0.00    +0.000 HD
BRANCH  22  24
ATOM     24  C   UNL     1      -2.729  11.923  23.432  0.00  0.00    +0.000 C 
BRANCH  24  25
ATOM     25  C   UNL     1      -3.740  13.014  23.089  0.00  0.00    +0.000 C 
BRANCH  25  26
ATOM     26  C   UNL     1      -4.452  12.748  21.761  0.00  0.00    +0.000 C 
BRANCH  26  31
ATOM     27  C   UNL     1      -7.543  14.586  18.544  0.00  0.00    +0.000 C 
ATOM     28  N   UNL     1      -7.418  13.732  19.720  0.00  0.00    +0.000 NA
ATOM     29  C   UNL     1      -6.919  14.490  20.879  0.00  0.00    +0.000 C 
ATOM     30  C   UNL     1      -6.747  13.584  22.120  0.00  0.00    +0.000 C 
ATOM     31  N   UNL     1      -5.876  12.406  21.906  0.00  0.00    +0.000 NA
ATOM     32  C   UNL     1      -6.373  11.686  20.710  0.00  0.00    +0.000 C 
ATOM     33  C   UNL     1      -6.549  12.573  19.453  0.00  0.00    +0.000 C 
ENDBRANCH  26  31
ENDBRANCH  25  26
ENDBRANCH  24  25
ENDBRANCH  22  24
ENDBRANCH   1  22
BRANCH   9  34
ATOM     34  O   UNL     1       2.190  12.062  17.485  0.00  0.00    +0.000 OA
ATOM     35  H   UNL     1       2.694  12.883  17.625  0.00  0.00    +0.000 HD
ENDBRANCH   9  34
TORSDOF 7
ENDMDL
MODEL 6
REMARK VINA RESULT:      -8.4      1.693      2.477
REMARK  Name = 
REMARK  8 active torsions:
REMARK  status: ('A' for Active; 'I' for Inactive)
REMARK    1  A    between atoms: C_1  and  N_2
REMARK    2  A    between atoms: N_5  and  C_6
REMARK    3  A    between atoms: C_6  and  C_7
REMARK    4  A    between atoms: C_7  and  C_8
REMARK    5  A    between atoms: C_8  and  N_9
REMARK    6  A    between atoms: N_9  and  C_10
REMARK    7  A    between atoms: C_15  and  C_16
REMARK    8  A    between atoms: N_28  and  O_29
REMARK                            x       y       z     vdW  Elec       q    Type
REMARK                         _______ _______ _______ _____ _____    ______ ____
ROOT
ATOM      1  C   UNL     1      -2.116  12.443  19.777  0.00  0.00    +0.000 A 
ATOM      2  C   UNL     1      -1.939  11.996  18.462  0.00  0.00    +0.000 A 
ATOM      3  C   UNL     1      -1.053  10.955  18.168  0.00  0.00    +0.000 A 
ATOM      4  C   UNL     1      -0.335  10.347  19.192  0.00  0.00    +0.000 A 
ATOM      5  O   UNL     1       0.540   9.357  18.832  0.00  0.00    +0.000 OA
ATOM      6  C   UNL     1       1.213   8.689  19.839  0.00  0.00    +0.000 A 
ATOM      7  C   UNL     1       1.084   8.955  21.146  0.00  0.00    +0.000 A 
ATOM      8  C   UNL     1       0.201  10.058  21.596  0.00  0.00    +0.000 A 
ATOM      9  N   UNL     1       0.017  10.418  22.833  0.00  0.00    +0.000 NA
ATOM     10  C   UNL     1      -0.512  10.764  20.509  0.00  0.00    +0.000 A 
ATOM     11  C   UNL     1      -1.372  11.828  20.791  0.00  0.00    +0.000 A 
ENDROOT
BRANCH   6  12
ATOM     12  C   UNL     1       2.115   7.616  19.383  0.00  0.00    +0.000 A 
ATOM     13  C   UNL     1       2.842   7.742  18.202  0.00  0.00    +0.000 A 
ATOM     14  C   UNL     1       3.708   6.712  17.817  0.00  0.00    +0.000 A 
ATOM     15  C   UNL     1       4.482   6.791  16.650  0.00  0.00    +0.000 A 
ATOM     16  C   UNL     1       5.327   5.739  16.290  0.00  0.00    +0.000 A 
ATOM     17  C   UNL     1       5.410   4.601  17.090  0.00  0.00    +0.000 A 
ATOM     18  C   UNL     1       4.655   4.513  18.258  0.00  0.00    +0.000 A 
ATOM     19  C   UNL     1       3.804   5.565  18.630  0.00  0.00    +0.000 A 
ATOM     20  C   UNL     1       3.035   5.535  19.790  0.00  0.00    +0.000 A 
ATOM     21  N   UNL     1       2.207   6.526  20.183  0.00  0.00    +0.000 NA
ENDBRANCH   6  12
BRANCH   1  22
ATOM     22  N   UNL     1      -2.896  13.559  20.107  0.00  0.00    +0.000 N 
ATOM     23  H   UNL     1      -2.608  14.371  19.565  0.00  0.00    +0.000 HD
BRANCH  22  24
ATOM     24  C   UNL     1      -3.043  13.890  21.524  0.00  0.00    +0.000 C 
BRANCH  24  25
ATOM     25  C   UNL     1      -4.473  14.371  21.759  0.00  0.00    +0.000 C 
BRANCH  25  26
ATOM     26  C   UNL     1      -5.379  13.259  22.292  0.00  0.00    +0.000 C 
BRANCH  26  31
ATOM     27  C   UNL     1      -6.789  11.115  18.206  0.00  0.00    +0.000 C 
ATOM     28  N   UNL     1      -7.229  11.921  19.339  0.00  0.00    +0.000 NA
ATOM     29  C   UNL     1      -6.540  13.222  19.368  0.00  0.00    +0.000 C 
ATOM     30  C   UNL     1      -6.972  14.067  20.588  0.00  0.00    +0.000 C 
ATOM     31  N   UNL     1      -6.789  13.398  21.896  0.00  0.00    +0.000 NA
ATOM     32  C   UNL     1      -7.453  12.075  21.826  0.00  0.00    +0.000 C 
ATOM     33  C   UNL     1      -7.032  11.209  20.614  0.00  0.00    +0.000 C 
ENDBRANCH  26  31
ENDBRANCH  25  26
ENDBRANCH  24  25
ENDBRANCH  22  24
ENDBRANCH   1  22
BRANCH   9  34
ATOM     34  O   UNL     1       0.759   9.633  23.724  0.00  0.00    +0.000 OA
ATOM     35  H   UNL     1       1.314  10.295  24.173  0.00  0.00    +0.000 HD
ENDBRANCH   9  34
TORSDOF 7
ENDMDL
MODEL 7
REMARK VINA RESULT:      -8.3      3.077     10.078
REMARK  Name = 
REMARK  8 active torsions:
REMARK  status: ('A' for Active; 'I' for Inactive)
REMARK    1  A    between atoms: C_1  and  N_2
REMARK    2  A    between atoms: N_5  and  C_6
REMARK    3  A    between atoms: C_6  and  C_7
REMARK    4  A    between atoms: C_7  and  C_8
REMARK    5  A    between atoms: C_8  and  N_9
REMARK    6  A    between atoms: N_9  and  C_10
REMARK    7  A    between atoms: C_15  and  C_16
REMARK    8  A    between atoms: N_28  and  O_29
REMARK                            x       y       z     vdW  Elec       q    Type
REMARK                         _______ _______ _______ _____ _____    ______ ____
ROOT
ATOM      1  C   UNL     1       2.230   7.563  18.926  0.00  0.00    +0.000 A 
ATOM      2  C   UNL     1       2.164   8.410  17.813  0.00  0.00    +0.000 A 
ATOM      3  C   UNL     1       1.593   9.682  17.908  0.00  0.00    +0.000 A 
ATOM      4  C   UNL     1       1.083  10.124  19.124  0.00  0.00    +0.000 A 
ATOM      5  O   UNL     1       0.508  11.367  19.140  0.00  0.00    +0.000 OA
ATOM      6  C   UNL     1       0.057  11.856  20.353  0.00  0.00    +0.000 A 
ATOM      7  C   UNL     1       0.127  11.191  21.515  0.00  0.00    +0.000 A 
ATOM      8  C   UNL     1       0.680   9.816  21.552  0.00  0.00    +0.000 A 
ATOM      9  N   UNL     1       0.776   9.072  22.614  0.00  0.00    +0.000 NA
ATOM     10  C   UNL     1       1.157   9.305  20.248  0.00  0.00    +0.000 A 
ATOM     11  C   UNL     1       1.697   8.021  20.138  0.00  0.00    +0.000 A 
ENDROOT
BRANCH   6  12
ATOM     12  C   UNL     1      -0.523  13.210  20.304  0.00  0.00    +0.000 A 
ATOM     13  C   UNL     1      -0.079  14.148  19.374  0.00  0.00    +0.000 A 
ATOM     14  C   UNL     1      -0.673  15.415  19.343  0.00  0.00    +0.000 A 
ATOM     15  C   UNL     1      -0.284  16.394  18.417  0.00  0.00    +0.000 A 
ATOM     16  C   UNL     1      -0.890  17.651  18.421  0.00  0.00    +0.000 A 
ATOM     17  C   UNL     1      -1.891  17.945  19.346  0.00  0.00    +0.000 A 
ATOM     18  C   UNL     1      -2.295  16.979  20.265  0.00  0.00    +0.000 A 
ATOM     19  C   UNL     1      -1.693  15.711  20.268  0.00  0.00    +0.000 A 
ATOM     20  C   UNL     1      -2.065  14.705  21.158  0.00  0.00    +0.000 A 
ATOM     21  N   UNL     1      -1.512  13.474  21.191  0.00  0.00    +0.000 NA
ENDBRANCH   6  12
BRANCH   1  22
ATOM     22  N   UNL     1       2.679   6.239  18.855  0.00  0.00    +0.000 N 
ATOM     23  H   UNL     1       2.675   5.809  19.778  0.00  0.00    +0.000 HD
BRANCH  22  24
ATOM     24  C   UNL     1       3.938   5.985  18.155  0.00  0.00    +0.000 C 
BRANCH  24  25
ATOM     25  C   UNL     1       3.793   4.687  17.363  0.00  0.00    +0.000 C 
BRANCH  25  26
ATOM     26  C   UNL     1       2.368   4.133  17.412  0.00  0.00    +0.000 C 
BRANCH  26  31
ATOM     27  C   UNL     1       2.094   3.080  22.112  0.00  0.00    +0.000 C 
ATOM     28  N   UNL     1       2.124   2.517  20.767  0.00  0.00    +0.000 NA
ATOM     29  C   UNL     1       3.392   2.832  20.086  0.00  0.00    +0.000 C 
ATOM     30  C   UNL     1       3.417   2.271  18.646  0.00  0.00    +0.000 C 
ATOM     31  N   UNL     1       2.291   2.714  17.793  0.00  0.00    +0.000 NA
ATOM     32  C   UNL     1       1.032   2.427  18.518  0.00  0.00    +0.000 C 
ATOM     33  C   UNL     1       0.982   2.983  19.962  0.00  0.00    +0.000 C 
ENDBRANCH  26  31
ENDBRANCH  25  26
ENDBRANCH  24  25
ENDBRANCH  22  24
ENDBRANCH   1  22
BRANCH   9  34
ATOM     34  O   UNL     1       0.289   9.721  23.756  0.00  0.00    +0.000 OA
ATOM     35  H   UNL     1      -0.648   9.863  23.532  0.00  0.00    +0.000 HD
ENDBRANCH   9  34
TORSDOF 7
ENDMDL
MODEL 8
REMARK VINA RESULT:      -8.3      3.364     10.605
REMARK  Name = 
REMARK  8 active torsions:
REMARK  status: ('A' for Active; 'I' for Inactive)
REMARK    1  A    between atoms: C_1  and  N_2
REMARK    2  A    between atoms: N_5  and  C_6
REMARK    3  A    between atoms: C_6  and  C_7
REMARK    4  A    between atoms: C_7  and  C_8
REMARK    5  A    between atoms: C_8  and  N_9
REMARK    6  A    between atoms: N_9  and  C_10
REMARK    7  A    between atoms: C_15  and  C_16
REMARK    8  A    between atoms: N_28  and  O_29
REMARK                            x       y       z     vdW  Elec       q    Type
REMARK                         _______ _______ _______ _____ _____    ______ ____
ROOT
ATOM      1  C   UNL     1       2.305   6.897  19.245  0.00  0.00    +0.000 A 
ATOM      2  C   UNL     1       2.435   7.608  18.046  0.00  0.00    +0.000 A 
ATOM      3  C   UNL     1       2.027   8.941  17.951  0.00  0.00    +0.000 A 
ATOM      4  C   UNL     1       1.485   9.581  19.061  0.00  0.00    +0.000 A 
ATOM      5  O   UNL     1       1.075  10.876  18.891  0.00  0.00    +0.000 OA
ATOM      6  C   UNL     1       0.599  11.556  19.997  0.00  0.00    +0.000 A 
ATOM      7  C   UNL     1       0.493  11.029  21.226  0.00  0.00    +0.000 A 
ATOM      8  C   UNL     1       0.860   9.612  21.461  0.00  0.00    +0.000 A 
ATOM      9  N   UNL     1       0.777   8.992  22.601  0.00  0.00    +0.000 NA
ATOM     10  C   UNL     1       1.367   8.898  20.268  0.00  0.00    +0.000 A 
ATOM     11  C   UNL     1       1.744   7.554  20.347  0.00  0.00    +0.000 A 
ENDROOT
BRANCH   6  12
ATOM     12  C   UNL     1       0.203  12.954  19.750  0.00  0.00    +0.000 A 
ATOM     13  C   UNL     1      -0.934  13.494  20.346  0.00  0.00    +0.000 A 
ATOM     14  C   UNL     1      -1.262  14.833  20.106  0.00  0.00    +0.000 A 
ATOM     15  C   UNL     1      -2.383  15.440  20.694  0.00  0.00    +0.000 A 
ATOM     16  C   UNL     1      -2.687  16.775  20.424  0.00  0.00    +0.000 A 
ATOM     17  C   UNL     1      -1.877  17.520  19.569  0.00  0.00    +0.000 A 
ATOM     18  C   UNL     1      -0.754  16.934  18.986  0.00  0.00    +0.000 A 
ATOM     19  C   UNL     1      -0.439  15.593  19.252  0.00  0.00    +0.000 A 
ATOM     20  C   UNL     1       0.675  14.961  18.705  0.00  0.00    +0.000 A 
ATOM     21  N   UNL     1       1.013  13.674  18.938  0.00  0.00    +0.000 NA
ENDBRANCH   6  12
BRANCH   1  22
ATOM     22  N   UNL     1       2.585   5.529  19.358  0.00  0.00    +0.000 N 
ATOM     23  H   UNL     1       3.560   5.383  19.611  0.00  0.00    +0.000 HD
BRANCH  22  24
ATOM     24  C   UNL     1       2.186   4.660  18.252  0.00  0.00    +0.000 C 
BRANCH  24  25
ATOM     25  C   UNL     1       3.355   3.735  17.922  0.00  0.00    +0.000 C 
BRANCH  25  26
ATOM     26  C   UNL     1       4.710   4.401  18.167  0.00  0.00    +0.000 C 
BRANCH  26  31
ATOM     27  C   UNL     1       7.637   8.198  17.622  0.00  0.00    +0.000 C 
ATOM     28  N   UNL     1       7.222   6.924  17.046  0.00  0.00    +0.000 NA
ATOM     29  C   UNL     1       5.798   6.946  16.672  0.00  0.00    +0.000 C 
ATOM     30  C   UNL     1       5.340   5.587  16.096  0.00  0.00    +0.000 C 
ATOM     31  N   UNL     1       5.584   4.428  16.985  0.00  0.00    +0.000 NA
ATOM     32  C   UNL     1       7.012   4.453  17.381  0.00  0.00    +0.000 C 
ATOM     33  C   UNL     1       7.492   5.804  17.965  0.00  0.00    +0.000 C 
ENDBRANCH  26  31
ENDBRANCH  25  26
ENDBRANCH  24  25
ENDBRANCH  22  24
ENDBRANCH   1  22
BRANCH   9  34
ATOM     34  O   UNL     1       0.291   9.825  23.618  0.00  0.00    +0.000 OA
ATOM     35  H   UNL     1      -0.007  10.608  23.121  0.00  0.00    +0.000 HD
ENDBRANCH   9  34
TORSDOF 7
ENDMDL
MODEL 9
REMARK VINA RESULT:      -8.3      1.917      3.336
REMARK  Name = 
REMARK  8 active torsions:
REMARK  status: ('A' for Active; 'I' for Inactive)
REMARK    1  A    between atoms: C_1  and  N_2
REMARK    2  A    between atoms: N_5  and  C_6
REMARK    3  A    between atoms: C_6  and  C_7
REMARK    4  A    between atoms: C_7  and  C_8
REMARK    5  A    between atoms: C_8  and  N_9
REMARK    6  A    between atoms: N_9  and  C_10
REMARK    7  A    between atoms: C_15  and  C_16
REMARK    8  A    between atoms: N_28  and  O_29
REMARK                            x       y       z     vdW  Elec       q    Type
REMARK                         _______ _______ _______ _____ _____    ______ ____
ROOT
ATOM      1  C   UNL     1       0.349  13.376  20.047  0.00  0.00    +0.000 A 
ATOM      2  C   UNL     1       0.823  12.961  18.796  0.00  0.00    +0.000 A 
ATOM      3  C   UNL     1       1.216  11.637  18.578  0.00  0.00    +0.000 A 
ATOM      4  C   UNL     1       1.134  10.710  19.612  0.00  0.00    +0.000 A 
ATOM      5  O   UNL     1       1.566   9.439  19.340  0.00  0.00    +0.000 OA
ATOM      6  C   UNL     1       1.428   8.483  20.330  0.00  0.00    +0.000 A 
ATOM      7  C   UNL     1       0.918   8.716  21.547  0.00  0.00    +0.000 A 
ATOM      8  C   UNL     1       0.492  10.085  21.924  0.00  0.00    +0.000 A 
ATOM      9  N   UNL     1       0.005  10.431  23.080  0.00  0.00    +0.000 NA
ATOM     10  C   UNL     1       0.646  11.098  20.857  0.00  0.00    +0.000 A 
ATOM     11  C   UNL     1       0.288  12.431  21.078  0.00  0.00    +0.000 A 
ENDROOT
BRANCH   6  12
ATOM     12  C   UNL     1       1.884   7.131  19.960  0.00  0.00    +0.000 A 
ATOM     13  C   UNL     1       2.645   6.918  18.813  0.00  0.00    +0.000 A 
ATOM     14  C   UNL     1       3.080   5.623  18.511  0.00  0.00    +0.000 A 
ATOM     15  C   UNL     1       3.867   5.349  17.382  0.00  0.00    +0.000 A 
ATOM     16  C   UNL     1       4.274   4.043  17.104  0.00  0.00    +0.000 A 
ATOM     17  C   UNL     1       3.905   2.998  17.949  0.00  0.00    +0.000 A 
ATOM     18  C   UNL     1       3.134   3.257  19.081  0.00  0.00    +0.000 A 
ATOM     19  C   UNL     1       2.720   4.566  19.370  0.00  0.00    +0.000 A 
ATOM     20  C   UNL     1       1.956   4.882  20.491  0.00  0.00    +0.000 A 
ATOM     21  N   UNL     1       1.541   6.128  20.804  0.00  0.00    +0.000 NA
ENDBRANCH   6  12
BRANCH   1  22
ATOM     22  N   UNL     1       0.060  14.712  20.351  0.00  0.00    +0.000 N 
ATOM     23  H   UNL     1       0.892  15.290  20.252  0.00  0.00    +0.000 HD
BRANCH  22  24
ATOM     24  C   UNL     1      -0.634  14.988  21.609  0.00  0.00    +0.000 C 
BRANCH  24  25
ATOM     25  C   UNL     1      -2.054  15.446  21.283  0.00  0.00    +0.000 C 
BRANCH  25  26
ATOM     26  C   UNL     1      -3.099  14.782  22.181  0.00  0.00    +0.000 C 
BRANCH  26  31
ATOM     27  C   UNL     1      -6.969  12.581  24.042  0.00  0.00    +0.000 C 
ATOM     28  N   UNL     1      -5.749  12.388  23.266  0.00  0.00    +0.000 NA
ATOM     29  C   UNL     1      -4.555  12.721  24.061  0.00  0.00    +0.000 C 
ATOM     30  C   UNL     1      -3.259  12.556  23.235  0.00  0.00    +0.000 C 
ATOM     31  N   UNL     1      -3.228  13.331  21.974  0.00  0.00    +0.000 NA
ATOM     32  C   UNL     1      -4.460  13.011  21.215  0.00  0.00    +0.000 C 
ATOM     33  C   UNL     1      -5.772  13.174  22.021  0.00  0.00    +0.000 C 
ENDBRANCH  26  31
ENDBRANCH  25  26
ENDBRANCH  24  25
ENDBRANCH  22  24
ENDBRANCH   1  22
BRANCH   9  34
ATOM     34  O   UNL     1      -0.080   9.344  23.960  0.00  0.00    +0.000 OA
ATOM     35  H   UNL     1      -0.922   9.512  24.419  0.00  0.00    +0.000 HD
ENDBRANCH   9  34
TORSDOF 7
ENDMDL
