MODEL 1
REMARK VINA RESULT:      -6.9      0.000      0.000
REMARK  Name = 
REMARK  6 active torsions:
REMARK  status: ('A' for Active; 'I' for Inactive)
REMARK    1  A    between atoms: C_1  and  N_2
REMARK    2  A    between atoms: N_2  and  C_3
REMARK    3  A    between atoms: N_2  and  C_4
REMARK    4  A    between atoms: C_4  and  C_5
REMARK    5  A    between atoms: C_5  and  C_6
REMARK    6  A    between atoms: C_6  and  N_7
REMARK                            x       y       z     vdW  Elec       q    Type
REMARK                         _______ _______ _______ _____ _____    ______ ____
ROOT
ATOM      1  N   UNL     1      -3.746  11.990  18.811  0.00  0.00    +0.000 N 
ATOM      2  C   UNL     1      -2.496  11.352  18.651  0.00  0.00    +0.000 A 
ATOM      3  C   UNL     1      -2.017  10.502  17.635  0.00  0.00    +0.000 A 
ATOM      4  C   UNL     1      -0.713  10.009  17.735  0.00  0.00    +0.000 A 
ATOM      5  C   UNL     1       0.105  10.338  18.798  0.00  0.00    +0.000 A 
ATOM      6  C   UNL     1      -0.371  11.161  19.830  0.00  0.00    +0.000 A 
ATOM      7  C   UNL     1      -1.693  11.645  19.770  0.00  0.00    +0.000 A 
ATOM      8  C   UNL     1      -2.552  12.362  20.587  0.00  0.00    +0.000 A 
ATOM      9  C   UNL     1      -2.271  12.859  21.874  0.00  0.00    +0.000 A 
ATOM     10  C   UNL     1      -3.329  13.397  22.658  0.00  0.00    +0.000 A 
ATOM     11  C   UNL     1      -4.645  13.398  22.085  0.00  0.00    +0.000 A 
ATOM     12  C   UNL     1      -5.696  14.137  22.613  0.00  0.00    +0.000 A 
ATOM     13  C   UNL     1      -6.541  14.123  23.733  0.00  0.00    +0.000 A 
ATOM     14  C   UNL     1      -7.476  15.155  23.869  0.00  0.00    +0.000 A 
ATOM     15  C   UNL     1      -7.459  16.240  22.991  0.00  0.00    +0.000 A 
ATOM     16  C   UNL     1      -6.711  16.199  21.810  0.00  0.00    +0.000 A 
ATOM     17  C   UNL     1      -5.997  15.024  21.573  0.00  0.00    +0.000 A 
ATOM     18  N   UNL     1      -5.490  14.456  20.405  0.00  0.00    +0.000 N 
ATOM     19  C   UNL     1      -4.659  13.411  20.729  0.00  0.00    +0.000 A 
ATOM     20  C   UNL     1      -3.747  12.661  20.013  0.00  0.00    +0.000 A 
ATOM     21  C   UNL     1      -2.763  13.992  23.838  0.00  0.00    +0.000 C 
ATOM     22  O   UNL     1      -3.236  14.637  24.773  0.00  0.00    +0.000 OA
ATOM     23  N   UNL     1      -1.398  13.748  23.723  0.00  0.00    +0.000 N 
ATOM     24  C   UNL     1      -0.974  13.020  22.541  0.00  0.00    +0.000 C 
ATOM     25  H   UNL     1      -5.607  14.860  19.489  0.00  0.00    +0.000 HD
ATOM     26  H   UNL     1      -0.762  14.157  24.391  0.00  0.00    +0.000 HD
ENDROOT
BRANCH   1  27
ATOM     27  C   UNL     1      -4.927  11.662  18.023  0.00  0.00    +0.000 C 
BRANCH  27  28
ATOM     28  C   UNL     1      -5.755  10.480  18.516  0.00  0.00    +0.000 C 
BRANCH  28  29
ATOM     29  C   UNL     1      -7.056  10.863  19.226  0.00  0.00    +0.000 C 
BRANCH  29  31
ATOM     30  C   UNL     1      -7.841  11.413  21.471  0.00  0.00    +0.000 C 
ATOM     31  N   UNL     1      -7.135  10.441  20.632  0.00  0.00    +0.000 NA
ATOM     32  C   UNL     1      -7.821   9.148  20.712  0.00  0.00    +0.000 C 
ENDBRANCH  29  31
ENDBRANCH  28  29
ENDBRANCH  27  28
ENDBRANCH   1  27
TORSDOF 4
ENDMDL
MODEL 2
REMARK VINA RESULT:      -6.8      2.138      5.623
REMARK  Name = 
REMARK  6 active torsions:
REMARK  status: ('A' for Active; 'I' for Inactive)
REMARK    1  A    between atoms: C_1  and  N_2
REMARK    2  A    between atoms: N_2  and  C_3
REMARK    3  A    between atoms: N_2  and  C_4
REMARK    4  A    between atoms: C_4  and  C_5
REMARK    5  A    between atoms: C_5  and  C_6
REMARK    6  A    between atoms: C_6  and  N_7
REMARK                            x       y       z     vdW  Elec       q    Type
REMARK                         _______ _______ _______ _____ _____    ______ ____
ROOT
ATOM      1  N   UNL     1      -5.026  12.611  20.299  0.00  0.00    +0.000 N 
ATOM      2  C   UNL     1      -5.912  12.555  21.397  0.00  0.00    +0.000 A 
ATOM      3  C   UNL     1      -7.280  12.220  21.463  0.00  0.00    +0.000 A 
ATOM      4  C   UNL     1      -7.915  12.247  22.708  0.00  0.00    +0.000 A 
ATOM      5  C   UNL     1      -7.235  12.590  23.860  0.00  0.00    +0.000 A 
ATOM      6  C   UNL     1      -5.881  12.952  23.802  0.00  0.00    +0.000 A 
ATOM      7  C   UNL     1      -5.224  12.965  22.555  0.00  0.00    +0.000 A 
ATOM      8  C   UNL     1      -3.986  13.341  22.061  0.00  0.00    +0.000 A 
ATOM      9  C   UNL     1      -2.917  13.887  22.796  0.00  0.00    +0.000 A 
ATOM     10  C   UNL     1      -1.790  14.408  22.103  0.00  0.00    +0.000 A 
ATOM     11  C   UNL     1      -1.808  14.350  20.668  0.00  0.00    +0.000 A 
ATOM     12  C   UNL     1      -0.676  14.556  19.891  0.00  0.00    +0.000 A 
ATOM     13  C   UNL     1       0.168  15.610  19.510  0.00  0.00    +0.000 A 
ATOM     14  C   UNL     1       1.272  15.314  18.703  0.00  0.00    +0.000 A 
ATOM     15  C   UNL     1       1.599  13.988  18.415  0.00  0.00    +0.000 A 
ATOM     16  C   UNL     1       0.699  12.950  18.684  0.00  0.00    +0.000 A 
ATOM     17  C   UNL     1      -0.521  13.323  19.246  0.00  0.00    +0.000 A 
ATOM     18  N   UNL     1      -1.765  12.694  19.288  0.00  0.00    +0.000 N 
ATOM     19  C   UNL     1      -2.586  13.360  20.164  0.00  0.00    +0.000 A 
ATOM     20  C   UNL     1      -3.803  13.063  20.743  0.00  0.00    +0.000 A 
ATOM     21  C   UNL     1      -0.775  14.736  23.066  0.00  0.00    +0.000 C 
ATOM     22  O   UNL     1       0.384  15.139  22.974  0.00  0.00    +0.000 OA
ATOM     23  N   UNL     1      -1.357  14.434  24.293  0.00  0.00    +0.000 N 
ATOM     24  C   UNL     1      -2.712  13.917  24.249  0.00  0.00    +0.000 C 
ATOM     25  H   UNL     1      -1.957  11.804  18.852  0.00  0.00    +0.000 HD
ATOM     26  H   UNL     1      -0.801  14.488  25.134  0.00  0.00    +0.000 HD
ENDROOT
BRANCH   1  27
ATOM     27  C   UNL     1      -5.457  12.567  18.909  0.00  0.00    +0.000 C 
BRANCH  27  28
ATOM     28  C   UNL     1      -5.270  11.236  18.189  0.00  0.00    +0.000 C 
BRANCH  28  29
ATOM     29  C   UNL     1      -4.589  11.339  16.822  0.00  0.00    +0.000 C 
BRANCH  29  31
ATOM     30  C   UNL     1      -2.923   9.739  17.610  0.00  0.00    +0.000 C 
ATOM     31  N   UNL     1      -3.174  10.939  16.809  0.00  0.00    +0.000 NA
ATOM     32  C   UNL     1      -2.752  10.692  15.427  0.00  0.00    +0.000 C 
ENDBRANCH  29  31
ENDBRANCH  28  29
ENDBRANCH  27  28
ENDBRANCH   1  27
TORSDOF 4
ENDMDL
MODEL 3
REMARK VINA RESULT:      -6.6      2.607      7.236
REMARK  Name = 
REMARK  6 active torsions:
REMARK  status: ('A' for Active; 'I' for Inactive)
REMARK    1  A    between atoms: C_1  and  N_2
REMARK    2  A    between atoms: N_2  and  C_3
REMARK    3  A    between atoms: N_2  and  C_4
REMARK    4  A    between atoms: C_4  and  C_5
REMARK    5  A    between atoms: C_5  and  C_6
REMARK    6  A    between atoms: C_6  and  N_7
REMARK                            x       y       z     vdW  Elec       q    Type
REMARK                         _______ _______ _______ _____ _____    ______ ____
ROOT
ATOM      1  N   UNL     1      -3.724  12.862  22.126  0.00  0.00    +0.000 N 
ATOM      2  C   UNL     1      -5.126  13.022  22.075  0.00  0.00    +0.000 A 
ATOM      3  C   UNL     1      -6.062  13.297  23.092  0.00  0.00    +0.000 A 
ATOM      4  C   UNL     1      -7.412  13.407  22.747  0.00  0.00    +0.000 A 
ATOM      5  C   UNL     1      -7.840  13.256  21.443  0.00  0.00    +0.000 A 
ATOM      6  C   UNL     1      -6.921  12.954  20.426  0.00  0.00    +0.000 A 
ATOM      7  C   UNL     1      -5.558  12.805  20.752  0.00  0.00    +0.000 A 
ATOM      8  C   UNL     1      -4.393  12.426  20.106  0.00  0.00    +0.000 A 
ATOM      9  C   UNL     1      -4.266  12.036  18.759  0.00  0.00    +0.000 A 
ATOM     10  C   UNL     1      -3.036  11.482  18.308  0.00  0.00    +0.000 A 
ATOM     11  C   UNL     1      -1.978  11.345  19.269  0.00  0.00    +0.000 A 
ATOM     12  C   UNL     1      -0.661  11.090  18.909  0.00  0.00    +0.000 A 
ATOM     13  C   UNL     1       0.111  10.037  18.398  0.00  0.00    +0.000 A 
ATOM     14  C   UNL     1       1.466  10.274  18.141  0.00  0.00    +0.000 A 
ATOM     15  C   UNL     1       1.988  11.563  18.252  0.00  0.00    +0.000 A 
ATOM     16  C   UNL     1       1.262  12.583  18.876  0.00  0.00    +0.000 A 
ATOM     17  C   UNL     1       0.006  12.232  19.371  0.00  0.00    +0.000 A 
ATOM     18  N   UNL     1      -0.808  12.800  20.349  0.00  0.00    +0.000 N 
ATOM     19  C   UNL     1      -2.053  12.219  20.303  0.00  0.00    +0.000 A 
ATOM     20  C   UNL     1      -3.272  12.533  20.867  0.00  0.00    +0.000 A 
ATOM     21  C   UNL     1      -3.100  11.335  16.880  0.00  0.00    +0.000 C 
ATOM     22  O   UNL     1      -2.288  10.980  16.026  0.00  0.00    +0.000 OA
ATOM     23  N   UNL     1      -4.379  11.771  16.548  0.00  0.00    +0.000 N 
ATOM     24  C   UNL     1      -5.212  12.212  17.651  0.00  0.00    +0.000 C 
ATOM     25  H   UNL     1      -0.551  13.612  20.889  0.00  0.00    +0.000 HD
ATOM     26  H   UNL     1      -4.638  11.858  15.576  0.00  0.00    +0.000 HD
ENDROOT
BRANCH   1  27
ATOM     27  C   UNL     1      -2.974  12.697  23.364  0.00  0.00    +0.000 C 
BRANCH  27  28
ATOM     28  C   UNL     1      -1.957  13.787  23.683  0.00  0.00    +0.000 C 
BRANCH  28  29
ATOM     29  C   UNL     1      -2.225  15.131  23.000  0.00  0.00    +0.000 C 
BRANCH  29  31
ATOM     30  C   UNL     1      -1.951  16.315  20.883  0.00  0.00    +0.000 C 
ATOM     31  N   UNL     1      -1.327  15.438  21.877  0.00  0.00    +0.000 NA
ATOM     32  C   UNL     1      -0.112  16.078  22.388  0.00  0.00    +0.000 C 
ENDBRANCH  29  31
ENDBRANCH  28  29
ENDBRANCH  27  28
ENDBRANCH   1  27
TORSDOF 4
ENDMDL
MODEL 4
REMARK VINA RESULT:      -6.6      2.626      7.163
REMARK  Name = 
REMARK  6 active torsions:
REMARK  status: ('A' for Active; 'I' for Inactive)
REMARK    1  A    between atoms: C_1  and  N_2
REMARK    2  A    between atoms: N_2  and  C_3
REMARK    3  A    between atoms: N_2  and  C_4
REMARK    4  A    between atoms: C_4  and  C_5
REMARK    5  A    between atoms: C_5  and  C_6
REMARK    6  A    between atoms: C_6  and  N_7
REMARK                            x       y       z     vdW  Elec       q    Type
REMARK                         _______ _______ _______ _____ _____    ______ ____
ROOT
ATOM      1  N   UNL     1      -3.761  12.794  21.910  0.00  0.00    +0.000 N 
ATOM      2  C   UNL     1      -5.164  12.938  21.829  0.00  0.00    +0.000 A 
ATOM      3  C   UNL     1      -6.121  13.229  22.821  0.00  0.00    +0.000 A 
ATOM      4  C   UNL     1      -7.465  13.316  22.449  0.00  0.00    +0.000 A 
ATOM      5  C   UNL     1      -7.867  13.126  21.142  0.00  0.00    +0.000 A 
ATOM      6  C   UNL     1      -6.927  12.807  20.150  0.00  0.00    +0.000 A 
ATOM      7  C   UNL     1      -5.569  12.681  20.505  0.00  0.00    +0.000 A 
ATOM      8  C   UNL     1      -4.388  12.297  19.890  0.00  0.00    +0.000 A 
ATOM      9  C   UNL     1      -4.233  11.872  18.557  0.00  0.00    +0.000 A 
ATOM     10  C   UNL     1      -2.989  11.319  18.144  0.00  0.00    +0.000 A 
ATOM     11  C   UNL     1      -1.948  11.219  19.127  0.00  0.00    +0.000 A 
ATOM     12  C   UNL     1      -0.622  10.969  18.797  0.00  0.00    +0.000 A 
ATOM     13  C   UNL     1       0.170   9.910  18.329  0.00  0.00    +0.000 A 
ATOM     14  C   UNL     1       1.527  10.154  18.090  0.00  0.00    +0.000 A 
ATOM     15  C   UNL     1       2.034  11.452  18.176  0.00  0.00    +0.000 A 
ATOM     16  C   UNL     1       1.286  12.481  18.759  0.00  0.00    +0.000 A 
ATOM     17  C   UNL     1       0.025  12.129  19.240  0.00  0.00    +0.000 A 
ATOM     18  N   UNL     1      -0.813  12.715  20.188  0.00  0.00    +0.000 N 
ATOM     19  C   UNL     1      -2.050  12.120  20.135  0.00  0.00    +0.000 A 
ATOM     20  C   UNL     1      -3.283  12.436  20.669  0.00  0.00    +0.000 A 
ATOM     21  C   UNL     1      -3.026  11.133  16.719  0.00  0.00    +0.000 C 
ATOM     22  O   UNL     1      -2.195  10.763  15.890  0.00  0.00    +0.000 OA
ATOM     23  N   UNL     1      -4.302  11.547  16.352  0.00  0.00    +0.000 N 
ATOM     24  C   UNL     1      -5.160  12.009  17.428  0.00  0.00    +0.000 C 
ATOM     25  H   UNL     1      -0.574  13.544  20.710  0.00  0.00    +0.000 HD
ATOM     26  H   UNL     1      -4.544  11.605  15.374  0.00  0.00    +0.000 HD
ENDROOT
BRANCH   1  27
ATOM     27  C   UNL     1      -3.033  12.670  23.165  0.00  0.00    +0.000 C 
BRANCH  27  28
ATOM     28  C   UNL     1      -1.943  13.707  23.414  0.00  0.00    +0.000 C 
BRANCH  28  29
ATOM     29  C   UNL     1      -2.356  15.152  23.122  0.00  0.00    +0.000 C 
BRANCH  29  31
ATOM     30  C   UNL     1      -3.082  16.363  25.113  0.00  0.00    +0.000 C 
ATOM     31  N   UNL     1      -3.499  15.635  23.912  0.00  0.00    +0.000 NA
ATOM     32  C   UNL     1      -4.327  16.512  23.081  0.00  0.00    +0.000 C 
ENDBRANCH  29  31
ENDBRANCH  28  29
ENDBRANCH  27  28
ENDBRANCH   1  27
TORSDOF 4
ENDMDL
MODEL 5
REMARK VINA RESULT:      -6.6      6.619     11.401
REMARK  Name = 
REMARK  6 active torsions:
REMARK  status: ('A' for Active; 'I' for Inactive)
REMARK    1  A    between atoms: C_1  and  N_2
REMARK    2  A    between atoms: N_2  and  C_3
REMARK    3  A    between atoms: N_2  and  C_4
REMARK    4  A    between atoms: C_4  and  C_5
REMARK    5  A    between atoms: C_5  and  C_6
REMARK    6  A    between atoms: C_6  and  N_7
REMARK                            x       y       z     vdW  Elec       q    Type
REMARK                         _______ _______ _______ _____ _____    ______ ____
ROOT
ATOM      1  N   UNL     1       2.233   8.807  18.592  0.00  0.00    +0.000 N 
ATOM      2  C   UNL     1       1.311   8.915  19.656  0.00  0.00    +0.000 A 
ATOM      3  C   UNL     1       0.521   9.999  20.088  0.00  0.00    +0.000 A 
ATOM      4  C   UNL     1      -0.319   9.818  21.190  0.00  0.00    +0.000 A 
ATOM      5  C   UNL     1      -0.389   8.610  21.855  0.00  0.00    +0.000 A 
ATOM      6  C   UNL     1       0.414   7.531  21.453  0.00  0.00    +0.000 A 
ATOM      7  C   UNL     1       1.294   7.697  20.364  0.00  0.00    +0.000 A 
ATOM      8  C   UNL     1       2.287   6.962  19.738  0.00  0.00    +0.000 A 
ATOM      9  C   UNL     1       2.729   5.672  20.089  0.00  0.00    +0.000 A 
ATOM     10  C   UNL     1       3.895   5.144  19.471  0.00  0.00    +0.000 A 
ATOM     11  C   UNL     1       4.571   5.971  18.512  0.00  0.00    +0.000 A 
ATOM     12  C   UNL     1       5.536   5.481  17.641  0.00  0.00    +0.000 A 
ATOM     13  C   UNL     1       6.859   5.017  17.682  0.00  0.00    +0.000 A 
ATOM     14  C   UNL     1       7.436   4.560  16.492  0.00  0.00    +0.000 A 
ATOM     15  C   UNL     1       6.663   4.436  15.337  0.00  0.00    +0.000 A 
ATOM     16  C   UNL     1       5.389   5.010  15.257  0.00  0.00    +0.000 A 
ATOM     17  C   UNL     1       4.954   5.703  16.387  0.00  0.00    +0.000 A 
ATOM     18  N   UNL     1       3.991   6.694  16.564  0.00  0.00    +0.000 N 
ATOM     19  C   UNL     1       3.771   6.884  17.907  0.00  0.00    +0.000 A 
ATOM     20  C   UNL     1       2.803   7.554  18.628  0.00  0.00    +0.000 A 
ATOM     21  C   UNL     1       4.031   3.766  19.859  0.00  0.00    +0.000 C 
ATOM     22  O   UNL     1       4.812   2.870  19.544  0.00  0.00    +0.000 OA
ATOM     23  N   UNL     1       2.961   3.547  20.721  0.00  0.00    +0.000 N 
ATOM     24  C   UNL     1       2.089   4.681  20.962  0.00  0.00    +0.000 C 
ATOM     25  H   UNL     1       3.447   7.088  15.811  0.00  0.00    +0.000 HD
ATOM     26  H   UNL     1       2.779   2.613  21.058  0.00  0.00    +0.000 HD
ENDROOT
BRANCH   1  27
ATOM     27  C   UNL     1       2.748   9.950  17.850  0.00  0.00    +0.000 C 
BRANCH  27  28
ATOM     28  C   UNL     1       1.887  11.209  17.874  0.00  0.00    +0.000 C 
BRANCH  28  29
ATOM     29  C   UNL     1       2.648  12.497  18.196  0.00  0.00    +0.000 C 
BRANCH  29  31
ATOM     30  C   UNL     1       0.416  13.403  18.589  0.00  0.00    +0.000 C 
ATOM     31  N   UNL     1       1.848  13.531  18.869  0.00  0.00    +0.000 NA
ATOM     32  C   UNL     1       2.065  13.447  20.316  0.00  0.00    +0.000 C 
ENDBRANCH  29  31
ENDBRANCH  28  29
ENDBRANCH  27  28
ENDBRANCH   1  27
TORSDOF 4
ENDMDL
MODEL 6
REMARK VINA RESULT:      -6.5      1.862      2.746
REMARK  Name = 
REMARK  6 active torsions:
REMARK  status: ('A' for Active; 'I' for Inactive)
REMARK    1  A    between atoms: C_1  and  N_2
REMARK    2  A    between atoms: N_2  and  C_3
REMARK    3  A    between atoms: N_2  and  C_4
REMARK    4  A    between atoms: C_4  and  C_5
REMARK    5  A    between atoms: C_5  and  C_6
REMARK    6  A    between atoms: C_6  and  N_7
REMARK                            x       y       z     vdW  Elec       q    Type
REMARK                         _______ _______ _______ _____ _____    ______ ____
ROOT
ATOM      1  N   UNL     1      -4.552  12.148  18.188  0.00  0.00    +0.000 N 
ATOM      2  C   UNL     1      -3.892  11.280  17.290  0.00  0.00    +0.000 A 
ATOM      3  C   UNL     1      -4.342  10.660  16.107  0.00  0.00    +0.000 A 
ATOM      4  C   UNL     1      -3.456   9.838  15.404  0.00  0.00    +0.000 A 
ATOM      5  C   UNL     1      -2.163   9.626  15.843  0.00  0.00    +0.000 A 
ATOM      6  C   UNL     1      -1.714  10.216  17.034  0.00  0.00    +0.000 A 
ATOM      7  C   UNL     1      -2.597  11.023  17.779  0.00  0.00    +0.000 A 
ATOM      8  C   UNL     1      -2.594  11.676  19.001  0.00  0.00    +0.000 A 
ATOM      9  C   UNL     1      -1.547  11.695  19.943  0.00  0.00    +0.000 A 
ATOM     10  C   UNL     1      -1.783  12.243  21.233  0.00  0.00    +0.000 A 
ATOM     11  C   UNL     1      -3.098  12.749  21.510  0.00  0.00    +0.000 A 
ATOM     12  C   UNL     1      -3.380  13.554  22.606  0.00  0.00    +0.000 A 
ATOM     13  C   UNL     1      -3.488  13.441  24.000  0.00  0.00    +0.000 A 
ATOM     14  C   UNL     1      -3.766  14.598  24.737  0.00  0.00    +0.000 A 
ATOM     15  C   UNL     1      -3.785  15.845  24.110  0.00  0.00    +0.000 A 
ATOM     16  C   UNL     1      -3.803  15.949  22.714  0.00  0.00    +0.000 A 
ATOM     17  C   UNL     1      -3.802  14.747  22.007  0.00  0.00    +0.000 A 
ATOM     18  N   UNL     1      -4.199  14.423  20.711  0.00  0.00    +0.000 N 
ATOM     19  C   UNL     1      -3.779  13.150  20.408  0.00  0.00    +0.000 A 
ATOM     20  C   UNL     1      -3.703  12.426  19.236  0.00  0.00    +0.000 A 
ATOM     21  C   UNL     1      -0.530  12.309  21.935  0.00  0.00    +0.000 C 
ATOM     22  O   UNL     1      -0.193  12.761  23.028  0.00  0.00    +0.000 OA
ATOM     23  N   UNL     1       0.389  11.762  21.046  0.00  0.00    +0.000 N 
ATOM     24  C   UNL     1      -0.140  11.317  19.770  0.00  0.00    +0.000 C 
ATOM     25  H   UNL     1      -4.597  15.087  20.064  0.00  0.00    +0.000 HD
ATOM     26  H   UNL     1       1.373  11.784  21.271  0.00  0.00    +0.000 HD
ENDROOT
BRANCH   1  27
ATOM     27  C   UNL     1      -5.991  12.376  18.181  0.00  0.00    +0.000 C 
BRANCH  27  28
ATOM     28  C   UNL     1      -6.832  11.382  18.974  0.00  0.00    +0.000 C 
BRANCH  28  29
ATOM     29  C   UNL     1      -7.744  12.014  20.028  0.00  0.00    +0.000 C 
BRANCH  29  31
ATOM     30  C   UNL     1      -7.840  14.328  20.797  0.00  0.00    +0.000 C 
ATOM     31  N   UNL     1      -7.108  13.060  20.842  0.00  0.00    +0.000 NA
ATOM     32  C   UNL     1      -7.018  12.605  22.232  0.00  0.00    +0.000 C 
ENDBRANCH  29  31
ENDBRANCH  28  29
ENDBRANCH  27  28
ENDBRANCH   1  27
TORSDOF 4
ENDMDL
MODEL 7
REMARK VINA RESULT:      -6.5      2.668      7.211
REMARK  Name = 
REMARK  6 active torsions:
REMARK  status: ('A' for Active; 'I' for Inactive)
REMARK    1  A    between atoms: C_1  and  N_2
REMARK    2  A    between atoms: N_2  and  C_3
REMARK    3  A    between atoms: N_2  and  C_4
REMARK    4  A    between atoms: C_4  and  C_5
REMARK    5  A    between atoms: C_5  and  C_6
REMARK    6  A    between atoms: C_6  and  N_7
REMARK                            x       y       z     vdW  Elec       q    Type
REMARK                         _______ _______ _______ _____ _____    ______ ____
ROOT
ATOM      1  N   UNL     1      -3.756  13.029  21.489  0.00  0.00    +0.000 N 
ATOM      2  C   UNL     1      -5.162  13.138  21.408  0.00  0.00    +0.000 A 
ATOM      3  C   UNL     1      -6.115  13.530  22.369  0.00  0.00    +0.000 A 
ATOM      4  C   UNL     1      -7.464  13.548  22.005  0.00  0.00    +0.000 A 
ATOM      5  C   UNL     1      -7.875  13.193  20.735  0.00  0.00    +0.000 A 
ATOM      6  C   UNL     1      -6.939  12.774  19.778  0.00  0.00    +0.000 A 
ATOM      7  C   UNL     1      -5.575  12.715  20.130  0.00  0.00    +0.000 A 
ATOM      8  C   UNL     1      -4.394  12.281  19.552  0.00  0.00    +0.000 A 
ATOM      9  C   UNL     1      -4.243  11.700  18.278  0.00  0.00    +0.000 A 
ATOM     10  C   UNL     1      -2.993  11.124  17.920  0.00  0.00    +0.000 A 
ATOM     11  C   UNL     1      -1.941  11.161  18.895  0.00  0.00    +0.000 A 
ATOM     12  C   UNL     1      -0.614  10.897  18.582  0.00  0.00    +0.000 A 
ATOM     13  C   UNL     1       0.193   9.803  18.236  0.00  0.00    +0.000 A 
ATOM     14  C   UNL     1       1.543  10.041  17.953  0.00  0.00    +0.000 A 
ATOM     15  C   UNL     1       2.027  11.348  17.876  0.00  0.00    +0.000 A 
ATOM     16  C   UNL     1       1.265  12.426  18.340  0.00  0.00    +0.000 A 
ATOM     17  C   UNL     1       0.016  12.113  18.875  0.00  0.00    +0.000 A 
ATOM     18  N   UNL     1      -0.824  12.795  19.754  0.00  0.00    +0.000 N 
ATOM     19  C   UNL     1      -2.050  12.175  19.788  0.00  0.00    +0.000 A 
ATOM     20  C   UNL     1      -3.283  12.533  20.295  0.00  0.00    +0.000 A 
ATOM     21  C   UNL     1      -3.040  10.766  16.528  0.00  0.00    +0.000 C 
ATOM     22  O   UNL     1      -2.210  10.314  15.740  0.00  0.00    +0.000 OA
ATOM     23  N   UNL     1      -4.327  11.110  16.129  0.00  0.00    +0.000 N 
ATOM     24  C   UNL     1      -5.183  11.683  17.152  0.00  0.00    +0.000 C 
ATOM     25  H   UNL     1      -0.595  13.685  20.170  0.00  0.00    +0.000 HD
ATOM     26  H   UNL     1      -4.580  11.045  15.154  0.00  0.00    +0.000 HD
ENDROOT
BRANCH   1  27
ATOM     27  C   UNL     1      -3.014  13.070  22.742  0.00  0.00    +0.000 C 
BRANCH  27  28
ATOM     28  C   UNL     1      -2.243  11.806  23.107  0.00  0.00    +0.000 C 
BRANCH  28  29
ATOM     29  C   UNL     1      -0.735  11.881  22.855  0.00  0.00    +0.000 C 
BRANCH  29  31
ATOM     30  C   UNL     1      -0.930   9.470  23.180  0.00  0.00    +0.000 C 
ATOM     31  N   UNL     1      -0.020  10.607  23.024  0.00  0.00    +0.000 NA
ATOM     32  C   UNL     1       0.842  10.378  21.861  0.00  0.00    +0.000 C 
ENDBRANCH  29  31
ENDBRANCH  28  29
ENDBRANCH  27  28
ENDBRANCH   1  27
TORSDOF 4
ENDMDL
MODEL 8
REMARK VINA RESULT:      -6.5      2.508      3.793
REMARK  Name = 
REMARK  6 active torsions:
REMARK  status: ('A' for Active; 'I' for Inactive)
REMARK    1  A    between atoms: C_1  and  N_2
REMARK    2  A    between atoms: N_2  and  C_3
REMARK    3  A    between atoms: N_2  and  C_4
REMARK    4  A    between atoms: C_4  and  C_5
REMARK    5  A    between atoms: C_5  and  C_6
REMARK    6  A    between atoms: C_6  and  N_7
REMARK                            x       y       z     vdW  Elec       q    Type
REMARK                         _______ _______ _______ _____ _____    ______ ____
ROOT
ATOM      1  N   UNL     1      -1.039  12.594  20.410  0.00  0.00    +0.000 N 
ATOM      2  C   UNL     1      -0.565  11.520  21.194  0.00  0.00    +0.000 A 
ATOM      3  C   UNL     1       0.480  10.601  20.967  0.00  0.00    +0.000 A 
ATOM      4  C   UNL     1       0.734   9.625  21.934  0.00  0.00    +0.000 A 
ATOM      5  C   UNL     1      -0.010   9.546  23.095  0.00  0.00    +0.000 A 
ATOM      6  C   UNL     1      -1.071  10.436  23.320  0.00  0.00    +0.000 A 
ATOM      7  C   UNL     1      -1.369  11.410  22.345  0.00  0.00    +0.000 A 
ATOM      8  C   UNL     1      -2.346  12.368  22.130  0.00  0.00    +0.000 A 
ATOM      9  C   UNL     1      -3.450  12.646  22.960  0.00  0.00    +0.000 A 
ATOM     10  C   UNL     1      -4.469  13.521  22.491  0.00  0.00    +0.000 A 
ATOM     11  C   UNL     1      -4.315  14.076  21.177  0.00  0.00    +0.000 A 
ATOM     12  C   UNL     1      -5.073  15.145  20.716  0.00  0.00    +0.000 A 
ATOM     13  C   UNL     1      -6.391  15.412  20.317  0.00  0.00    +0.000 A 
ATOM     14  C   UNL     1      -6.719  16.724  19.955  0.00  0.00    +0.000 A 
ATOM     15  C   UNL     1      -5.795  17.755  20.132  0.00  0.00    +0.000 A 
ATOM     16  C   UNL     1      -4.451  17.478  20.408  0.00  0.00    +0.000 A 
ATOM     17  C   UNL     1      -4.104  16.130  20.491  0.00  0.00    +0.000 A 
ATOM     18  N   UNL     1      -2.886  15.467  20.354  0.00  0.00    +0.000 N 
ATOM     19  C   UNL     1      -3.028  14.162  20.760  0.00  0.00    +0.000 A 
ATOM     20  C   UNL     1      -2.133  13.148  21.038  0.00  0.00    +0.000 A 
ATOM     21  C   UNL     1      -5.379  13.780  23.574  0.00  0.00    +0.000 C 
ATOM     22  O   UNL     1      -6.359  14.511  23.702  0.00  0.00    +0.000 OA
ATOM     23  N   UNL     1      -4.883  13.017  24.627  0.00  0.00    +0.000 N 
ATOM     24  C   UNL     1      -3.688  12.242  24.350  0.00  0.00    +0.000 C 
ATOM     25  H   UNL     1      -2.017  15.930  20.134  0.00  0.00    +0.000 HD
ATOM     26  H   UNL     1      -5.298  13.105  25.543  0.00  0.00    +0.000 HD
ENDROOT
BRANCH   1  27
ATOM     27  C   UNL     1      -0.666  12.805  19.018  0.00  0.00    +0.000 C 
BRANCH  27  28
ATOM     28  C   UNL     1      -1.562  12.145  17.975  0.00  0.00    +0.000 C 
BRANCH  28  29
ATOM     29  C   UNL     1      -1.271  10.662  17.729  0.00  0.00    +0.000 C 
BRANCH  29  31
ATOM     30  C   UNL     1      -3.472   9.608  17.684  0.00  0.00    +0.000 C 
ATOM     31  N   UNL     1      -2.278   9.966  16.915  0.00  0.00    +0.000 NA
ATOM     32  C   UNL     1      -2.668  10.822  15.791  0.00  0.00    +0.000 C 
ENDBRANCH  29  31
ENDBRANCH  28  29
ENDBRANCH  27  28
ENDBRANCH   1  27
TORSDOF 4
ENDMDL
MODEL 9
REMARK VINA RESULT:      -6.4      3.809      5.775
REMARK  Name = 
REMARK  6 active torsions:
REMARK  status: ('A' for Active; 'I' for Inactive)
REMARK    1  A    between atoms: C_1  and  N_2
REMARK    2  A    between atoms: N_2  and  C_3
REMARK    3  A    between atoms: N_2  and  C_4
REMARK    4  A    between atoms: C_4  and  C_5
REMARK    5  A    between atoms: C_5  and  C_6
REMARK    6  A    between atoms: C_6  and  N_7
REMARK                            x       y       z     vdW  Elec       q    Type
REMARK                         _______ _______ _______ _____ _____    ______ ____
ROOT
ATOM      1  N   UNL     1       0.613  11.341  19.792  0.00  0.00    +0.000 N 
ATOM      2  C   UNL     1       0.187  10.551  20.883  0.00  0.00    +0.000 A 
ATOM      3  C   UNL     1       0.152   9.153  21.052  0.00  0.00    +0.000 A 
ATOM      4  C   UNL     1      -0.326   8.637  22.260  0.00  0.00    +0.000 A 
ATOM      5  C   UNL     1      -0.758   9.464  23.279  0.00  0.00    +0.000 A 
ATOM      6  C   UNL     1      -0.755  10.857  23.111  0.00  0.00    +0.000 A 
ATOM      7  C   UNL     1      -0.308  11.402  21.890  0.00  0.00    +0.000 A 
ATOM      8  C   UNL     1      -0.241  12.653  21.298  0.00  0.00    +0.000 A 
ATOM      9  C   UNL     1      -0.669  13.872  21.856  0.00  0.00    +0.000 A 
ATOM     10  C   UNL     1      -0.717  15.033  21.037  0.00  0.00    +0.000 A 
ATOM     11  C   UNL     1      -0.325  14.893  19.663  0.00  0.00    +0.000 A 
ATOM     12  C   UNL     1      -0.056  15.980  18.841  0.00  0.00    +0.000 A 
ATOM     13  C   UNL     1      -0.749  17.014  18.195  0.00  0.00    +0.000 A 
ATOM     14  C   UNL     1      -0.008  17.955  17.471  0.00  0.00    +0.000 A 
ATOM     15  C   UNL     1       1.386  17.941  17.519  0.00  0.00    +0.000 A 
ATOM     16  C   UNL     1       2.078  16.848  18.054  0.00  0.00    +0.000 A 
ATOM     17  C   UNL     1       1.295  15.794  18.524  0.00  0.00    +0.000 A 
ATOM     18  N   UNL     1       1.573  14.446  18.741  0.00  0.00    +0.000 N 
ATOM     19  C   UNL     1       0.536  13.871  19.436  0.00  0.00    +0.000 A 
ATOM     20  C   UNL     1       0.381  12.665  20.090  0.00  0.00    +0.000 A 
ATOM     21  C   UNL     1      -1.009  16.167  21.871  0.00  0.00    +0.000 C 
ATOM     22  O   UNL     1      -1.083  17.377  21.663  0.00  0.00    +0.000 OA
ATOM     23  N   UNL     1      -1.161  15.625  23.144  0.00  0.00    +0.000 N 
ATOM     24  C   UNL     1      -0.995  14.187  23.252  0.00  0.00    +0.000 C 
ATOM     25  H   UNL     1       2.467  14.019  18.545  0.00  0.00    +0.000 HD
ATOM     26  H   UNL     1      -1.277  16.240  23.935  0.00  0.00    +0.000 HD
ENDROOT
BRANCH   1  27
ATOM     27  C   UNL     1       0.882  10.807  18.464  0.00  0.00    +0.000 C 
BRANCH  27  28
ATOM     28  C   UNL     1      -0.260  10.039  17.806  0.00  0.00    +0.000 C 
BRANCH  28  29
ATOM     29  C   UNL     1      -1.598  10.782  17.780  0.00  0.00    +0.000 C 
BRANCH  29  31
ATOM     30  C   UNL     1      -4.023  10.505  17.730  0.00  0.00    +0.000 C 
ATOM     31  N   UNL     1      -2.730   9.992  17.272  0.00  0.00    +0.000 NA
ATOM     32  C   UNL     1      -2.703   9.994  15.807  0.00  0.00    +0.000 C 
ENDBRANCH  29  31
ENDBRANCH  28  29
ENDBRANCH  27  28
ENDBRANCH   1  27
TORSDOF 4
ENDMDL
