MODEL 1
REMARK VINA RESULT:      -8.2      0.000      0.000
REMARK  Name = 
REMARK  8 active torsions:
REMARK  status: ('A' for Active; 'I' for Inactive)
REMARK    1  A    between atoms: C_1  and  O_2
REMARK    2  A    between atoms: O_2  and  C_3
REMARK    3  A    between atoms: C_3  and  C_4
REMARK    4  A    between atoms: C_4  and  N_5
REMARK    5  A    between atoms: C_7  and  C_8
REMARK    6  A    between atoms: C_13  and  C_15
REMARK    7  A    between atoms: C_18  and  C_19
REMARK    8  A    between atoms: N_26  and  C_27
REMARK                            x       y       z     vdW  Elec       q    Type
REMARK                         _______ _______ _______ _____ _____    ______ ____
ROOT
ATOM      1  C   UNL     1       2.608   7.809  19.071  0.00  0.00    +0.000 C 
ATOM      2  C   UNL     1       1.843   8.321  17.830  0.00  0.00    +0.000 C 
ATOM      3  C   UNL     1       1.086   9.608  18.097  0.00  0.00    +0.000 C 
ATOM      4  C   UNL     1       0.186   9.480  19.312  0.00  0.00    +0.000 C 
ATOM      5  N   UNL     1       0.929   9.034  20.489  0.00  0.00    +0.000 N 
ATOM      6  C   UNL     1       0.946   9.675  21.737  0.00  0.00    +0.000 C 
ATOM      7  O   UNL     1       1.697   9.317  22.646  0.00  0.00    +0.000 OA
ATOM      8  C   UNL     1       1.674   7.762  20.296  0.00  0.00    +0.000 C 
ENDROOT
BRANCH   1  11
ATOM      9  N   UNL     1       4.475   4.988  17.825  0.00  0.00    +0.000 N 
ATOM     10  N   UNL     1       4.124   6.314  17.774  0.00  0.00    +0.000 NA
ATOM     11  C   UNL     1       3.247   6.458  18.741  0.00  0.00    +0.000 A 
ATOM     12  N   UNL     1       2.979   5.311  19.407  0.00  0.00    +0.000 N 
ATOM     13  C   UNL     1       3.761   4.330  18.814  0.00  0.00    +0.000 A 
ATOM     14  O   UNL     1       3.824   3.141  19.087  0.00  0.00    +0.000 OA
BRANCH  12  15
ATOM     15  C   UNL     1       2.080   5.095  20.497  0.00  0.00    +0.000 C 
ATOM     16  C   UNL     1       0.940   4.100  20.434  0.00  0.00    +0.000 C 
ATOM     17  C   UNL     1       2.130   3.815  21.294  0.00  0.00    +0.000 C 
ENDBRANCH  12  15
BRANCH   9  18
ATOM     18  C   UNL     1       5.386   4.354  16.895  0.00  0.00    +0.000 C 
BRANCH  18  19
ATOM     19  C   UNL     1       6.834   4.800  17.103  0.00  0.00    +0.000 C 
BRANCH  19  21
ATOM     20  C   UNL     1       7.776   5.719  19.064  0.00  0.00    +0.000 C 
ATOM     21  O   UNL     1       7.232   4.558  18.455  0.00  0.00    +0.000 OA
ENDBRANCH  19  21
ENDBRANCH  18  19
ENDBRANCH   9  18
ENDBRANCH   1  11
BRANCH   6  22
ATOM     22  C   UNL     1       0.055  10.864  22.020  0.00  0.00    +0.000 A 
ATOM     23  C   UNL     1       0.271  12.115  21.443  0.00  0.00    +0.000 A 
ATOM     24  C   UNL     1      -0.490  13.225  21.821  0.00  0.00    +0.000 A 
ATOM     25  C   UNL     1      -1.570  13.084  22.701  0.00  0.00    +0.000 A 
ATOM     26  C   UNL     1      -1.869  11.804  23.192  0.00  0.00    +0.000 A 
ATOM     27  C   UNL     1      -1.056  10.704  22.866  0.00  0.00    +0.000 A 
BRANCH  25  28
ATOM     28  C   UNL     1      -2.413  14.281  23.069  0.00  0.00    +0.000 C 
ATOM     29  F   UNL     1      -1.789  15.472  22.840  0.00  0.00    +0.000 F 
ATOM     30  F   UNL     1      -3.580  14.336  22.368  0.00  0.00    +0.000 F 
ATOM     31  F   UNL     1      -2.764  14.297  24.386  0.00  0.00    +0.000 F 
ENDBRANCH  25  28
ENDBRANCH   6  22
TORSDOF 7
ENDMDL
MODEL 2
REMARK VINA RESULT:      -8.1      0.709      1.052
REMARK  Name = 
REMARK  8 active torsions:
REMARK  status: ('A' for Active; 'I' for Inactive)
REMARK    1  A    between atoms: C_1  and  O_2
REMARK    2  A    between atoms: O_2  and  C_3
REMARK    3  A    between atoms: C_3  and  C_4
REMARK    4  A    between atoms: C_4  and  N_5
REMARK    5  A    between atoms: C_7  and  C_8
REMARK    6  A    between atoms: C_13  and  C_15
REMARK    7  A    between atoms: C_18  and  C_19
REMARK    8  A    between atoms: N_26  and  C_27
REMARK                            x       y       z     vdW  Elec       q    Type
REMARK                         _______ _______ _______ _____ _____    ______ ____
ROOT
ATOM      1  C   UNL     1       2.646   7.756  19.046  0.00  0.00    +0.000 C 
ATOM      2  C   UNL     1       1.890   8.280  17.804  0.00  0.00    +0.000 C 
ATOM      3  C   UNL     1       1.144   9.573  18.073  0.00  0.00    +0.000 C 
ATOM      4  C   UNL     1       0.238   9.448  19.284  0.00  0.00    +0.000 C 
ATOM      5  N   UNL     1       0.973   8.991  20.462  0.00  0.00    +0.000 N 
ATOM      6  C   UNL     1       0.991   9.627  21.713  0.00  0.00    +0.000 C 
ATOM      7  O   UNL     1       1.735   9.258  22.624  0.00  0.00    +0.000 OA
ATOM      8  C   UNL     1       1.706   7.713  20.268  0.00  0.00    +0.000 C 
ENDROOT
BRANCH   1  11
ATOM      9  N   UNL     1       4.486   4.921  17.790  0.00  0.00    +0.000 N 
ATOM     10  N   UNL     1       4.142   6.249  17.740  0.00  0.00    +0.000 NA
ATOM     11  C   UNL     1       3.274   6.400  18.713  0.00  0.00    +0.000 A 
ATOM     12  N   UNL     1       3.004   5.256  19.384  0.00  0.00    +0.000 N 
ATOM     13  C   UNL     1       3.775   4.269  18.785  0.00  0.00    +0.000 A 
ATOM     14  O   UNL     1       3.833   3.080  19.061  0.00  0.00    +0.000 OA
BRANCH  12  15
ATOM     15  C   UNL     1       2.112   5.047  20.481  0.00  0.00    +0.000 C 
ATOM     16  C   UNL     1       0.957   4.070  20.424  0.00  0.00    +0.000 C 
ATOM     17  C   UNL     1       2.151   3.763  21.271  0.00  0.00    +0.000 C 
ENDBRANCH  12  15
BRANCH   9  18
ATOM     18  C   UNL     1       5.384   4.280  16.854  0.00  0.00    +0.000 C 
BRANCH  18  19
ATOM     19  C   UNL     1       6.852   4.607  17.139  0.00  0.00    +0.000 C 
BRANCH  19  21
ATOM     20  C   UNL     1       6.777   4.557  14.780  0.00  0.00    +0.000 C 
ATOM     21  O   UNL     1       7.525   4.942  15.923  0.00  0.00    +0.000 OA
ENDBRANCH  19  21
ENDBRANCH  18  19
ENDBRANCH   9  18
ENDBRANCH   1  11
BRANCH   6  22
ATOM     22  C   UNL     1       0.109  10.823  21.997  0.00  0.00    +0.000 A 
ATOM     23  C   UNL     1       0.340  12.074  21.427  0.00  0.00    +0.000 A 
ATOM     24  C   UNL     1      -0.412  13.190  21.806  0.00  0.00    +0.000 A 
ATOM     25  C   UNL     1      -1.499  13.055  22.680  0.00  0.00    +0.000 A 
ATOM     26  C   UNL     1      -1.811  11.776  23.163  0.00  0.00    +0.000 A 
ATOM     27  C   UNL     1      -1.008  10.669  22.836  0.00  0.00    +0.000 A 
BRANCH  25  28
ATOM     28  C   UNL     1      -2.332  14.258  23.050  0.00  0.00    +0.000 C 
ATOM     29  F   UNL     1      -1.911  14.878  24.190  0.00  0.00    +0.000 F 
ATOM     30  F   UNL     1      -2.324  15.218  22.083  0.00  0.00    +0.000 F 
ATOM     31  F   UNL     1      -3.642  13.949  23.262  0.00  0.00    +0.000 F 
ENDBRANCH  25  28
ENDBRANCH   6  22
TORSDOF 7
ENDMDL
MODEL 3
REMARK VINA RESULT:      -8.0      1.287      3.132
REMARK  Name = 
REMARK  8 active torsions:
REMARK  status: ('A' for Active; 'I' for Inactive)
REMARK    1  A    between atoms: C_1  and  O_2
REMARK    2  A    between atoms: O_2  and  C_3
REMARK    3  A    between atoms: C_3  and  C_4
REMARK    4  A    between atoms: C_4  and  N_5
REMARK    5  A    between atoms: C_7  and  C_8
REMARK    6  A    between atoms: C_13  and  C_15
REMARK    7  A    between atoms: C_18  and  C_19
REMARK    8  A    between atoms: N_26  and  C_27
REMARK                            x       y       z     vdW  Elec       q    Type
REMARK                         _______ _______ _______ _____ _____    ______ ____
ROOT
ATOM      1  C   UNL     1       2.318   7.797  19.209  0.00  0.00    +0.000 C 
ATOM      2  C   UNL     1       1.695   8.379  17.921  0.00  0.00    +0.000 C 
ATOM      3  C   UNL     1       1.112   9.764  18.125  0.00  0.00    +0.000 C 
ATOM      4  C   UNL     1       0.142   9.791  19.291  0.00  0.00    +0.000 C 
ATOM      5  N   UNL     1       0.756   9.276  20.514  0.00  0.00    +0.000 N 
ATOM      6  C   UNL     1       0.799   9.939  21.750  0.00  0.00    +0.000 C 
ATOM      7  O   UNL     1       1.446   9.503  22.704  0.00  0.00    +0.000 OA
ATOM      8  C   UNL     1       1.326   7.909  20.384  0.00  0.00    +0.000 C 
ENDROOT
BRANCH   1  11
ATOM      9  N   UNL     1       2.911   4.245  19.025  0.00  0.00    +0.000 N 
ATOM     10  N   UNL     1       2.270   5.330  19.569  0.00  0.00    +0.000 NA
ATOM     11  C   UNL     1       2.779   6.363  18.938  0.00  0.00    +0.000 A 
ATOM     12  N   UNL     1       3.729   6.032  18.033  0.00  0.00    +0.000 N 
ATOM     13  C   UNL     1       3.845   4.650  18.084  0.00  0.00    +0.000 A 
ATOM     14  O   UNL     1       4.596   3.927  17.447  0.00  0.00    +0.000 OA
BRANCH  12  15
ATOM     15  C   UNL     1       4.495   6.888  17.181  0.00  0.00    +0.000 C 
ATOM     16  C   UNL     1       6.009   6.876  17.156  0.00  0.00    +0.000 C 
ATOM     17  C   UNL     1       5.241   6.327  15.997  0.00  0.00    +0.000 C 
ENDBRANCH  12  15
BRANCH   9  18
ATOM     18  C   UNL     1       2.708   2.880  19.462  0.00  0.00    +0.000 C 
BRANCH  18  19
ATOM     19  C   UNL     1       3.577   2.521  20.669  0.00  0.00    +0.000 C 
BRANCH  19  21
ATOM     20  C   UNL     1       1.439   2.534  21.671  0.00  0.00    +0.000 C 
ATOM     21  O   UNL     1       2.834   2.696  21.878  0.00  0.00    +0.000 OA
ENDBRANCH  19  21
ENDBRANCH  18  19
ENDBRANCH   9  18
ENDBRANCH   1  11
BRANCH   6  22
ATOM     22  C   UNL     1       0.068  11.246  21.964  0.00  0.00    +0.000 A 
ATOM     23  C   UNL     1      -1.025  11.361  22.822  0.00  0.00    +0.000 A 
ATOM     24  C   UNL     1      -1.758  12.549  22.901  0.00  0.00    +0.000 A 
ATOM     25  C   UNL     1      -1.341  13.694  22.210  0.00  0.00    +0.000 A 
ATOM     26  C   UNL     1      -0.171  13.618  21.439  0.00  0.00    +0.000 A 
ATOM     27  C   UNL     1       0.522  12.402  21.305  0.00  0.00    +0.000 A 
BRANCH  25  28
ATOM     28  C   UNL     1      -2.114  14.984  22.337  0.00  0.00    +0.000 C 
ATOM     29  F   UNL     1      -2.725  15.364  21.177  0.00  0.00    +0.000 F 
ATOM     30  F   UNL     1      -3.105  14.911  23.268  0.00  0.00    +0.000 F 
ATOM     31  F   UNL     1      -1.331  16.037  22.702  0.00  0.00    +0.000 F 
ENDBRANCH  25  28
ENDBRANCH   6  22
TORSDOF 7
ENDMDL
MODEL 4
REMARK VINA RESULT:      -8.0      1.257      2.937
REMARK  Name = 
REMARK  8 active torsions:
REMARK  status: ('A' for Active; 'I' for Inactive)
REMARK    1  A    between atoms: C_1  and  O_2
REMARK    2  A    between atoms: O_2  and  C_3
REMARK    3  A    between atoms: C_3  and  C_4
REMARK    4  A    between atoms: C_4  and  N_5
REMARK    5  A    between atoms: C_7  and  C_8
REMARK    6  A    between atoms: C_13  and  C_15
REMARK    7  A    between atoms: C_18  and  C_19
REMARK    8  A    between atoms: N_26  and  C_27
REMARK                            x       y       z     vdW  Elec       q    Type
REMARK                         _______ _______ _______ _____ _____    ______ ____
ROOT
ATOM      1  C   UNL     1       2.234   7.814  19.144  0.00  0.00    +0.000 C 
ATOM      2  C   UNL     1       1.541   8.372  17.881  0.00  0.00    +0.000 C 
ATOM      3  C   UNL     1       0.920   9.737  18.106  0.00  0.00    +0.000 C 
ATOM      4  C   UNL     1      -0.002   9.735  19.310  0.00  0.00    +0.000 C 
ATOM      5  N   UNL     1       0.677   9.244  20.508  0.00  0.00    +0.000 N 
ATOM      6  C   UNL     1       0.746   9.912  21.741  0.00  0.00    +0.000 C 
ATOM      7  O   UNL     1       1.446   9.501  22.669  0.00  0.00    +0.000 OA
ATOM      8  C   UNL     1       1.286   7.897  20.357  0.00  0.00    +0.000 C 
ENDROOT
BRANCH   1  11
ATOM      9  N   UNL     1       2.895   4.279  18.891  0.00  0.00    +0.000 N 
ATOM     10  N   UNL     1       2.209   5.338  19.433  0.00  0.00    +0.000 NA
ATOM     11  C   UNL     1       2.732   6.396  18.856  0.00  0.00    +0.000 A 
ATOM     12  N   UNL     1       3.732   6.106  17.992  0.00  0.00    +0.000 N 
ATOM     13  C   UNL     1       3.867   4.725  18.010  0.00  0.00    +0.000 A 
ATOM     14  O   UNL     1       4.661   4.031  17.392  0.00  0.00    +0.000 OA
BRANCH  12  15
ATOM     15  C   UNL     1       4.525   6.997  17.204  0.00  0.00    +0.000 C 
ATOM     16  C   UNL     1       6.035   6.905  17.134  0.00  0.00    +0.000 C 
ATOM     17  C   UNL     1       5.209   6.514  15.950  0.00  0.00    +0.000 C 
ENDBRANCH  12  15
BRANCH   9  18
ATOM     18  C   UNL     1       2.693   2.900  19.280  0.00  0.00    +0.000 C 
BRANCH  18  19
ATOM     19  C   UNL     1       3.552   2.501  20.481  0.00  0.00    +0.000 C 
BRANCH  19  21
ATOM     20  C   UNL     1       1.459   2.506  21.573  0.00  0.00    +0.000 C 
ATOM     21  O   UNL     1       2.848   2.768  21.697  0.00  0.00    +0.000 OA
ENDBRANCH  19  21
ENDBRANCH  18  19
ENDBRANCH   9  18
ENDBRANCH   1  11
BRANCH   6  22
ATOM     22  C   UNL     1      -0.018  11.194  21.982  0.00  0.00    +0.000 A 
ATOM     23  C   UNL     1       0.351  12.406  21.400  0.00  0.00    +0.000 A 
ATOM     24  C   UNL     1      -0.296  13.598  21.741  0.00  0.00    +0.000 A 
ATOM     25  C   UNL     1      -1.413  13.587  22.586  0.00  0.00    +0.000 A 
ATOM     26  C   UNL     1      -1.865  12.353  23.080  0.00  0.00    +0.000 A 
ATOM     27  C   UNL     1      -1.167  11.167  22.792  0.00  0.00    +0.000 A 
BRANCH  25  28
ATOM     28  C   UNL     1      -2.132  14.873  22.914  0.00  0.00    +0.000 C 
ATOM     29  F   UNL     1      -1.292  15.937  23.067  0.00  0.00    +0.000 F 
ATOM     30  F   UNL     1      -3.019  15.239  21.947  0.00  0.00    +0.000 F 
ATOM     31  F   UNL     1      -2.847  14.799  24.072  0.00  0.00    +0.000 F 
ENDBRANCH  25  28
ENDBRANCH   6  22
TORSDOF 7
ENDMDL
MODEL 5
REMARK VINA RESULT:      -8.0      1.325      3.175
REMARK  Name = 
REMARK  8 active torsions:
REMARK  status: ('A' for Active; 'I' for Inactive)
REMARK    1  A    between atoms: C_1  and  O_2
REMARK    2  A    between atoms: O_2  and  C_3
REMARK    3  A    between atoms: C_3  and  C_4
REMARK    4  A    between atoms: C_4  and  N_5
REMARK    5  A    between atoms: C_7  and  C_8
REMARK    6  A    between atoms: C_13  and  C_15
REMARK    7  A    between atoms: C_18  and  C_19
REMARK    8  A    between atoms: N_26  and  C_27
REMARK                            x       y       z     vdW  Elec       q    Type
REMARK                         _______ _______ _______ _____ _____    ______ ____
ROOT
ATOM      1  C   UNL     1       2.639   7.533  18.709  0.00  0.00    +0.000 C 
ATOM      2  C   UNL     1       2.255   8.385  17.478  0.00  0.00    +0.000 C 
ATOM      3  C   UNL     1       1.771   9.772  17.852  0.00  0.00    +0.000 C 
ATOM      4  C   UNL     1       0.654   9.712  18.876  0.00  0.00    +0.000 C 
ATOM      5  N   UNL     1       1.044   8.939  20.054  0.00  0.00    +0.000 N 
ATOM      6  C   UNL     1       0.971   9.381  21.384  0.00  0.00    +0.000 C 
ATOM      7  O   UNL     1       1.438   8.725  22.318  0.00  0.00    +0.000 OA
ATOM      8  C   UNL     1       1.506   7.559  19.753  0.00  0.00    +0.000 C 
ENDROOT
BRANCH   1  11
ATOM      9  N   UNL     1       2.882   4.037  17.861  0.00  0.00    +0.000 N 
ATOM     10  N   UNL     1       2.222   5.089  18.447  0.00  0.00    +0.000 NA
ATOM     11  C   UNL     1       3.008   6.122  18.245  0.00  0.00    +0.000 A 
ATOM     12  N   UNL     1       4.151   5.816  17.589  0.00  0.00    +0.000 N 
ATOM     13  C   UNL     1       4.098   4.451  17.341  0.00  0.00    +0.000 A 
ATOM     14  O   UNL     1       4.929   3.748  16.786  0.00  0.00    +0.000 OA
BRANCH  12  15
ATOM     15  C   UNL     1       5.228   6.676  17.211  0.00  0.00    +0.000 C 
ATOM     16  C   UNL     1       6.579   6.645  17.894  0.00  0.00    +0.000 C 
ATOM     17  C   UNL     1       6.438   6.128  16.498  0.00  0.00    +0.000 C 
ENDBRANCH  12  15
BRANCH   9  18
ATOM     18  C   UNL     1       2.411   2.669  17.889  0.00  0.00    +0.000 C 
BRANCH  18  19
ATOM     19  C   UNL     1       1.285   2.462  18.903  0.00  0.00    +0.000 C 
BRANCH  19  21
ATOM     20  C   UNL     1       1.276   2.884  21.226  0.00  0.00    +0.000 C 
ATOM     21  O   UNL     1       1.830   2.107  20.176  0.00  0.00    +0.000 OA
ENDBRANCH  19  21
ENDBRANCH  18  19
ENDBRANCH   9  18
ENDBRANCH   1  11
BRANCH   6  22
ATOM     22  C   UNL     1       0.334  10.706  21.736  0.00  0.00    +0.000 A 
ATOM     23  C   UNL     1       0.768  11.913  21.189  0.00  0.00    +0.000 A 
ATOM     24  C   UNL     1       0.246  13.134  21.629  0.00  0.00    +0.000 A 
ATOM     25  C   UNL     1      -0.814  13.169  22.545  0.00  0.00    +0.000 A 
ATOM     26  C   UNL     1      -1.337  11.952  23.007  0.00  0.00    +0.000 A 
ATOM     27  C   UNL     1      -0.761  10.730  22.617  0.00  0.00    +0.000 A 
BRANCH  25  28
ATOM     28  C   UNL     1      -1.399  14.490  22.980  0.00  0.00    +0.000 C 
ATOM     29  F   UNL     1      -2.589  14.364  23.636  0.00  0.00    +0.000 F 
ATOM     30  F   UNL     1      -0.581  15.172  23.829  0.00  0.00    +0.000 F 
ATOM     31  F   UNL     1      -1.643  15.331  21.935  0.00  0.00    +0.000 F 
ENDBRANCH  25  28
ENDBRANCH   6  22
TORSDOF 7
ENDMDL
MODEL 6
REMARK VINA RESULT:      -8.0      0.863      1.586
REMARK  Name = 
REMARK  8 active torsions:
REMARK  status: ('A' for Active; 'I' for Inactive)
REMARK    1  A    between atoms: C_1  and  O_2
REMARK    2  A    between atoms: O_2  and  C_3
REMARK    3  A    between atoms: C_3  and  C_4
REMARK    4  A    between atoms: C_4  and  N_5
REMARK    5  A    between atoms: C_7  and  C_8
REMARK    6  A    between atoms: C_13  and  C_15
REMARK    7  A    between atoms: C_18  and  C_19
REMARK    8  A    between atoms: N_26  and  C_27
REMARK                            x       y       z     vdW  Elec       q    Type
REMARK                         _______ _______ _______ _____ _____    ______ ____
ROOT
ATOM      1  C   UNL     1       2.348   8.151  18.970  0.00  0.00    +0.000 C 
ATOM      2  C   UNL     1       1.473   8.655  17.800  0.00  0.00    +0.000 C 
ATOM      3  C   UNL     1       0.673   9.893  18.158  0.00  0.00    +0.000 C 
ATOM      4  C   UNL     1      -0.133   9.684  19.427  0.00  0.00    +0.000 C 
ATOM      5  N   UNL     1       0.714   9.247  20.536  0.00  0.00    +0.000 N 
ATOM      6  C   UNL     1       0.785   9.854  21.800  0.00  0.00    +0.000 C 
ATOM      7  O   UNL     1       1.616   9.511  22.644  0.00  0.00    +0.000 OA
ATOM      8  C   UNL     1       1.506   8.022  20.254  0.00  0.00    +0.000 C 
ENDROOT
BRANCH   1  11
ATOM      9  N   UNL     1       4.278   5.469  17.524  0.00  0.00    +0.000 N 
ATOM     10  N   UNL     1       3.865   6.779  17.544  0.00  0.00    +0.000 NA
ATOM     11  C   UNL     1       3.031   6.844  18.555  0.00  0.00    +0.000 A 
ATOM     12  N   UNL     1       2.847   5.662  19.186  0.00  0.00    +0.000 N 
ATOM     13  C   UNL     1       3.642   4.741  18.517  0.00  0.00    +0.000 A 
ATOM     14  O   UNL     1       3.771   3.547  18.739  0.00  0.00    +0.000 OA
BRANCH  12  15
ATOM     15  C   UNL     1       2.011   5.361  20.307  0.00  0.00    +0.000 C 
ATOM     16  C   UNL     1       0.991   4.243  20.292  0.00  0.00    +0.000 C 
ATOM     17  C   UNL     1       2.232   4.109  21.117  0.00  0.00    +0.000 C 
ENDBRANCH  12  15
BRANCH   9  18
ATOM     18  C   UNL     1       5.169   4.916  16.528  0.00  0.00    +0.000 C 
BRANCH  18  19
ATOM     19  C   UNL     1       6.603   5.426  16.681  0.00  0.00    +0.000 C 
BRANCH  19  21
ATOM     20  C   UNL     1       6.927   4.739  14.445  0.00  0.00    +0.000 C 
ATOM     21  O   UNL     1       7.464   4.754  15.759  0.00  0.00    +0.000 OA
ENDBRANCH  19  21
ENDBRANCH  18  19
ENDBRANCH   9  18
ENDBRANCH   1  11
BRANCH   6  22
ATOM     22  C   UNL     1      -0.143  10.986  22.179  0.00  0.00    +0.000 A 
ATOM     23  C   UNL     1      -1.227  10.809  23.038  0.00  0.00    +0.000 A 
ATOM     24  C   UNL     1      -2.141  11.842  23.268  0.00  0.00    +0.000 A 
ATOM     25  C   UNL     1      -1.924  13.120  22.736  0.00  0.00    +0.000 A 
ATOM     26  C   UNL     1      -0.769  13.336  21.970  0.00  0.00    +0.000 A 
ATOM     27  C   UNL     1       0.109  12.276  21.681  0.00  0.00    +0.000 A 
BRANCH  25  28
ATOM     28  C   UNL     1      -2.893  14.240  23.027  0.00  0.00    +0.000 C 
ATOM     29  F   UNL     1      -4.186  13.820  23.139  0.00  0.00    +0.000 F 
ATOM     30  F   UNL     1      -2.614  14.885  24.193  0.00  0.00    +0.000 F 
ATOM     31  F   UNL     1      -2.900  15.198  22.058  0.00  0.00    +0.000 F 
ENDBRANCH  25  28
ENDBRANCH   6  22
TORSDOF 7
ENDMDL
MODEL 7
REMARK VINA RESULT:      -7.9      1.270      3.010
REMARK  Name = 
REMARK  8 active torsions:
REMARK  status: ('A' for Active; 'I' for Inactive)
REMARK    1  A    between atoms: C_1  and  O_2
REMARK    2  A    between atoms: O_2  and  C_3
REMARK    3  A    between atoms: C_3  and  C_4
REMARK    4  A    between atoms: C_4  and  N_5
REMARK    5  A    between atoms: C_7  and  C_8
REMARK    6  A    between atoms: C_13  and  C_15
REMARK    7  A    between atoms: C_18  and  C_19
REMARK    8  A    between atoms: N_26  and  C_27
REMARK                            x       y       z     vdW  Elec       q    Type
REMARK                         _______ _______ _______ _____ _____    ______ ____
ROOT
ATOM      1  C   UNL     1       2.668   7.631  19.197  0.00  0.00    +0.000 C 
ATOM      2  C   UNL     1       1.978   8.130  17.907  0.00  0.00    +0.000 C 
ATOM      3  C   UNL     1       1.277   9.461  18.093  0.00  0.00    +0.000 C 
ATOM      4  C   UNL     1       0.324   9.425  19.274  0.00  0.00    +0.000 C 
ATOM      5  N   UNL     1       0.998   8.992  20.496  0.00  0.00    +0.000 N 
ATOM      6  C   UNL     1       0.998   9.682  21.719  0.00  0.00    +0.000 C 
ATOM      7  O   UNL     1       1.695   9.324  22.672  0.00  0.00    +0.000 OA
ATOM      8  C   UNL     1       1.685   7.679  20.384  0.00  0.00    +0.000 C 
ENDROOT
BRANCH   1  11
ATOM      9  N   UNL     1       3.573   4.144  19.070  0.00  0.00    +0.000 N 
ATOM     10  N   UNL     1       2.845   5.178  19.604  0.00  0.00    +0.000 NA
ATOM     11  C   UNL     1       3.251   6.239  18.945  0.00  0.00    +0.000 A 
ATOM     12  N   UNL     1       4.215   5.976  18.033  0.00  0.00    +0.000 N 
ATOM     13  C   UNL     1       4.454   4.611  18.108  0.00  0.00    +0.000 A 
ATOM     14  O   UNL     1       5.258   3.944  17.474  0.00  0.00    +0.000 OA
BRANCH  12  15
ATOM     15  C   UNL     1       4.890   6.879  17.154  0.00  0.00    +0.000 C 
ATOM     16  C   UNL     1       6.378   7.148  17.240  0.00  0.00    +0.000 C 
ATOM     17  C   UNL     1       5.828   6.362  16.092  0.00  0.00    +0.000 C 
ENDBRANCH  12  15
BRANCH   9  18
ATOM     18  C   UNL     1       3.498   2.776  19.537  0.00  0.00    +0.000 C 
BRANCH  18  19
ATOM     19  C   UNL     1       2.877   1.839  18.498  0.00  0.00    +0.000 C 
BRANCH  19  21
ATOM     20  C   UNL     1       0.598   2.376  18.809  0.00  0.00    +0.000 C 
ATOM     21  O   UNL     1       1.711   2.442  17.930  0.00  0.00    +0.000 OA
ENDBRANCH  19  21
ENDBRANCH  18  19
ENDBRANCH   9  18
ENDBRANCH   1  11
BRANCH   6  22
ATOM     22  C   UNL     1       0.157  10.923  21.919  0.00  0.00    +0.000 A 
ATOM     23  C   UNL     1       0.436  12.127  21.276  0.00  0.00    +0.000 A 
ATOM     24  C   UNL     1      -0.279  13.290  21.577  0.00  0.00    +0.000 A 
ATOM     25  C   UNL     1      -1.377  13.247  22.447  0.00  0.00    +0.000 A 
ATOM     26  C   UNL     1      -1.739  12.011  23.005  0.00  0.00    +0.000 A 
ATOM     27  C   UNL     1      -0.972  10.860  22.755  0.00  0.00    +0.000 A 
BRANCH  25  28
ATOM     28  C   UNL     1      -2.171  14.499  22.732  0.00  0.00    +0.000 C 
ATOM     29  F   UNL     1      -2.196  15.373  21.685  0.00  0.00    +0.000 F 
ATOM     30  F   UNL     1      -3.475  14.237  23.024  0.00  0.00    +0.000 F 
ATOM     31  F   UNL     1      -1.683  15.205  23.790  0.00  0.00    +0.000 F 
ENDBRANCH  25  28
ENDBRANCH   6  22
TORSDOF 7
ENDMDL
MODEL 8
REMARK VINA RESULT:      -7.9      1.270      3.123
REMARK  Name = 
REMARK  8 active torsions:
REMARK  status: ('A' for Active; 'I' for Inactive)
REMARK    1  A    between atoms: C_1  and  O_2
REMARK    2  A    between atoms: O_2  and  C_3
REMARK    3  A    between atoms: C_3  and  C_4
REMARK    4  A    between atoms: C_4  and  N_5
REMARK    5  A    between atoms: C_7  and  C_8
REMARK    6  A    between atoms: C_13  and  C_15
REMARK    7  A    between atoms: C_18  and  C_19
REMARK    8  A    between atoms: N_26  and  C_27
REMARK                            x       y       z     vdW  Elec       q    Type
REMARK                         _______ _______ _______ _____ _____    ______ ____
ROOT
ATOM      1  C   UNL     1       2.606   7.621  19.246  0.00  0.00    +0.000 C 
ATOM      2  C   UNL     1       1.926   8.119  17.951  0.00  0.00    +0.000 C 
ATOM      3  C   UNL     1       1.220   9.449  18.134  0.00  0.00    +0.000 C 
ATOM      4  C   UNL     1       0.258   9.410  19.306  0.00  0.00    +0.000 C 
ATOM      5  N   UNL     1       0.923   8.977  20.534  0.00  0.00    +0.000 N 
ATOM      6  C   UNL     1       0.912   9.665  21.757  0.00  0.00    +0.000 C 
ATOM      7  O   UNL     1       1.602   9.309  22.715  0.00  0.00    +0.000 OA
ATOM      8  C   UNL     1       1.614   7.666  20.425  0.00  0.00    +0.000 C 
ENDROOT
BRANCH   1  11
ATOM      9  N   UNL     1       3.521   4.136  19.125  0.00  0.00    +0.000 N 
ATOM     10  N   UNL     1       2.788   5.169  19.655  0.00  0.00    +0.000 NA
ATOM     11  C   UNL     1       3.194   6.230  18.998  0.00  0.00    +0.000 A 
ATOM     12  N   UNL     1       4.163   5.970  18.090  0.00  0.00    +0.000 N 
ATOM     13  C   UNL     1       4.405   4.605  18.167  0.00  0.00    +0.000 A 
ATOM     14  O   UNL     1       5.214   3.941  17.537  0.00  0.00    +0.000 OA
BRANCH  12  15
ATOM     15  C   UNL     1       4.840   6.874  17.213  0.00  0.00    +0.000 C 
ATOM     16  C   UNL     1       6.348   7.002  17.174  0.00  0.00    +0.000 C 
ATOM     17  C   UNL     1       5.625   6.359  16.033  0.00  0.00    +0.000 C 
ENDBRANCH  12  15
BRANCH   9  18
ATOM     18  C   UNL     1       3.448   2.768  19.592  0.00  0.00    +0.000 C 
BRANCH  18  19
ATOM     19  C   UNL     1       2.916   1.815  18.520  0.00  0.00    +0.000 C 
BRANCH  19  21
ATOM     20  C   UNL     1       0.633   2.337  18.815  0.00  0.00    +0.000 C 
ATOM     21  O   UNL     1       1.736   2.358  17.923  0.00  0.00    +0.000 OA
ENDBRANCH  19  21
ENDBRANCH  18  19
ENDBRANCH   9  18
ENDBRANCH   1  11
BRANCH   6  22
ATOM     22  C   UNL     1       0.066  10.904  21.952  0.00  0.00    +0.000 A 
ATOM     23  C   UNL     1      -1.012  10.943  22.834  0.00  0.00    +0.000 A 
ATOM     24  C   UNL     1      -1.853  12.058  22.898  0.00  0.00    +0.000 A 
ATOM     25  C   UNL     1      -1.561  13.216  22.164  0.00  0.00    +0.000 A 
ATOM     26  C   UNL     1      -0.408  13.226  21.365  0.00  0.00    +0.000 A 
ATOM     27  C   UNL     1       0.394  12.076  21.248  0.00  0.00    +0.000 A 
BRANCH  25  28
ATOM     28  C   UNL     1      -2.450  14.430  22.273  0.00  0.00    +0.000 C 
ATOM     29  F   UNL     1      -1.797  15.538  22.731  0.00  0.00    +0.000 F 
ATOM     30  F   UNL     1      -2.994  14.791  21.078  0.00  0.00    +0.000 F 
ATOM     31  F   UNL     1      -3.498  14.244  23.123  0.00  0.00    +0.000 F 
ENDBRANCH  25  28
ENDBRANCH   6  22
TORSDOF 7
ENDMDL
MODEL 9
REMARK VINA RESULT:      -7.9      1.808      2.399
REMARK  Name = 
REMARK  8 active torsions:
REMARK  status: ('A' for Active; 'I' for Inactive)
REMARK    1  A    between atoms: C_1  and  O_2
REMARK    2  A    between atoms: O_2  and  C_3
REMARK    3  A    between atoms: C_3  and  C_4
REMARK    4  A    between atoms: C_4  and  N_5
REMARK    5  A    between atoms: C_7  and  C_8
REMARK    6  A    between atoms: C_13  and  C_15
REMARK    7  A    between atoms: C_18  and  C_19
REMARK    8  A    between atoms: N_26  and  C_27
REMARK                            x       y       z     vdW  Elec       q    Type
REMARK                         _______ _______ _______ _____ _____    ______ ____
ROOT
ATOM      1  C   UNL     1       1.976   6.572  19.144  0.00  0.00    +0.000 C 
ATOM      2  C   UNL     1       1.890   6.393  20.676  0.00  0.00    +0.000 C 
ATOM      3  C   UNL     1       0.980   7.411  21.336  0.00  0.00    +0.000 C 
ATOM      4  C   UNL     1       1.358   8.827  20.946  0.00  0.00    +0.000 C 
ATOM      5  N   UNL     1       1.395   8.994  19.494  0.00  0.00    +0.000 N 
ATOM      6  C   UNL     1       0.709   9.979  18.766  0.00  0.00    +0.000 C 
ATOM      7  O   UNL     1       0.683   9.981  17.533  0.00  0.00    +0.000 OA
ATOM      8  C   UNL     1       2.291   8.039  18.791  0.00  0.00    +0.000 C 
ENDROOT
BRANCH   1  11
ATOM      9  N   UNL     1       4.832   4.746  17.915  0.00  0.00    +0.000 N 
ATOM     10  N   UNL     1       4.253   5.899  18.384  0.00  0.00    +0.000 NA
ATOM     11  C   UNL     1       2.995   5.578  18.581  0.00  0.00    +0.000 A 
ATOM     12  N   UNL     1       2.703   4.300  18.250  0.00  0.00    +0.000 N 
ATOM     13  C   UNL     1       3.888   3.739  17.795  0.00  0.00    +0.000 A 
ATOM     14  O   UNL     1       4.081   2.607  17.377  0.00  0.00    +0.000 OA
BRANCH  12  15
ATOM     15  C   UNL     1       1.448   3.617  18.323  0.00  0.00    +0.000 C 
ATOM     16  C   UNL     1       1.327   2.168  18.745  0.00  0.00    +0.000 C 
ATOM     17  C   UNL     1       0.847   3.253  19.657  0.00  0.00    +0.000 C 
ENDBRANCH  12  15
BRANCH   9  18
ATOM     18  C   UNL     1       6.215   4.644  17.502  0.00  0.00    +0.000 C 
BRANCH  18  19
ATOM     19  C   UNL     1       6.755   5.962  16.943  0.00  0.00    +0.000 C 
BRANCH  19  21
ATOM     20  C   UNL     1       6.923   4.723  14.939  0.00  0.00    +0.000 C 
ATOM     21  O   UNL     1       7.520   5.716  15.760  0.00  0.00    +0.000 OA
ENDBRANCH  19  21
ENDBRANCH  18  19
ENDBRANCH   9  18
ENDBRANCH   1  11
BRANCH   6  22
ATOM     22  C   UNL     1      -0.060  11.077  19.464  0.00  0.00    +0.000 A 
ATOM     23  C   UNL     1       0.567  12.060  20.229  0.00  0.00    +0.000 A 
ATOM     24  C   UNL     1      -0.178  12.985  20.967  0.00  0.00    +0.000 A 
ATOM     25  C   UNL     1      -1.575  13.024  20.862  0.00  0.00    +0.000 A 
ATOM     26  C   UNL     1      -2.204  12.114  19.999  0.00  0.00    +0.000 A 
ATOM     27  C   UNL     1      -1.456  11.139  19.315  0.00  0.00    +0.000 A 
BRANCH  25  28
ATOM     28  C   UNL     1      -2.367  14.055  21.628  0.00  0.00    +0.000 C 
ATOM     29  F   UNL     1      -2.653  15.170  20.896  0.00  0.00    +0.000 F 
ATOM     30  F   UNL     1      -3.568  13.579  22.059  0.00  0.00    +0.000 F 
ATOM     31  F   UNL     1      -1.718  14.501  22.740  0.00  0.00    +0.000 F 
ENDBRANCH  25  28
ENDBRANCH   6  22
TORSDOF 7
ENDMDL
