MODEL 1
REMARK VINA RESULT:      -5.4      0.000      0.000
REMARK  Name = 
REMARK  6 active torsions:
REMARK  status: ('A' for Active; 'I' for Inactive)
REMARK    1  A    between atoms: C_1  and  C_2
REMARK    2  A    between atoms: C_2  and  N_3
REMARK    3  A    between atoms: C_5  and  O_6
REMARK    4  A    between atoms: C_7  and  O_8
REMARK    5  A    between atoms: N_10  and  C_11
REMARK    6  A    between atoms: C_11  and  C_12
REMARK                            x       y       z     vdW  Elec       q    Type
REMARK                         _______ _______ _______ _____ _____    ______ ____
ROOT
ATOM      1  N   UNL     1       5.744   4.157  18.883  0.00  0.00    +0.000 NA
ATOM      2  C   UNL     1       6.484   5.182  18.692  0.00  0.00    +0.000 C 
ATOM      3  C   UNL     1       7.572   5.707  19.548  0.00  0.00    +0.000 C 
ATOM      4  C   UNL     1       7.814   6.734  18.689  0.00  0.00    +0.000 C 
ATOM      5  C   UNL     1       6.739   6.280  17.767  0.00  0.00    +0.000 C 
ATOM      6  N   UNL     1       6.331   6.765  16.658  0.00  0.00    +0.000 NA
ENDROOT
BRANCH   1   8
ATOM      7  C   UNL     1       3.338   4.147  18.416  0.00  0.00    +0.000 C 
ATOM      8  C   UNL     1       4.728   3.844  17.893  0.00  0.00    +0.000 C 
ENDBRANCH   1   8
BRANCH   3   9
ATOM      9  O   UNL     1       8.093   5.346  20.662  0.00  0.00    +0.000 OA
ATOM     10  H   UNL     1       8.988   4.998  20.474  0.00  0.00    +0.000 HD
ENDBRANCH   3   9
BRANCH   4  11
ATOM     11  O   UNL     1       8.647   7.710  18.685  0.00  0.00    +0.000 OA
ATOM     12  H   UNL     1       9.207   7.624  17.888  0.00  0.00    +0.000 HD
ENDBRANCH   4  11
BRANCH   6  13
ATOM     13  C   UNL     1       5.251   6.133  15.930  0.00  0.00    +0.000 C 
ATOM     14  C   UNL     1       5.796   5.197  14.871  0.00  0.00    +0.000 C 
ENDBRANCH   6  13
TORSDOF 4
ENDMDL
MODEL 2
REMARK VINA RESULT:      -5.4      2.966      4.677
REMARK  Name = 
REMARK  6 active torsions:
REMARK  status: ('A' for Active; 'I' for Inactive)
REMARK    1  A    between atoms: C_1  and  C_2
REMARK    2  A    between atoms: C_2  and  N_3
REMARK    3  A    between atoms: C_5  and  O_6
REMARK    4  A    between atoms: C_7  and  O_8
REMARK    5  A    between atoms: N_10  and  C_11
REMARK    6  A    between atoms: C_11  and  C_12
REMARK                            x       y       z     vdW  Elec       q    Type
REMARK                         _______ _______ _______ _____ _____    ______ ____
ROOT
ATOM      1  N   UNL     1       7.324   6.240  16.513  0.00  0.00    +0.000 NA
ATOM      2  C   UNL     1       6.878   5.341  15.721  0.00  0.00    +0.000 C 
ATOM      3  C   UNL     1       7.281   5.056  14.325  0.00  0.00    +0.000 C 
ATOM      4  C   UNL     1       6.388   4.034  14.227  0.00  0.00    +0.000 C 
ATOM      5  C   UNL     1       5.919   4.246  15.622  0.00  0.00    +0.000 C 
ATOM      6  N   UNL     1       5.031   3.633  16.306  0.00  0.00    +0.000 NA
ENDROOT
BRANCH   1   8
ATOM      7  C   UNL     1       7.789   5.992  18.906  0.00  0.00    +0.000 C 
ATOM      8  C   UNL     1       6.759   6.328  17.848  0.00  0.00    +0.000 C 
ENDBRANCH   1   8
BRANCH   3   9
ATOM      9  O   UNL     1       8.135   5.564  13.516  0.00  0.00    +0.000 OA
ATOM     10  H   UNL     1       8.384   6.445  13.858  0.00  0.00    +0.000 HD
ENDBRANCH   3   9
BRANCH   4  11
ATOM     11  O   UNL     1       6.079   3.214  13.291  0.00  0.00    +0.000 OA
ATOM     12  H   UNL     1       5.274   3.552  12.849  0.00  0.00    +0.000 HD
ENDBRANCH   4  11
BRANCH   6  13
ATOM     13  C   UNL     1       4.748   4.028  17.670  0.00  0.00    +0.000 C 
ATOM     14  C   UNL     1       3.385   4.683  17.765  0.00  0.00    +0.000 C 
ENDBRANCH   6  13
TORSDOF 4
ENDMDL
MODEL 3
REMARK VINA RESULT:      -5.4      2.027      2.461
REMARK  Name = 
REMARK  6 active torsions:
REMARK  status: ('A' for Active; 'I' for Inactive)
REMARK    1  A    between atoms: C_1  and  C_2
REMARK    2  A    between atoms: C_2  and  N_3
REMARK    3  A    between atoms: C_5  and  O_6
REMARK    4  A    between atoms: C_7  and  O_8
REMARK    5  A    between atoms: N_10  and  C_11
REMARK    6  A    between atoms: C_11  and  C_12
REMARK                            x       y       z     vdW  Elec       q    Type
REMARK                         _______ _______ _______ _____ _____    ______ ____
ROOT
ATOM      1  N   UNL     1       5.420   3.752  19.035  0.00  0.00    +0.000 NA
ATOM      2  C   UNL     1       5.911   4.654  18.273  0.00  0.00    +0.000 C 
ATOM      3  C   UNL     1       7.279   4.747  17.716  0.00  0.00    +0.000 C 
ATOM      4  C   UNL     1       6.987   5.910  17.072  0.00  0.00    +0.000 C 
ATOM      5  C   UNL     1       5.591   5.898  17.584  0.00  0.00    +0.000 C 
ATOM      6  N   UNL     1       4.629   6.720  17.403  0.00  0.00    +0.000 NA
ENDROOT
BRANCH   1   8
ATOM      7  C   UNL     1       3.164   2.815  18.836  0.00  0.00    +0.000 C 
ATOM      8  C   UNL     1       4.037   3.884  19.460  0.00  0.00    +0.000 C 
ENDBRANCH   1   8
BRANCH   3   9
ATOM      9  O   UNL     1       8.334   4.024  17.798  0.00  0.00    +0.000 OA
ATOM     10  H   UNL     1       8.091   3.110  17.547  0.00  0.00    +0.000 HD
ENDBRANCH   3   9
BRANCH   4  11
ATOM     11  O   UNL     1       7.661   6.699  16.319  0.00  0.00    +0.000 OA
ATOM     12  H   UNL     1       7.654   7.586  16.732  0.00  0.00    +0.000 HD
ENDBRANCH   4  11
BRANCH   6  13
ATOM     13  C   UNL     1       3.338   6.490  18.016  0.00  0.00    +0.000 C 
ATOM     14  C   UNL     1       2.549   7.780  18.100  0.00  0.00    +0.000 C 
ENDBRANCH   6  13
TORSDOF 4
ENDMDL
MODEL 4
REMARK VINA RESULT:      -5.4      0.062      3.034
REMARK  Name = 
REMARK  6 active torsions:
REMARK  status: ('A' for Active; 'I' for Inactive)
REMARK    1  A    between atoms: C_1  and  C_2
REMARK    2  A    between atoms: C_2  and  N_3
REMARK    3  A    between atoms: C_5  and  O_6
REMARK    4  A    between atoms: C_7  and  O_8
REMARK    5  A    between atoms: N_10  and  C_11
REMARK    6  A    between atoms: C_11  and  C_12
REMARK                            x       y       z     vdW  Elec       q    Type
REMARK                         _______ _______ _______ _____ _____    ______ ____
ROOT
ATOM      1  N   UNL     1       6.369   6.704  16.651  0.00  0.00    +0.000 NA
ATOM      2  C   UNL     1       6.733   6.215  17.775  0.00  0.00    +0.000 C 
ATOM      3  C   UNL     1       7.797   6.690  18.688  0.00  0.00    +0.000 C 
ATOM      4  C   UNL     1       7.546   5.690  19.576  0.00  0.00    +0.000 C 
ATOM      5  C   UNL     1       6.458   5.141  18.722  0.00  0.00    +0.000 C 
ATOM      6  N   UNL     1       5.692   4.133  18.893  0.00  0.00    +0.000 NA
ENDROOT
BRANCH   1   8
ATOM      7  C   UNL     1       5.830   5.170  14.817  0.00  0.00    +0.000 C 
ATOM      8  C   UNL     1       5.293   6.049  15.927  0.00  0.00    +0.000 C 
ENDBRANCH   1   8
BRANCH   3   9
ATOM      9  O   UNL     1       8.633   7.661  18.665  0.00  0.00    +0.000 OA
ATOM     10  H   UNL     1       9.191   7.557  17.868  0.00  0.00    +0.000 HD
ENDBRANCH   3   9
BRANCH   4  11
ATOM     11  O   UNL     1       8.055   5.358  20.704  0.00  0.00    +0.000 OA
ATOM     12  H   UNL     1       8.660   4.604  20.552  0.00  0.00    +0.000 HD
ENDBRANCH   4  11
BRANCH   6  13
ATOM     13  C   UNL     1       4.689   3.793  17.905  0.00  0.00    +0.000 C 
ATOM     14  C   UNL     1       3.305   4.160  18.401  0.00  0.00    +0.000 C 
ENDBRANCH   6  13
TORSDOF 4
ENDMDL
MODEL 5
REMARK VINA RESULT:      -5.4      2.032      3.522
REMARK  Name = 
REMARK  6 active torsions:
REMARK  status: ('A' for Active; 'I' for Inactive)
REMARK    1  A    between atoms: C_1  and  C_2
REMARK    2  A    between atoms: C_2  and  N_3
REMARK    3  A    between atoms: C_5  and  O_6
REMARK    4  A    between atoms: C_7  and  O_8
REMARK    5  A    between atoms: N_10  and  C_11
REMARK    6  A    between atoms: C_11  and  C_12
REMARK                            x       y       z     vdW  Elec       q    Type
REMARK                         _______ _______ _______ _____ _____    ______ ____
ROOT
ATOM      1  N   UNL     1       4.685   6.813  17.455  0.00  0.00    +0.000 NA
ATOM      2  C   UNL     1       5.607   5.944  17.626  0.00  0.00    +0.000 C 
ATOM      3  C   UNL     1       6.990   5.949  17.094  0.00  0.00    +0.000 C 
ATOM      4  C   UNL     1       7.274   4.763  17.698  0.00  0.00    +0.000 C 
ATOM      5  C   UNL     1       5.906   4.674  18.275  0.00  0.00    +0.000 C 
ATOM      6  N   UNL     1       5.370   3.782  19.017  0.00  0.00    +0.000 NA
ENDROOT
BRANCH   1   8
ATOM      7  C   UNL     1       2.510   7.809  17.988  0.00  0.00    +0.000 C 
ATOM      8  C   UNL     1       3.394   6.582  18.079  0.00  0.00    +0.000 C 
ENDBRANCH   1   8
BRANCH   3   9
ATOM      9  O   UNL     1       7.665   6.749  16.356  0.00  0.00    +0.000 OA
ATOM     10  H   UNL     1       7.387   6.608  15.429  0.00  0.00    +0.000 HD
ENDBRANCH   3   9
BRANCH   4  11
ATOM     11  O   UNL     1       8.318   4.020  17.743  0.00  0.00    +0.000 OA
ATOM     12  H   UNL     1       8.616   3.863  16.825  0.00  0.00    +0.000 HD
ENDBRANCH   4  11
BRANCH   6  13
ATOM     13  C   UNL     1       4.000   3.920  19.462  0.00  0.00    +0.000 C 
ATOM     14  C   UNL     1       3.113   2.894  18.787  0.00  0.00    +0.000 C 
ENDBRANCH   6  13
TORSDOF 4
ENDMDL
MODEL 6
REMARK VINA RESULT:      -5.3      3.651      5.285
REMARK  Name = 
REMARK  6 active torsions:
REMARK  status: ('A' for Active; 'I' for Inactive)
REMARK    1  A    between atoms: C_1  and  C_2
REMARK    2  A    between atoms: C_2  and  N_3
REMARK    3  A    between atoms: C_5  and  O_6
REMARK    4  A    between atoms: C_7  and  O_8
REMARK    5  A    between atoms: N_10  and  C_11
REMARK    6  A    between atoms: C_11  and  C_12
REMARK                            x       y       z     vdW  Elec       q    Type
REMARK                         _______ _______ _______ _____ _____    ______ ____
ROOT
ATOM      1  N   UNL     1       5.367   3.704  19.078  0.00  0.00    +0.000 NA
ATOM      2  C   UNL     1       4.163   3.289  18.969  0.00  0.00    +0.000 C 
ATOM      3  C   UNL     1       3.680   1.915  18.702  0.00  0.00    +0.000 C 
ATOM      4  C   UNL     1       2.380   2.316  18.740  0.00  0.00    +0.000 C 
ATOM      5  C   UNL     1       2.772   3.725  19.012  0.00  0.00    +0.000 C 
ATOM      6  N   UNL     1       2.058   4.770  19.186  0.00  0.00    +0.000 NA
ENDROOT
BRANCH   1   8
ATOM      7  C   UNL     1       6.931   5.570  18.794  0.00  0.00    +0.000 C 
ATOM      8  C   UNL     1       5.592   5.116  19.337  0.00  0.00    +0.000 C 
ENDBRANCH   1   8
BRANCH   3   9
ATOM      9  O   UNL     1       4.250   0.784  18.510  0.00  0.00    +0.000 OA
ATOM     10  H   UNL     1       3.604   0.083  18.726  0.00  0.00    +0.000 HD
ENDBRANCH   3   9
BRANCH   4  11
ATOM     11  O   UNL     1       1.261   1.708  18.595  0.00  0.00    +0.000 OA
ATOM     12  H   UNL     1       0.764   1.786  19.434  0.00  0.00    +0.000 HD
ENDBRANCH   4  11
BRANCH   6  13
ATOM     13  C   UNL     1       2.680   6.052  19.443  0.00  0.00    +0.000 C 
ATOM     14  C   UNL     1       2.577   6.950  18.227  0.00  0.00    +0.000 C 
ENDBRANCH   6  13
TORSDOF 4
ENDMDL
MODEL 7
REMARK VINA RESULT:      -5.3      2.963      4.091
REMARK  Name = 
REMARK  6 active torsions:
REMARK  status: ('A' for Active; 'I' for Inactive)
REMARK    1  A    between atoms: C_1  and  C_2
REMARK    2  A    between atoms: C_2  and  N_3
REMARK    3  A    between atoms: C_5  and  O_6
REMARK    4  A    between atoms: C_7  and  O_8
REMARK    5  A    between atoms: N_10  and  C_11
REMARK    6  A    between atoms: C_11  and  C_12
REMARK                            x       y       z     vdW  Elec       q    Type
REMARK                         _______ _______ _______ _____ _____    ______ ____
ROOT
ATOM      1  N   UNL     1       5.045   3.639  16.278  0.00  0.00    +0.000 NA
ATOM      2  C   UNL     1       5.937   4.273  15.617  0.00  0.00    +0.000 C 
ATOM      3  C   UNL     1       6.396   4.043  14.228  0.00  0.00    +0.000 C 
ATOM      4  C   UNL     1       7.289   5.067  14.305  0.00  0.00    +0.000 C 
ATOM      5  C   UNL     1       6.892   5.372  15.705  0.00  0.00    +0.000 C 
ATOM      6  N   UNL     1       7.313   6.265  16.516  0.00  0.00    +0.000 NA
ENDROOT
BRANCH   1   8
ATOM      7  C   UNL     1       3.287   4.030  17.940  0.00  0.00    +0.000 C 
ATOM      8  C   UNL     1       4.773   4.051  17.643  0.00  0.00    +0.000 C 
ENDBRANCH   1   8
BRANCH   3   9
ATOM      9  O   UNL     1       6.082   3.212  13.305  0.00  0.00    +0.000 OA
ATOM     10  H   UNL     1       6.758   3.277  12.601  0.00  0.00    +0.000 HD
ENDBRANCH   3   9
BRANCH   4  11
ATOM     11  O   UNL     1       8.139   5.565  13.484  0.00  0.00    +0.000 OA
ATOM     12  H   UNL     1       8.632   4.825  13.076  0.00  0.00    +0.000 HD
ENDBRANCH   4  11
BRANCH   6  13
ATOM     13  C   UNL     1       6.761   6.369  17.850  0.00  0.00    +0.000 C 
ATOM     14  C   UNL     1       7.787   5.957  18.886  0.00  0.00    +0.000 C 
ENDBRANCH   6  13
TORSDOF 4
ENDMDL
MODEL 8
REMARK VINA RESULT:      -5.2      3.641      5.234
REMARK  Name = 
REMARK  6 active torsions:
REMARK  status: ('A' for Active; 'I' for Inactive)
REMARK    1  A    between atoms: C_1  and  C_2
REMARK    2  A    between atoms: C_2  and  N_3
REMARK    3  A    between atoms: C_5  and  O_6
REMARK    4  A    between atoms: C_7  and  O_8
REMARK    5  A    between atoms: N_10  and  C_11
REMARK    6  A    between atoms: C_11  and  C_12
REMARK                            x       y       z     vdW  Elec       q    Type
REMARK                         _______ _______ _______ _____ _____    ______ ____
ROOT
ATOM      1  N   UNL     1       1.980   4.731  19.211  0.00  0.00    +0.000 NA
ATOM      2  C   UNL     1       2.697   3.693  19.003  0.00  0.00    +0.000 C 
ATOM      3  C   UNL     1       2.255   2.309  18.715  0.00  0.00    +0.000 C 
ATOM      4  C   UNL     1       3.540   1.867  18.637  0.00  0.00    +0.000 C 
ATOM      5  C   UNL     1       4.075   3.225  18.920  0.00  0.00    +0.000 C 
ATOM      6  N   UNL     1       5.279   3.644  19.018  0.00  0.00    +0.000 NA
ENDROOT
BRANCH   1   8
ATOM      7  C   UNL     1       2.563   6.929  18.298  0.00  0.00    +0.000 C 
ATOM      8  C   UNL     1       2.651   5.991  19.483  0.00  0.00    +0.000 C 
ENDBRANCH   1   8
BRANCH   3   9
ATOM      9  O   UNL     1       1.115   1.738  18.585  0.00  0.00    +0.000 OA
ATOM     10  H   UNL     1       1.249   0.918  18.069  0.00  0.00    +0.000 HD
ENDBRANCH   3   9
BRANCH   4  11
ATOM     11  O   UNL     1       4.071   0.722  18.409  0.00  0.00    +0.000 OA
ATOM     12  H   UNL     1       5.013   0.867  18.185  0.00  0.00    +0.000 HD
ENDBRANCH   4  11
BRANCH   6  13
ATOM     13  C   UNL     1       5.553   5.037  19.303  0.00  0.00    +0.000 C 
ATOM     14  C   UNL     1       6.538   5.603  18.301  0.00  0.00    +0.000 C 
ENDBRANCH   6  13
TORSDOF 4
ENDMDL
MODEL 9
REMARK VINA RESULT:      -5.1      3.049      4.598
REMARK  Name = 
REMARK  6 active torsions:
REMARK  status: ('A' for Active; 'I' for Inactive)
REMARK    1  A    between atoms: C_1  and  C_2
REMARK    2  A    between atoms: C_2  and  N_3
REMARK    3  A    between atoms: C_5  and  O_6
REMARK    4  A    between atoms: C_7  and  O_8
REMARK    5  A    between atoms: N_10  and  C_11
REMARK    6  A    between atoms: C_11  and  C_12
REMARK                            x       y       z     vdW  Elec       q    Type
REMARK                         _______ _______ _______ _____ _____    ______ ____
ROOT
ATOM      1  N   UNL     1       6.129   4.408  19.028  0.00  0.00    +0.000 NA
ATOM      2  C   UNL     1       4.935   3.964  19.132  0.00  0.00    +0.000 C 
ATOM      3  C   UNL     1       4.477   2.665  19.677  0.00  0.00    +0.000 C 
ATOM      4  C   UNL     1       3.173   2.971  19.434  0.00  0.00    +0.000 C 
ATOM      5  C   UNL     1       3.540   4.297  18.869  0.00  0.00    +0.000 C 
ATOM      6  N   UNL     1       2.810   5.231  18.391  0.00  0.00    +0.000 NA
ENDROOT
BRANCH   1   8
ATOM      7  C   UNL     1       7.739   6.224  18.684  0.00  0.00    +0.000 C 
ATOM      8  C   UNL     1       6.329   5.724  18.445  0.00  0.00    +0.000 C 
ENDBRANCH   1   8
BRANCH   3   9
ATOM      9  O   UNL     1       5.065   1.646  20.184  0.00  0.00    +0.000 OA
ATOM     10  H   UNL     1       4.690   1.496  21.074  0.00  0.00    +0.000 HD
ENDBRANCH   3   9
BRANCH   4  11
ATOM     11  O   UNL     1       2.068   2.350  19.621  0.00  0.00    +0.000 OA
ATOM     12  H   UNL     1       1.357   2.863  19.186  0.00  0.00    +0.000 HD
ENDBRANCH   4  11
BRANCH   6  13
ATOM     13  C   UNL     1       3.408   6.453  17.895  0.00  0.00    +0.000 C 
ATOM     14  C   UNL     1       2.509   7.640  18.175  0.00  0.00    +0.000 C 
ENDBRANCH   6  13
TORSDOF 4
ENDMDL
