MODEL 1
REMARK VINA RESULT:      -7.4      0.000      0.000
REMARK  Name = 
REMARK  6 active torsions:
REMARK  status: ('A' for Active; 'I' for Inactive)
REMARK    1  A    between atoms: C_1  and  C_2
REMARK    2  A    between atoms: C_2  and  C_3
REMARK    3  A    between atoms: C_2  and  C_4
REMARK    4  A    between atoms: C_7  and  C_8
REMARK    5  A    between atoms: C_8  and  S_9
REMARK    6  A    between atoms: S_9  and  C_12
REMARK                            x       y       z     vdW  Elec       q    Type
REMARK                         _______ _______ _______ _____ _____    ______ ____
ROOT
ATOM      1  C   UNL     1       3.101   4.477  18.768  0.00  0.00    +0.000 C 
ENDROOT
BRANCH   1   5
ATOM      2  C   UNL     1       1.556   8.427  19.739  0.00  0.00    +0.000 A 
ATOM      3  C   UNL     1       2.128   8.160  18.484  0.00  0.00    +0.000 A 
ATOM      4  C   UNL     1       2.638   6.891  18.178  0.00  0.00    +0.000 A 
ATOM      5  C   UNL     1       2.586   5.854  19.118  0.00  0.00    +0.000 A 
ATOM      6  C   UNL     1       1.980   6.111  20.355  0.00  0.00    +0.000 A 
ATOM      7  C   UNL     1       1.487   7.381  20.665  0.00  0.00    +0.000 A 
BRANCH   2   9
ATOM      8  C   UNL     1      -0.065  10.162  18.964  0.00  0.00    +0.000 C 
ATOM      9  C   UNL     1       0.972   9.797  20.033  0.00  0.00    +0.000 C 
ATOM     10  C   UNL     1       0.355   9.921  21.432  0.00  0.00    +0.000 C 
ENDBRANCH   2   9
ENDBRANCH   1   5
BRANCH   1  11
ATOM     11  S   UNL     1       4.872   4.349  19.009  0.00  0.00    +0.000 S 
ATOM     12  O   UNL     1       5.328   5.533  19.722  0.00  0.00    +0.000 OA
ATOM     13  O   UNL     1       5.191   3.051  19.578  0.00  0.00    +0.000 OA
BRANCH  11  14
ATOM     14  C   UNL     1       5.596   4.403  17.401  0.00  0.00    +0.000 A 
ATOM     15  C   UNL     1       4.758   4.347  16.271  0.00  0.00    +0.000 A 
ATOM     16  C   UNL     1       5.302   4.413  14.991  0.00  0.00    +0.000 A 
ATOM     17  C   UNL     1       6.672   4.555  14.833  0.00  0.00    +0.000 A 
ATOM     18  C   UNL     1       7.482   4.604  15.965  0.00  0.00    +0.000 A 
ATOM     19  N   UNL     1       6.962   4.508  17.251  0.00  0.00    +0.000 N 
ATOM     20  O   UNL     1       7.760   4.488  18.236  0.00  0.00    +0.000 OA
ENDBRANCH  11  14
ENDBRANCH   1  11
TORSDOF 4
ENDMDL
MODEL 2
REMARK VINA RESULT:      -7.4      3.677      4.453
REMARK  Name = 
REMARK  6 active torsions:
REMARK  status: ('A' for Active; 'I' for Inactive)
REMARK    1  A    between atoms: C_1  and  C_2
REMARK    2  A    between atoms: C_2  and  C_3
REMARK    3  A    between atoms: C_2  and  C_4
REMARK    4  A    between atoms: C_7  and  C_8
REMARK    5  A    between atoms: C_8  and  S_9
REMARK    6  A    between atoms: S_9  and  C_12
REMARK                            x       y       z     vdW  Elec       q    Type
REMARK                         _______ _______ _______ _____ _____    ______ ____
ROOT
ATOM      1  C   UNL     1       6.439   4.302  17.135  0.00  0.00    +0.000 C 
ENDROOT
BRANCH   1   5
ATOM      2  C   UNL     1       2.563   3.840  19.056  0.00  0.00    +0.000 A 
ATOM      3  C   UNL     1       2.826   3.258  17.806  0.00  0.00    +0.000 A 
ATOM      4  C   UNL     1       4.070   3.419  17.182  0.00  0.00    +0.000 A 
ATOM      5  C   UNL     1       5.086   4.165  17.794  0.00  0.00    +0.000 A 
ATOM      6  C   UNL     1       4.834   4.712  19.059  0.00  0.00    +0.000 A 
ATOM      7  C   UNL     1       3.588   4.565  19.673  0.00  0.00    +0.000 A 
BRANCH   2   9
ATOM      8  C   UNL     1       0.476   2.467  19.046  0.00  0.00    +0.000 C 
ATOM      9  C   UNL     1       1.222   3.616  19.734  0.00  0.00    +0.000 C 
ATOM     10  C   UNL     1       1.324   3.353  21.241  0.00  0.00    +0.000 C 
ENDBRANCH   2   9
ENDBRANCH   1   5
BRANCH   1  11
ATOM     11  S   UNL     1       6.453   5.616  15.916  0.00  0.00    +0.000 S 
ATOM     12  O   UNL     1       5.183   6.324  15.984  0.00  0.00    +0.000 OA
ATOM     13  O   UNL     1       7.671   6.395  16.057  0.00  0.00    +0.000 OA
BRANCH  11  14
ATOM     14  C   UNL     1       6.522   4.828  14.339  0.00  0.00    +0.000 A 
ATOM     15  C   UNL     1       5.500   3.929  13.977  0.00  0.00    +0.000 A 
ATOM     16  C   UNL     1       5.517   3.314  12.729  0.00  0.00    +0.000 A 
ATOM     17  C   UNL     1       6.535   3.605  11.833  0.00  0.00    +0.000 A 
ATOM     18  C   UNL     1       7.538   4.493  12.213  0.00  0.00    +0.000 A 
ATOM     19  N   UNL     1       7.556   5.094  13.467  0.00  0.00    +0.000 N 
ATOM     20  O   UNL     1       8.535   5.839  13.777  0.00  0.00    +0.000 OA
ENDBRANCH  11  14
ENDBRANCH   1  11
TORSDOF 4
ENDMDL
MODEL 3
REMARK VINA RESULT:      -7.3      0.147      1.085
REMARK  Name = 
REMARK  6 active torsions:
REMARK  status: ('A' for Active; 'I' for Inactive)
REMARK    1  A    between atoms: C_1  and  C_2
REMARK    2  A    between atoms: C_2  and  C_3
REMARK    3  A    between atoms: C_2  and  C_4
REMARK    4  A    between atoms: C_7  and  C_8
REMARK    5  A    between atoms: C_8  and  S_9
REMARK    6  A    between atoms: S_9  and  C_12
REMARK                            x       y       z     vdW  Elec       q    Type
REMARK                         _______ _______ _______ _____ _____    ______ ____
ROOT
ATOM      1  C   UNL     1       3.073   4.411  18.767  0.00  0.00    +0.000 C 
ENDROOT
BRANCH   1   5
ATOM      2  C   UNL     1       1.542   8.354  19.789  0.00  0.00    +0.000 A 
ATOM      3  C   UNL     1       1.472   7.290  20.702  0.00  0.00    +0.000 A 
ATOM      4  C   UNL     1       1.953   6.017  20.367  0.00  0.00    +0.000 A 
ATOM      5  C   UNL     1       2.520   5.775  19.109  0.00  0.00    +0.000 A 
ATOM      6  C   UNL     1       2.625   6.848  18.213  0.00  0.00    +0.000 A 
ATOM      7  C   UNL     1       2.129   8.112  18.543  0.00  0.00    +0.000 A 
BRANCH   2   9
ATOM      8  C   UNL     1      -0.152  10.131  19.332  0.00  0.00    +0.000 C 
ATOM      9  C   UNL     1       1.054   9.735  20.190  0.00  0.00    +0.000 C 
ATOM     10  C   UNL     1       0.710   9.862  21.679  0.00  0.00    +0.000 C 
ENDBRANCH   2   9
ENDBRANCH   1   5
BRANCH   1  11
ATOM     11  S   UNL     1       4.846   4.332  19.018  0.00  0.00    +0.000 S 
ATOM     12  O   UNL     1       5.267   5.530  19.729  0.00  0.00    +0.000 OA
ATOM     13  O   UNL     1       5.197   3.044  19.593  0.00  0.00    +0.000 OA
BRANCH  11  14
ATOM     14  C   UNL     1       5.576   4.399  17.413  0.00  0.00    +0.000 A 
ATOM     15  C   UNL     1       4.743   4.354  16.279  0.00  0.00    +0.000 A 
ATOM     16  C   UNL     1       5.292   4.431  15.003  0.00  0.00    +0.000 A 
ATOM     17  C   UNL     1       6.663   4.574  14.851  0.00  0.00    +0.000 A 
ATOM     18  C   UNL     1       7.468   4.613  15.986  0.00  0.00    +0.000 A 
ATOM     19  N   UNL     1       6.943   4.505  17.269  0.00  0.00    +0.000 N 
ATOM     20  O   UNL     1       7.737   4.476  18.258  0.00  0.00    +0.000 OA
ENDBRANCH  11  14
ENDBRANCH   1  11
TORSDOF 4
ENDMDL
MODEL 4
REMARK VINA RESULT:      -7.3      3.008      4.194
REMARK  Name = 
REMARK  6 active torsions:
REMARK  status: ('A' for Active; 'I' for Inactive)
REMARK    1  A    between atoms: C_1  and  C_2
REMARK    2  A    between atoms: C_2  and  C_3
REMARK    3  A    between atoms: C_2  and  C_4
REMARK    4  A    between atoms: C_7  and  C_8
REMARK    5  A    between atoms: C_8  and  S_9
REMARK    6  A    between atoms: S_9  and  C_12
REMARK                            x       y       z     vdW  Elec       q    Type
REMARK                         _______ _______ _______ _____ _____    ______ ____
ROOT
ATOM      1  C   UNL     1       5.057   6.315  16.360  0.00  0.00    +0.000 C 
ENDROOT
BRANCH   1   5
ATOM      2  C   UNL     1       2.470   4.341  19.248  0.00  0.00    +0.000 A 
ATOM      3  C   UNL     1       3.197   5.492  19.593  0.00  0.00    +0.000 A 
ATOM      4  C   UNL     1       4.040   6.118  18.666  0.00  0.00    +0.000 A 
ATOM      5  C   UNL     1       4.177   5.612  17.367  0.00  0.00    +0.000 A 
ATOM      6  C   UNL     1       3.421   4.487  17.012  0.00  0.00    +0.000 A 
ATOM      7  C   UNL     1       2.593   3.853  17.943  0.00  0.00    +0.000 A 
BRANCH   2   9
ATOM      8  C   UNL     1       0.721   2.590  19.582  0.00  0.00    +0.000 C 
ATOM      9  C   UNL     1       1.529   3.704  20.256  0.00  0.00    +0.000 C 
ATOM     10  C   UNL     1       2.234   3.164  21.507  0.00  0.00    +0.000 C 
ENDBRANCH   2   9
ENDBRANCH   1   5
BRANCH   1  11
ATOM     11  S   UNL     1       6.612   5.456  16.124  0.00  0.00    +0.000 S 
ATOM     12  O   UNL     1       7.687   6.438  16.119  0.00  0.00    +0.000 OA
ATOM     13  O   UNL     1       6.705   4.354  17.066  0.00  0.00    +0.000 OA
BRANCH  11  14
ATOM     14  C   UNL     1       6.548   4.752  14.507  0.00  0.00    +0.000 A 
ATOM     15  C   UNL     1       5.502   3.864  14.188  0.00  0.00    +0.000 A 
ATOM     16  C   UNL     1       5.414   3.315  12.912  0.00  0.00    +0.000 A 
ATOM     17  C   UNL     1       6.349   3.662  11.948  0.00  0.00    +0.000 A 
ATOM     18  C   UNL     1       7.376   4.539  12.286  0.00  0.00    +0.000 A 
ATOM     19  N   UNL     1       7.501   5.074  13.564  0.00  0.00    +0.000 N 
ATOM     20  O   UNL     1       8.499   5.810  13.827  0.00  0.00    +0.000 OA
ENDBRANCH  11  14
ENDBRANCH   1  11
TORSDOF 4
ENDMDL
MODEL 5
REMARK VINA RESULT:      -7.3      3.641      4.497
REMARK  Name = 
REMARK  6 active torsions:
REMARK  status: ('A' for Active; 'I' for Inactive)
REMARK    1  A    between atoms: C_1  and  C_2
REMARK    2  A    between atoms: C_2  and  C_3
REMARK    3  A    between atoms: C_2  and  C_4
REMARK    4  A    between atoms: C_7  and  C_8
REMARK    5  A    between atoms: C_8  and  S_9
REMARK    6  A    between atoms: S_9  and  C_12
REMARK                            x       y       z     vdW  Elec       q    Type
REMARK                         _______ _______ _______ _____ _____    ______ ____
ROOT
ATOM      1  C   UNL     1       6.570   4.416  17.279  0.00  0.00    +0.000 C 
ENDROOT
BRANCH   1   5
ATOM      2  C   UNL     1       2.669   3.753  19.089  0.00  0.00    +0.000 A 
ATOM      3  C   UNL     1       3.607   4.612  19.683  0.00  0.00    +0.000 A 
ATOM      4  C   UNL     1       4.868   4.814  19.106  0.00  0.00    +0.000 A 
ATOM      5  C   UNL     1       5.223   4.164  17.917  0.00  0.00    +0.000 A 
ATOM      6  C   UNL     1       4.272   3.337  17.305  0.00  0.00    +0.000 A 
ATOM      7  C   UNL     1       3.021   3.124  17.891  0.00  0.00    +0.000 A 
BRANCH   2   9
ATOM      8  C   UNL     1       0.488   2.549  18.914  0.00  0.00    +0.000 C 
ATOM      9  C   UNL     1       1.293   3.583  19.708  0.00  0.00    +0.000 C 
ATOM     10  C   UNL     1       1.324   3.202  21.194  0.00  0.00    +0.000 C 
ENDBRANCH   2   9
ENDBRANCH   1   5
BRANCH   1  11
ATOM     11  S   UNL     1       6.482   5.698  16.030  0.00  0.00    +0.000 S 
ATOM     12  O   UNL     1       5.201   6.376  16.152  0.00  0.00    +0.000 OA
ATOM     13  O   UNL     1       7.687   6.509  16.083  0.00  0.00    +0.000 OA
BRANCH  11  14
ATOM     14  C   UNL     1       6.483   4.871  14.471  0.00  0.00    +0.000 A 
ATOM     15  C   UNL     1       5.427   3.991  14.162  0.00  0.00    +0.000 A 
ATOM     16  C   UNL     1       5.391   3.347  12.929  0.00  0.00    +0.000 A 
ATOM     17  C   UNL     1       6.388   3.590  11.997  0.00  0.00    +0.000 A 
ATOM     18  C   UNL     1       7.424   4.460  12.325  0.00  0.00    +0.000 A 
ATOM     19  N   UNL     1       7.496   5.090  13.562  0.00  0.00    +0.000 N 
ATOM     20  O   UNL     1       8.502   5.816  13.825  0.00  0.00    +0.000 OA
ENDBRANCH  11  14
ENDBRANCH   1  11
TORSDOF 4
ENDMDL
MODEL 6
REMARK VINA RESULT:      -7.2      2.958      4.156
REMARK  Name = 
REMARK  6 active torsions:
REMARK  status: ('A' for Active; 'I' for Inactive)
REMARK    1  A    between atoms: C_1  and  C_2
REMARK    2  A    between atoms: C_2  and  C_3
REMARK    3  A    between atoms: C_2  and  C_4
REMARK    4  A    between atoms: C_7  and  C_8
REMARK    5  A    between atoms: C_8  and  S_9
REMARK    6  A    between atoms: S_9  and  C_12
REMARK                            x       y       z     vdW  Elec       q    Type
REMARK                         _______ _______ _______ _____ _____    ______ ____
ROOT
ATOM      1  C   UNL     1       4.999   6.305  16.267  0.00  0.00    +0.000 C 
ENDROOT
BRANCH   1   5
ATOM      2  C   UNL     1       2.520   4.431  19.312  0.00  0.00    +0.000 A 
ATOM      3  C   UNL     1       2.690   3.838  18.051  0.00  0.00    +0.000 A 
ATOM      4  C   UNL     1       3.478   4.450  17.066  0.00  0.00    +0.000 A 
ATOM      5  C   UNL     1       4.119   5.670  17.319  0.00  0.00    +0.000 A 
ATOM      6  C   UNL     1       3.980   6.240  18.591  0.00  0.00    +0.000 A 
ATOM      7  C   UNL     1       3.180   5.637  19.566  0.00  0.00    +0.000 A 
BRANCH   2   9
ATOM      8  C   UNL     1       0.660   2.815  19.717  0.00  0.00    +0.000 C 
ATOM      9  C   UNL     1       1.697   3.728  20.378  0.00  0.00    +0.000 C 
ATOM     10  C   UNL     1       2.537   2.933  21.386  0.00  0.00    +0.000 C 
ENDBRANCH   2   9
ENDBRANCH   1   5
BRANCH   1  11
ATOM     11  S   UNL     1       6.551   5.426  16.082  0.00  0.00    +0.000 S 
ATOM     12  O   UNL     1       7.637   6.394  16.117  0.00  0.00    +0.000 OA
ATOM     13  O   UNL     1       6.597   4.320  17.023  0.00  0.00    +0.000 OA
BRANCH  11  14
ATOM     14  C   UNL     1       6.533   4.727  14.461  0.00  0.00    +0.000 A 
ATOM     15  C   UNL     1       5.504   3.831  14.114  0.00  0.00    +0.000 A 
ATOM     16  C   UNL     1       5.452   3.286  12.834  0.00  0.00    +0.000 A 
ATOM     17  C   UNL     1       6.407   3.645  11.895  0.00  0.00    +0.000 A 
ATOM     18  C   UNL     1       7.417   4.530  12.261  0.00  0.00    +0.000 A 
ATOM     19  N   UNL     1       7.505   5.062  13.543  0.00  0.00    +0.000 N 
ATOM     20  O   UNL     1       8.490   5.807  13.834  0.00  0.00    +0.000 OA
ENDBRANCH  11  14
ENDBRANCH   1  11
TORSDOF 4
ENDMDL
MODEL 7
REMARK VINA RESULT:      -7.1      2.520      4.023
REMARK  Name = 
REMARK  6 active torsions:
REMARK  status: ('A' for Active; 'I' for Inactive)
REMARK    1  A    between atoms: C_1  and  C_2
REMARK    2  A    between atoms: C_2  and  C_3
REMARK    3  A    between atoms: C_2  and  C_4
REMARK    4  A    between atoms: C_7  and  C_8
REMARK    5  A    between atoms: C_8  and  S_9
REMARK    6  A    between atoms: S_9  and  C_12
REMARK                            x       y       z     vdW  Elec       q    Type
REMARK                         _______ _______ _______ _____ _____    ______ ____
ROOT
ATOM      1  C   UNL     1       3.665   6.088  18.148  0.00  0.00    +0.000 C 
ENDROOT
BRANCH   1   5
ATOM      2  C   UNL     1       1.051   9.355  19.343  0.00  0.00    +0.000 A 
ATOM      3  C   UNL     1       1.399   8.338  20.246  0.00  0.00    +0.000 A 
ATOM      4  C   UNL     1       2.230   7.279  19.855  0.00  0.00    +0.000 A 
ATOM      5  C   UNL     1       2.737   7.211  18.552  0.00  0.00    +0.000 A 
ATOM      6  C   UNL     1       2.420   8.248  17.663  0.00  0.00    +0.000 A 
ATOM      7  C   UNL     1       1.578   9.294  18.049  0.00  0.00    +0.000 A 
BRANCH   2   9
ATOM      8  C   UNL     1      -1.093  10.576  18.956  0.00  0.00    +0.000 C 
ATOM      9  C   UNL     1       0.184  10.515  19.801  0.00  0.00    +0.000 C 
ATOM     10  C   UNL     1      -0.169  10.475  21.293  0.00  0.00    +0.000 C 
ENDBRANCH   2   9
ENDBRANCH   1   5
BRANCH   1  11
ATOM     11  S   UNL     1       2.766   4.575  17.807  0.00  0.00    +0.000 S 
ATOM     12  O   UNL     1       1.426   4.924  17.362  0.00  0.00    +0.000 OA
ATOM     13  O   UNL     1       3.566   3.720  16.947  0.00  0.00    +0.000 OA
BRANCH  11  14
ATOM     14  C   UNL     1       2.597   3.742  19.353  0.00  0.00    +0.000 A 
ATOM     15  C   UNL     1       1.332   3.694  19.971  0.00  0.00    +0.000 A 
ATOM     16  C   UNL     1       1.167   3.021  21.178  0.00  0.00    +0.000 A 
ATOM     17  C   UNL     1       2.249   2.379  21.761  0.00  0.00    +0.000 A 
ATOM     18  C   UNL     1       3.491   2.442  21.135  0.00  0.00    +0.000 A 
ATOM     19  N   UNL     1       3.685   3.136  19.946  0.00  0.00    +0.000 N 
ATOM     20  O   UNL     1       4.855   3.215  19.464  0.00  0.00    +0.000 OA
ENDBRANCH  11  14
ENDBRANCH   1  11
TORSDOF 4
ENDMDL
MODEL 8
REMARK VINA RESULT:      -7.0      3.253      6.797
REMARK  Name = 
REMARK  6 active torsions:
REMARK  status: ('A' for Active; 'I' for Inactive)
REMARK    1  A    between atoms: C_1  and  C_2
REMARK    2  A    between atoms: C_2  and  C_3
REMARK    3  A    between atoms: C_2  and  C_4
REMARK    4  A    between atoms: C_7  and  C_8
REMARK    5  A    between atoms: C_8  and  S_9
REMARK    6  A    between atoms: S_9  and  C_12
REMARK                            x       y       z     vdW  Elec       q    Type
REMARK                         _______ _______ _______ _____ _____    ______ ____
ROOT
ATOM      1  C   UNL     1       6.802   4.579  17.653  0.00  0.00    +0.000 C 
ENDROOT
BRANCH   1   5
ATOM      2  C   UNL     1       6.103   3.882  13.416  0.00  0.00    +0.000 A 
ATOM      3  C   UNL     1       7.126   4.740  13.850  0.00  0.00    +0.000 A 
ATOM      4  C   UNL     1       7.341   4.974  15.215  0.00  0.00    +0.000 A 
ATOM      5  C   UNL     1       6.540   4.354  16.182  0.00  0.00    +0.000 A 
ATOM      6  C   UNL     1       5.545   3.468  15.748  0.00  0.00    +0.000 A 
ATOM      7  C   UNL     1       5.321   3.248  14.386  0.00  0.00    +0.000 A 
BRANCH   2   9
ATOM      8  C   UNL     1       6.844   2.472  11.492  0.00  0.00    +0.000 C 
ATOM      9  C   UNL     1       5.917   3.609  11.934  0.00  0.00    +0.000 C 
ATOM     10  C   UNL     1       4.468   3.295  11.538  0.00  0.00    +0.000 C 
ENDBRANCH   2   9
ENDBRANCH   1   5
BRANCH   1  11
ATOM     11  S   UNL     1       5.480   5.510  18.428  0.00  0.00    +0.000 S 
ATOM     12  O   UNL     1       5.833   5.743  19.820  0.00  0.00    +0.000 OA
ATOM     13  O   UNL     1       5.156   6.664  17.608  0.00  0.00    +0.000 OA
BRANCH  11  14
ATOM     14  C   UNL     1       4.065   4.456  18.423  0.00  0.00    +0.000 A 
ATOM     15  C   UNL     1       2.904   4.872  17.741  0.00  0.00    +0.000 A 
ATOM     16  C   UNL     1       1.783   4.048  17.700  0.00  0.00    +0.000 A 
ATOM     17  C   UNL     1       1.820   2.806  18.316  0.00  0.00    +0.000 A 
ATOM     18  C   UNL     1       2.976   2.417  18.987  0.00  0.00    +0.000 A 
ATOM     19  N   UNL     1       4.096   3.238  19.067  0.00  0.00    +0.000 N 
ATOM     20  O   UNL     1       5.091   2.854  19.752  0.00  0.00    +0.000 OA
ENDBRANCH  11  14
ENDBRANCH   1  11
TORSDOF 4
ENDMDL
MODEL 9
REMARK VINA RESULT:      -6.9      2.525      6.958
REMARK  Name = 
REMARK  6 active torsions:
REMARK  status: ('A' for Active; 'I' for Inactive)
REMARK    1  A    between atoms: C_1  and  C_2
REMARK    2  A    between atoms: C_2  and  C_3
REMARK    3  A    between atoms: C_2  and  C_4
REMARK    4  A    between atoms: C_7  and  C_8
REMARK    5  A    between atoms: C_8  and  S_9
REMARK    6  A    between atoms: S_9  and  C_12
REMARK                            x       y       z     vdW  Elec       q    Type
REMARK                         _______ _______ _______ _____ _____    ______ ____
ROOT
ATOM      1  C   UNL     1       7.417   4.777  16.951  0.00  0.00    +0.000 C 
ENDROOT
BRANCH   1   5
ATOM      2  C   UNL     1       5.888   3.688  13.026  0.00  0.00    +0.000 A 
ATOM      3  C   UNL     1       7.074   4.428  13.162  0.00  0.00    +0.000 A 
ATOM      4  C   UNL     1       7.558   4.789  14.427  0.00  0.00    +0.000 A 
ATOM      5  C   UNL     1       6.870   4.418  15.589  0.00  0.00    +0.000 A 
ATOM      6  C   UNL     1       5.707   3.647  15.452  0.00  0.00    +0.000 A 
ATOM      7  C   UNL     1       5.217   3.302  14.190  0.00  0.00    +0.000 A 
BRANCH   2   9
ATOM      8  C   UNL     1       5.833   1.827  11.362  0.00  0.00    +0.000 C 
ATOM      9  C   UNL     1       5.406   3.270  11.647  0.00  0.00    +0.000 C 
ATOM     10  C   UNL     1       3.893   3.425  11.446  0.00  0.00    +0.000 C 
ENDBRANCH   2   9
ENDBRANCH   1   5
BRANCH   1  11
ATOM     11  S   UNL     1       6.720   6.310  17.564  0.00  0.00    +0.000 S 
ATOM     12  O   UNL     1       7.497   6.744  18.715  0.00  0.00    +0.000 OA
ATOM     13  O   UNL     1       6.559   7.244  16.462  0.00  0.00    +0.000 OA
BRANCH  11  14
ATOM     14  C   UNL     1       5.102   5.918  18.150  0.00  0.00    +0.000 A 
ATOM     15  C   UNL     1       4.008   6.685  17.704  0.00  0.00    +0.000 A 
ATOM     16  C   UNL     1       2.719   6.380  18.131  0.00  0.00    +0.000 A 
ATOM     17  C   UNL     1       2.513   5.304  18.982  0.00  0.00    +0.000 A 
ATOM     18  C   UNL     1       3.609   4.563  19.413  0.00  0.00    +0.000 A 
ATOM     19  N   UNL     1       4.908   4.870  19.024  0.00  0.00    +0.000 N 
ATOM     20  O   UNL     1       5.870   4.199  19.508  0.00  0.00    +0.000 OA
ENDBRANCH  11  14
ENDBRANCH   1  11
TORSDOF 4
ENDMDL
