MODEL 1
REMARK VINA RESULT:      -9.1      0.000      0.000
REMARK  Name = 
REMARK  4 active torsions:
REMARK  status: ('A' for Active; 'I' for Inactive)
REMARK    1  A    between atoms: C_1  and  C_2
REMARK    2  A    between atoms: C_5  and  C_6
REMARK    3  A    between atoms: C_7  and  C_8
REMARK    4  A    between atoms: N_19  and  C_20
REMARK                            x       y       z     vdW  Elec       q    Type
REMARK                         _______ _______ _______ _____ _____    ______ ____
ROOT
ATOM      1  C   UNL     1       3.213   4.650  19.370  0.00  0.00    +0.000 A 
ATOM      2  C   UNL     1       4.434   3.996  19.178  0.00  0.00    +0.000 A 
ATOM      3  N   UNL     1       4.302   2.662  19.459  0.00  0.00    +0.000 NA
ATOM      4  N   UNL     1       3.055   2.441  19.834  0.00  0.00    +0.000 NA
ATOM      5  N   UNL     1       2.400   3.617  19.790  0.00  0.00    +0.000 N 
ATOM      6  C   UNL     1       0.992   3.629  20.104  0.00  0.00    +0.000 C 
ENDROOT
BRANCH   2   7
ATOM      7  C   UNL     1       5.669   4.590  18.713  0.00  0.00    +0.000 A 
ATOM      8  N   UNL     1       6.503   5.168  19.615  0.00  0.00    +0.000 NA
ATOM      9  C   UNL     1       7.543   5.878  19.153  0.00  0.00    +0.000 A 
ATOM     10  N   UNL     1       7.892   6.092  17.874  0.00  0.00    +0.000 NA
ATOM     11  C   UNL     1       7.065   5.465  17.024  0.00  0.00    +0.000 A 
ATOM     12  N   UNL     1       7.176   5.510  15.662  0.00  0.00    +0.000 N 
ATOM     13  C   UNL     1       6.171   4.772  15.090  0.00  0.00    +0.000 A 
ATOM     14  C   UNL     1       5.397   4.257  16.111  0.00  0.00    +0.000 A 
ATOM     15  C   UNL     1       5.955   4.695  17.345  0.00  0.00    +0.000 A 
ATOM     16  H   UNL     1       7.893   6.028  15.175  0.00  0.00    +0.000 HD
ENDBRANCH   2   7
BRANCH   1  21
ATOM     17  C   UNL     1       1.331  10.072  18.499  0.00  0.00    +0.000 C 
ATOM     18  C   UNL     1       1.854   8.688  18.736  0.00  0.00    +0.000 A 
ATOM     19  C   UNL     1       1.740   8.083  19.987  0.00  0.00    +0.000 A 
ATOM     20  C   UNL     1       2.233   6.790  20.194  0.00  0.00    +0.000 A 
ATOM     21  C   UNL     1       2.803   6.047  19.149  0.00  0.00    +0.000 A 
ATOM     22  C   UNL     1       2.914   6.666  17.898  0.00  0.00    +0.000 A 
ATOM     23  C   UNL     1       2.467   7.978  17.699  0.00  0.00    +0.000 A 
ENDBRANCH   1  21
TORSDOF 2
ENDMDL
MODEL 2
REMARK VINA RESULT:      -9.1      0.170      1.036
REMARK  Name = 
REMARK  4 active torsions:
REMARK  status: ('A' for Active; 'I' for Inactive)
REMARK    1  A    between atoms: C_1  and  C_2
REMARK    2  A    between atoms: C_5  and  C_6
REMARK    3  A    between atoms: C_7  and  C_8
REMARK    4  A    between atoms: N_19  and  C_20
REMARK                            x       y       z     vdW  Elec       q    Type
REMARK                         _______ _______ _______ _____ _____    ______ ____
ROOT
ATOM      1  C   UNL     1       3.250   4.550  19.410  0.00  0.00    +0.000 A 
ATOM      2  C   UNL     1       4.500   3.947  19.238  0.00  0.00    +0.000 A 
ATOM      3  N   UNL     1       4.436   2.623  19.584  0.00  0.00    +0.000 NA
ATOM      4  N   UNL     1       3.204   2.361  19.983  0.00  0.00    +0.000 NA
ATOM      5  N   UNL     1       2.492   3.500  19.889  0.00  0.00    +0.000 N 
ATOM      6  C   UNL     1       1.089   3.459  20.216  0.00  0.00    +0.000 C 
ENDROOT
BRANCH   2   7
ATOM      7  C   UNL     1       5.702   4.577  18.732  0.00  0.00    +0.000 A 
ATOM      8  N   UNL     1       6.527   5.214  19.600  0.00  0.00    +0.000 NA
ATOM      9  C   UNL     1       7.528   5.952  19.097  0.00  0.00    +0.000 A 
ATOM     10  N   UNL     1       7.844   6.142  17.806  0.00  0.00    +0.000 NA
ATOM     11  C   UNL     1       7.028   5.457  16.990  0.00  0.00    +0.000 A 
ATOM     12  N   UNL     1       7.112   5.466  15.626  0.00  0.00    +0.000 N 
ATOM     13  C   UNL     1       6.129   4.670  15.096  0.00  0.00    +0.000 A 
ATOM     14  C   UNL     1       5.395   4.155  16.146  0.00  0.00    +0.000 A 
ATOM     15  C   UNL     1       5.958   4.653  17.355  0.00  0.00    +0.000 A 
ATOM     16  H   UNL     1       7.798   5.998  15.111  0.00  0.00    +0.000 HD
ENDBRANCH   2   7
BRANCH   1  21
ATOM     17  C   UNL     1       1.627  10.007  18.279  0.00  0.00    +0.000 C 
ATOM     18  C   UNL     1       2.008   8.585  18.559  0.00  0.00    +0.000 A 
ATOM     19  C   UNL     1       2.540   7.774  17.557  0.00  0.00    +0.000 A 
ATOM     20  C   UNL     1       2.889   6.448  17.833  0.00  0.00    +0.000 A 
ATOM     21  C   UNL     1       2.771   5.912  19.125  0.00  0.00    +0.000 A 
ATOM     22  C   UNL     1       2.234   6.735  20.121  0.00  0.00    +0.000 A 
ATOM     23  C   UNL     1       1.835   8.047  19.838  0.00  0.00    +0.000 A 
ENDBRANCH   1  21
TORSDOF 2
ENDMDL
MODEL 3
REMARK VINA RESULT:      -8.2      1.023      2.087
REMARK  Name = 
REMARK  4 active torsions:
REMARK  status: ('A' for Active; 'I' for Inactive)
REMARK    1  A    between atoms: C_1  and  C_2
REMARK    2  A    between atoms: C_5  and  C_6
REMARK    3  A    between atoms: C_7  and  C_8
REMARK    4  A    between atoms: N_19  and  C_20
REMARK                            x       y       z     vdW  Elec       q    Type
REMARK                         _______ _______ _______ _____ _____    ______ ____
ROOT
ATOM      1  C   UNL     1       2.846   4.123  18.627  0.00  0.00    +0.000 A 
ATOM      2  C   UNL     1       3.882   3.456  17.965  0.00  0.00    +0.000 A 
ATOM      3  N   UNL     1       3.682   2.102  18.020  0.00  0.00    +0.000 NA
ATOM      4  N   UNL     1       2.573   1.878  18.700  0.00  0.00    +0.000 NA
ATOM      5  N   UNL     1       2.070   3.071  19.071  0.00  0.00    +0.000 N 
ATOM      6  C   UNL     1       0.817   3.095  19.784  0.00  0.00    +0.000 C 
ENDROOT
BRANCH   2   7
ATOM      7  C   UNL     1       4.999   4.066  17.273  0.00  0.00    +0.000 A 
ATOM      8  N   UNL     1       5.147   3.849  15.942  0.00  0.00    +0.000 NA
ATOM      9  C   UNL     1       6.282   4.257  15.355  0.00  0.00    +0.000 A 
ATOM     10  N   UNL     1       7.324   4.886  15.924  0.00  0.00    +0.000 NA
ATOM     11  C   UNL     1       7.111   5.117  17.228  0.00  0.00    +0.000 A 
ATOM     12  N   UNL     1       8.002   5.735  18.060  0.00  0.00    +0.000 N 
ATOM     13  C   UNL     1       7.482   5.806  19.326  0.00  0.00    +0.000 A 
ATOM     14  C   UNL     1       6.239   5.206  19.303  0.00  0.00    +0.000 A 
ATOM     15  C   UNL     1       5.995   4.761  17.973  0.00  0.00    +0.000 A 
ATOM     16  H   UNL     1       8.907   6.070  17.761  0.00  0.00    +0.000 HD
ENDBRANCH   2   7
BRANCH   1  21
ATOM     17  C   UNL     1       1.424   9.704  19.345  0.00  0.00    +0.000 C 
ATOM     18  C   UNL     1       1.831   8.273  19.167  0.00  0.00    +0.000 A 
ATOM     19  C   UNL     1       1.893   7.404  20.256  0.00  0.00    +0.000 A 
ATOM     20  C   UNL     1       2.276   6.072  20.074  0.00  0.00    +0.000 A 
ATOM     21  C   UNL     1       2.554   5.555  18.799  0.00  0.00    +0.000 A 
ATOM     22  C   UNL     1       2.490   6.438  17.715  0.00  0.00    +0.000 A 
ATOM     23  C   UNL     1       2.157   7.785  17.898  0.00  0.00    +0.000 A 
ENDBRANCH   1  21
TORSDOF 2
ENDMDL
MODEL 4
REMARK VINA RESULT:      -8.0      1.036      2.340
REMARK  Name = 
REMARK  4 active torsions:
REMARK  status: ('A' for Active; 'I' for Inactive)
REMARK    1  A    between atoms: C_1  and  C_2
REMARK    2  A    between atoms: C_5  and  C_6
REMARK    3  A    between atoms: C_7  and  C_8
REMARK    4  A    between atoms: N_19  and  C_20
REMARK                            x       y       z     vdW  Elec       q    Type
REMARK                         _______ _______ _______ _____ _____    ______ ____
ROOT
ATOM      1  C   UNL     1       2.859   4.159  18.516  0.00  0.00    +0.000 A 
ATOM      2  C   UNL     1       3.928   3.631  17.785  0.00  0.00    +0.000 A 
ATOM      3  N   UNL     1       3.845   2.264  17.752  0.00  0.00    +0.000 NA
ATOM      4  N   UNL     1       2.780   1.899  18.442  0.00  0.00    +0.000 NA
ATOM      5  N   UNL     1       2.189   3.017  18.905  0.00  0.00    +0.000 N 
ATOM      6  C   UNL     1       0.961   2.884  19.648  0.00  0.00    +0.000 C 
ENDROOT
BRANCH   2   7
ATOM      7  C   UNL     1       4.968   4.380  17.111  0.00  0.00    +0.000 A 
ATOM      8  N   UNL     1       5.025   4.352  15.755  0.00  0.00    +0.000 NA
ATOM      9  C   UNL     1       6.099   4.889  15.155  0.00  0.00    +0.000 A 
ATOM     10  N   UNL     1       7.155   5.483  15.734  0.00  0.00    +0.000 NA
ATOM     11  C   UNL     1       7.030   5.525  17.069  0.00  0.00    +0.000 A 
ATOM     12  N   UNL     1       7.957   6.067  17.916  0.00  0.00    +0.000 N 
ATOM     13  C   UNL     1       7.529   5.940  19.212  0.00  0.00    +0.000 A 
ATOM     14  C   UNL     1       6.310   5.292  19.190  0.00  0.00    +0.000 A 
ATOM     15  C   UNL     1       5.986   5.020  17.831  0.00  0.00    +0.000 A 
ATOM     16  H   UNL     1       8.824   6.480  17.606  0.00  0.00    +0.000 HD
ENDBRANCH   2   7
BRANCH   1  21
ATOM     17  C   UNL     1       1.518   9.705  19.587  0.00  0.00    +0.000 C 
ATOM     18  C   UNL     1       1.824   8.265  19.301  0.00  0.00    +0.000 A 
ATOM     19  C   UNL     1       2.132   7.840  18.010  0.00  0.00    +0.000 A 
ATOM     20  C   UNL     1       2.415   6.493  17.759  0.00  0.00    +0.000 A 
ATOM     21  C   UNL     1       2.451   5.546  18.794  0.00  0.00    +0.000 A 
ATOM     22  C   UNL     1       2.138   5.985  20.085  0.00  0.00    +0.000 A 
ATOM     23  C   UNL     1       1.805   7.323  20.334  0.00  0.00    +0.000 A 
ENDBRANCH   1  21
TORSDOF 2
ENDMDL
MODEL 5
REMARK VINA RESULT:      -7.8      1.057      2.240
REMARK  Name = 
REMARK  4 active torsions:
REMARK  status: ('A' for Active; 'I' for Inactive)
REMARK    1  A    between atoms: C_1  and  C_2
REMARK    2  A    between atoms: C_5  and  C_6
REMARK    3  A    between atoms: C_7  and  C_8
REMARK    4  A    between atoms: N_19  and  C_20
REMARK                            x       y       z     vdW  Elec       q    Type
REMARK                         _______ _______ _______ _____ _____    ______ ____
ROOT
ATOM      1  C   UNL     1       3.251   4.676  19.312  0.00  0.00    +0.000 A 
ATOM      2  C   UNL     1       4.203   4.025  18.521  0.00  0.00    +0.000 A 
ATOM      3  N   UNL     1       4.376   2.738  18.958  0.00  0.00    +0.000 NA
ATOM      4  N   UNL     1       3.587   2.547  20.000  0.00  0.00    +0.000 NA
ATOM      5  N   UNL     1       2.917   3.694  20.222  0.00  0.00    +0.000 N 
ATOM      6  C   UNL     1       1.941   3.722  21.282  0.00  0.00    +0.000 C 
ENDROOT
BRANCH   2   7
ATOM      7  C   UNL     1       4.898   4.574  17.376  0.00  0.00    +0.000 A 
ATOM      8  N   UNL     1       4.593   4.114  16.137  0.00  0.00    +0.000 NA
ATOM      9  C   UNL     1       5.372   4.489  15.111  0.00  0.00    +0.000 A 
ATOM     10  N   UNL     1       6.444   5.298  15.143  0.00  0.00    +0.000 NA
ATOM     11  C   UNL     1       6.677   5.762  16.380  0.00  0.00    +0.000 A 
ATOM     12  N   UNL     1       7.704   6.601  16.710  0.00  0.00    +0.000 N 
ATOM     13  C   UNL     1       7.664   6.876  18.053  0.00  0.00    +0.000 A 
ATOM     14  C   UNL     1       6.597   6.186  18.591  0.00  0.00    +0.000 A 
ATOM     15  C   UNL     1       5.964   5.471  17.535  0.00  0.00    +0.000 A 
ATOM     16  H   UNL     1       8.384   6.942  16.046  0.00  0.00    +0.000 HD
ENDBRANCH   2   7
BRANCH   1  21
ATOM     17  C   UNL     1       1.187  10.090  18.949  0.00  0.00    +0.000 C 
ATOM     18  C   UNL     1       1.681   8.678  19.034  0.00  0.00    +0.000 A 
ATOM     19  C   UNL     1       2.131   8.005  17.898  0.00  0.00    +0.000 A 
ATOM     20  C   UNL     1       2.588   6.687  17.993  0.00  0.00    +0.000 A 
ATOM     21  C   UNL     1       2.662   6.023  19.228  0.00  0.00    +0.000 A 
ATOM     22  C   UNL     1       2.206   6.708  20.360  0.00  0.00    +0.000 A 
ATOM     23  C   UNL     1       1.700   8.010  20.262  0.00  0.00    +0.000 A 
ENDBRANCH   1  21
TORSDOF 2
ENDMDL
MODEL 6
REMARK VINA RESULT:      -7.1      1.892      4.948
REMARK  Name = 
REMARK  4 active torsions:
REMARK  status: ('A' for Active; 'I' for Inactive)
REMARK    1  A    between atoms: C_1  and  C_2
REMARK    2  A    between atoms: C_5  and  C_6
REMARK    3  A    between atoms: C_7  and  C_8
REMARK    4  A    between atoms: N_19  and  C_20
REMARK                            x       y       z     vdW  Elec       q    Type
REMARK                         _______ _______ _______ _____ _____    ______ ____
ROOT
ATOM      1  C   UNL     1       4.004   5.807  17.994  0.00  0.00    +0.000 A 
ATOM      2  C   UNL     1       3.882   4.414  18.009  0.00  0.00    +0.000 A 
ATOM      3  N   UNL     1       5.058   3.834  17.614  0.00  0.00    +0.000 NA
ATOM      4  N   UNL     1       5.918   4.797  17.333  0.00  0.00    +0.000 NA
ATOM      5  N   UNL     1       5.300   5.974  17.551  0.00  0.00    +0.000 N 
ATOM      6  C   UNL     1       6.057   7.188  17.369  0.00  0.00    +0.000 C 
ENDROOT
BRANCH   2   7
ATOM      7  C   UNL     1       2.719   3.653  18.416  0.00  0.00    +0.000 A 
ATOM      8  N   UNL     1       1.821   3.270  17.474  0.00  0.00    +0.000 NA
ATOM      9  C   UNL     1       0.660   2.736  17.885  0.00  0.00    +0.000 A 
ATOM     10  N   UNL     1       0.259   2.508  19.146  0.00  0.00    +0.000 NA
ATOM     11  C   UNL     1       1.198   2.861  20.036  0.00  0.00    +0.000 A 
ATOM     12  N   UNL     1       1.061   2.746  21.392  0.00  0.00    +0.000 N 
ATOM     13  C   UNL     1       2.196   3.202  22.012  0.00  0.00    +0.000 A 
ATOM     14  C   UNL     1       3.068   3.629  21.030  0.00  0.00    +0.000 A 
ATOM     15  C   UNL     1       2.440   3.419  19.770  0.00  0.00    +0.000 A 
ATOM     16  H   UNL     1       0.232   2.387  21.842  0.00  0.00    +0.000 HD
ENDBRANCH   2   7
BRANCH   1  21
ATOM     17  C   UNL     1       0.549  10.205  19.548  0.00  0.00    +0.000 C 
ATOM     18  C   UNL     1       1.407   9.049  19.133  0.00  0.00    +0.000 A 
ATOM     19  C   UNL     1       1.909   8.956  17.836  0.00  0.00    +0.000 A 
ATOM     20  C   UNL     1       2.708   7.870  17.464  0.00  0.00    +0.000 A 
ATOM     21  C   UNL     1       3.073   6.878  18.386  0.00  0.00    +0.000 A 
ATOM     22  C   UNL     1       2.561   6.981  19.685  0.00  0.00    +0.000 A 
ATOM     23  C   UNL     1       1.719   8.039  20.049  0.00  0.00    +0.000 A 
ENDBRANCH   1  21
TORSDOF 2
ENDMDL
MODEL 7
REMARK VINA RESULT:      -7.0      1.938      5.314
REMARK  Name = 
REMARK  4 active torsions:
REMARK  status: ('A' for Active; 'I' for Inactive)
REMARK    1  A    between atoms: C_1  and  C_2
REMARK    2  A    between atoms: C_5  and  C_6
REMARK    3  A    between atoms: C_7  and  C_8
REMARK    4  A    between atoms: N_19  and  C_20
REMARK                            x       y       z     vdW  Elec       q    Type
REMARK                         _______ _______ _______ _____ _____    ______ ____
ROOT
ATOM      1  C   UNL     1       5.924   5.097  16.866  0.00  0.00    +0.000 A 
ATOM      2  C   UNL     1       4.839   4.354  17.342  0.00  0.00    +0.000 A 
ATOM      3  N   UNL     1       4.513   3.370  16.447  0.00  0.00    +0.000 NA
ATOM      4  N   UNL     1       5.333   3.464  15.416  0.00  0.00    +0.000 NA
ATOM      5  N   UNL     1       6.172   4.490  15.651  0.00  0.00    +0.000 N 
ATOM      6  C   UNL     1       7.210   4.762  14.688  0.00  0.00    +0.000 C 
ENDROOT
BRANCH   2   7
ATOM      7  C   UNL     1       4.156   4.533  18.606  0.00  0.00    +0.000 A 
ATOM      8  N   UNL     1       4.114   3.500  19.485  0.00  0.00    +0.000 NA
ATOM      9  C   UNL     1       3.321   3.615  20.561  0.00  0.00    +0.000 A 
ATOM     10  N   UNL     1       2.545   4.655  20.906  0.00  0.00    +0.000 NA
ATOM     11  C   UNL     1       2.656   5.667  20.032  0.00  0.00    +0.000 A 
ATOM     12  N   UNL     1       1.978   6.850  20.128  0.00  0.00    +0.000 N 
ATOM     13  C   UNL     1       2.310   7.661  19.073  0.00  0.00    +0.000 A 
ATOM     14  C   UNL     1       3.207   6.973  18.281  0.00  0.00    +0.000 A 
ATOM     15  C   UNL     1       3.431   5.701  18.881  0.00  0.00    +0.000 A 
ATOM     16  H   UNL     1       1.327   7.064  20.870  0.00  0.00    +0.000 HD
ENDBRANCH   2   7
BRANCH   1  21
ATOM     17  C   UNL     1       9.114   9.459  18.985  0.00  0.00    +0.000 C 
ATOM     18  C   UNL     1       8.260   8.343  18.466  0.00  0.00    +0.000 A 
ATOM     19  C   UNL     1       7.335   8.562  17.445  0.00  0.00    +0.000 A 
ATOM     20  C   UNL     1       6.544   7.510  16.972  0.00  0.00    +0.000 A 
ATOM     21  C   UNL     1       6.692   6.203  17.462  0.00  0.00    +0.000 A 
ATOM     22  C   UNL     1       7.621   5.996  18.487  0.00  0.00    +0.000 A 
ATOM     23  C   UNL     1       8.379   7.056  19.000  0.00  0.00    +0.000 A 
ENDBRANCH   1  21
TORSDOF 2
ENDMDL
MODEL 8
REMARK VINA RESULT:      -7.0      1.876      4.857
REMARK  Name = 
REMARK  4 active torsions:
REMARK  status: ('A' for Active; 'I' for Inactive)
REMARK    1  A    between atoms: C_1  and  C_2
REMARK    2  A    between atoms: C_5  and  C_6
REMARK    3  A    between atoms: C_7  and  C_8
REMARK    4  A    between atoms: N_19  and  C_20
REMARK                            x       y       z     vdW  Elec       q    Type
REMARK                         _______ _______ _______ _____ _____    ______ ____
ROOT
ATOM      1  C   UNL     1       4.070   5.777  17.986  0.00  0.00    +0.000 A 
ATOM      2  C   UNL     1       3.885   4.391  17.997  0.00  0.00    +0.000 A 
ATOM      3  N   UNL     1       5.032   3.760  17.595  0.00  0.00    +0.000 NA
ATOM      4  N   UNL     1       5.933   4.684  17.313  0.00  0.00    +0.000 NA
ATOM      5  N   UNL     1       5.370   5.887  17.537  0.00  0.00    +0.000 N 
ATOM      6  C   UNL     1       6.180   7.066  17.355  0.00  0.00    +0.000 C 
ENDROOT
BRANCH   2   7
ATOM      7  C   UNL     1       2.691   3.681  18.406  0.00  0.00    +0.000 A 
ATOM      8  N   UNL     1       1.747   3.390  17.477  0.00  0.00    +0.000 NA
ATOM      9  C   UNL     1       0.569   2.906  17.899  0.00  0.00    +0.000 A 
ATOM     10  N   UNL     1       0.188   2.650  19.162  0.00  0.00    +0.000 NA
ATOM     11  C   UNL     1       1.170   2.912  20.038  0.00  0.00    +0.000 A 
ATOM     12  N   UNL     1       1.063   2.750  21.391  0.00  0.00    +0.000 N 
ATOM     13  C   UNL     1       2.238   3.114  21.996  0.00  0.00    +0.000 A 
ATOM     14  C   UNL     1       3.107   3.530  21.007  0.00  0.00    +0.000 A 
ATOM     15  C   UNL     1       2.435   3.409  19.758  0.00  0.00    +0.000 A 
ATOM     16  H   UNL     1       0.226   2.420  21.851  0.00  0.00    +0.000 HD
ENDBRANCH   2   7
BRANCH   1  21
ATOM     17  C   UNL     1       0.381   9.978  19.550  0.00  0.00    +0.000 C 
ATOM     18  C   UNL     1       1.365   8.916  19.161  0.00  0.00    +0.000 A 
ATOM     19  C   UNL     1       1.749   7.927  20.065  0.00  0.00    +0.000 A 
ATOM     20  C   UNL     1       2.669   6.944  19.688  0.00  0.00    +0.000 A 
ATOM     21  C   UNL     1       3.189   6.887  18.385  0.00  0.00    +0.000 A 
ATOM     22  C   UNL     1       2.798   7.887  17.488  0.00  0.00    +0.000 A 
ATOM     23  C   UNL     1       1.916   8.903  17.876  0.00  0.00    +0.000 A 
ENDBRANCH   1  21
TORSDOF 2
ENDMDL
MODEL 9
REMARK VINA RESULT:      -7.0      2.221      5.238
REMARK  Name = 
REMARK  4 active torsions:
REMARK  status: ('A' for Active; 'I' for Inactive)
REMARK    1  A    between atoms: C_1  and  C_2
REMARK    2  A    between atoms: C_5  and  C_6
REMARK    3  A    between atoms: C_7  and  C_8
REMARK    4  A    between atoms: N_19  and  C_20
REMARK                            x       y       z     vdW  Elec       q    Type
REMARK                         _______ _______ _______ _____ _____    ______ ____
ROOT
ATOM      1  C   UNL     1       5.456   5.213  17.108  0.00  0.00    +0.000 A 
ATOM      2  C   UNL     1       4.203   4.858  17.619  0.00  0.00    +0.000 A 
ATOM      3  N   UNL     1       3.720   3.759  16.959  0.00  0.00    +0.000 NA
ATOM      4  N   UNL     1       4.603   3.409  16.041  0.00  0.00    +0.000 NA
ATOM      5  N   UNL     1       5.636   4.270  16.116  0.00  0.00    +0.000 N 
ATOM      6  C   UNL     1       6.767   4.061  15.246  0.00  0.00    +0.000 C 
ENDROOT
BRANCH   2   7
ATOM      7  C   UNL     1       3.501   5.500  18.710  0.00  0.00    +0.000 A 
ATOM      8  N   UNL     1       3.239   4.787  19.835  0.00  0.00    +0.000 NA
ATOM      9  C   UNL     1       2.426   5.329  20.754  0.00  0.00    +0.000 A 
ATOM     10  N   UNL     1       1.826   6.530  20.718  0.00  0.00    +0.000 NA
ATOM     11  C   UNL     1       2.152   7.213  19.611  0.00  0.00    +0.000 A 
ATOM     12  N   UNL     1       1.684   8.461  19.306  0.00  0.00    +0.000 N 
ATOM     13  C   UNL     1       2.201   8.869  18.104  0.00  0.00    +0.000 A 
ATOM     14  C   UNL     1       3.004   7.852  17.626  0.00  0.00    +0.000 A 
ATOM     15  C   UNL     1       2.976   6.793  18.576  0.00  0.00    +0.000 A 
ATOM     16  H   UNL     1       1.045   8.978  19.893  0.00  0.00    +0.000 HD
ENDBRANCH   2   7
BRANCH   1  21
ATOM     17  C   UNL     1       9.100   9.360  18.902  0.00  0.00    +0.000 C 
ATOM     18  C   UNL     1       8.188   8.278  18.410  0.00  0.00    +0.000 A 
ATOM     19  C   UNL     1       8.257   6.988  18.934  0.00  0.00    +0.000 A 
ATOM     20  C   UNL     1       7.400   5.988  18.465  0.00  0.00    +0.000 A 
ATOM     21  C   UNL     1       6.415   6.258  17.502  0.00  0.00    +0.000 A 
ATOM     22  C   UNL     1       6.357   7.556  16.982  0.00  0.00    +0.000 A 
ATOM     23  C   UNL     1       7.246   8.548  17.412  0.00  0.00    +0.000 A 
ENDBRANCH   1  21
TORSDOF 2
ENDMDL
