MODEL 1
REMARK VINA RESULT:      -8.9      0.000      0.000
REMARK  Name = 
REMARK  8 active torsions:
REMARK  status: ('A' for Active; 'I' for Inactive)
REMARK    1  A    between atoms: C_1  and  C_2
REMARK    2  A    between atoms: C_4  and  C_5
REMARK    3  A    between atoms: C_8  and  C_9
REMARK    4  A    between atoms: C_10  and  O_11
REMARK    5  A    between atoms: O_11  and  C_12
REMARK    6  A    between atoms: N_18  and  C_19
REMARK    7  A    between atoms: N_22  and  C_23
REMARK    8  A    between atoms: C_23  and  C_24
REMARK                            x       y       z     vdW  Elec       q    Type
REMARK                         _______ _______ _______ _____ _____    ______ ____
ROOT
ATOM      1  C   UNL     1       2.264   6.090  20.113  0.00  0.00    +0.000 A 
ATOM      2  C   UNL     1       1.378   5.032  20.008  0.00  0.00    +0.000 A 
ATOM      3  C   UNL     1       1.843   3.895  19.383  0.00  0.00    +0.000 A 
ATOM      4 CL   UNL     1       0.786   2.583  19.062  0.00  0.00    +0.000 Cl
ATOM      5  N   UNL     1       3.103   3.716  18.937  0.00  0.00    +0.000 NA
ATOM      6  C   UNL     1       3.989   4.710  19.129  0.00  0.00    +0.000 A 
ATOM      7  N   UNL     1       5.259   4.379  18.730  0.00  0.00    +0.000 N 
ATOM      8  C   UNL     1       3.602   5.912  19.716  0.00  0.00    +0.000 A 
ATOM      9  H   UNL     1       5.235   3.480  18.254  0.00  0.00    +0.000 HD
ENDROOT
BRANCH   7  10
ATOM     10  C   UNL     1       6.381   5.253  18.402  0.00  0.00    +0.000 C 
ATOM     11  C   UNL     1       5.951   6.524  17.683  0.00  0.00    +0.000 C 
ATOM     12  C   UNL     1       5.430   6.262  16.270  0.00  0.00    +0.000 C 
ATOM     13  N   UNL     1       6.336   5.488  15.406  0.00  0.00    +0.000 NA
ATOM     14  C   UNL     1       6.879   4.291  16.076  0.00  0.00    +0.000 C 
ATOM     15  C   UNL     1       7.394   4.527  17.502  0.00  0.00    +0.000 C 
BRANCH  13  16
ATOM     16  C   UNL     1       5.639   5.071  14.153  0.00  0.00    +0.000 C 
BRANCH  16  17
ATOM     17  C   UNL     1       6.303   3.876  13.461  0.00  0.00    +0.000 C 
ATOM     18  C   UNL     1       5.452   3.169  12.381  0.00  0.00    +0.000 C 
ATOM     19  C   UNL     1       6.707   3.075  11.498  0.00  0.00    +0.000 C 
ATOM     20  C   UNL     1       7.348   4.181  12.354  0.00  0.00    +0.000 C 
ENDBRANCH  16  17
ENDBRANCH  13  16
ENDBRANCH   7  10
BRANCH   1  21
ATOM     21  O   UNL     1       1.932   7.296  20.689  0.00  0.00    +0.000 OA
BRANCH  21  29
ATOM     22  C   UNL     1       2.673   8.218  17.800  0.00  0.00    +0.000 C 
ATOM     23  C   UNL     1       1.678   8.844  18.741  0.00  0.00    +0.000 A 
ATOM     24  C   UNL     1       1.090  10.051  18.289  0.00  0.00    +0.000 A 
ATOM     25  C   UNL     1       0.159  10.751  19.051  0.00  0.00    +0.000 A 
ATOM     26  C   UNL     1      -0.243  10.222  20.273  0.00  0.00    +0.000 A 
ATOM     27  C   UNL     1       0.314   9.020  20.758  0.00  0.00    +0.000 A 
ATOM     28  C   UNL     1      -0.246   8.487  22.053  0.00  0.00    +0.000 C 
ATOM     29  C   UNL     1       1.301   8.328  20.002  0.00  0.00    +0.000 A 
BRANCH  25  30
ATOM     30  C   UNL     1      -0.372  11.992  18.580  0.00  0.00    +0.000 C 
ATOM     31  N   UNL     1      -0.799  13.002  18.177  0.00  0.00    +0.000 NA
ENDBRANCH  25  30
ENDBRANCH  21  29
ENDBRANCH   1  21
TORSDOF 6
ENDMDL
MODEL 2
REMARK VINA RESULT:      -8.6      2.466      8.131
REMARK  Name = 
REMARK  8 active torsions:
REMARK  status: ('A' for Active; 'I' for Inactive)
REMARK    1  A    between atoms: C_1  and  C_2
REMARK    2  A    between atoms: C_4  and  C_5
REMARK    3  A    between atoms: C_8  and  C_9
REMARK    4  A    between atoms: C_10  and  O_11
REMARK    5  A    between atoms: O_11  and  C_12
REMARK    6  A    between atoms: N_18  and  C_19
REMARK    7  A    between atoms: N_22  and  C_23
REMARK    8  A    between atoms: C_23  and  C_24
REMARK                            x       y       z     vdW  Elec       q    Type
REMARK                         _______ _______ _______ _____ _____    ______ ____
ROOT
ATOM      1  C   UNL     1       4.038   5.034  19.497  0.00  0.00    +0.000 A 
ATOM      2  C   UNL     1       3.398   3.970  20.109  0.00  0.00    +0.000 A 
ATOM      3  C   UNL     1       2.198   4.243  20.728  0.00  0.00    +0.000 A 
ATOM      4 CL   UNL     1       1.397   3.035  21.646  0.00  0.00    +0.000 Cl
ATOM      5  N   UNL     1       1.575   5.439  20.719  0.00  0.00    +0.000 NA
ATOM      6  C   UNL     1       2.151   6.447  20.041  0.00  0.00    +0.000 A 
ATOM      7  N   UNL     1       1.382   7.582  20.013  0.00  0.00    +0.000 N 
ATOM      8  C   UNL     1       3.384   6.278  19.416  0.00  0.00    +0.000 A 
ATOM      9  H   UNL     1       0.580   7.456  20.626  0.00  0.00    +0.000 HD
ENDROOT
BRANCH   7  10
ATOM     10  C   UNL     1       1.781   8.962  19.749  0.00  0.00    +0.000 C 
ATOM     11  C   UNL     1       0.940   9.978  20.508  0.00  0.00    +0.000 C 
ATOM     12  C   UNL     1      -0.504  10.045  20.011  0.00  0.00    +0.000 C 
ATOM     13  N   UNL     1      -0.654  10.263  18.563  0.00  0.00    +0.000 NA
ATOM     14  C   UNL     1       0.214   9.382  17.761  0.00  0.00    +0.000 C 
ATOM     15  C   UNL     1       1.665   9.285  18.250  0.00  0.00    +0.000 C 
BRANCH  13  16
ATOM     16  C   UNL     1      -2.073  10.061  18.146  0.00  0.00    +0.000 C 
BRANCH  16  17
ATOM     17  C   UNL     1      -2.418  10.750  16.821  0.00  0.00    +0.000 C 
ATOM     18  C   UNL     1      -2.686   9.808  15.625  0.00  0.00    +0.000 C 
ATOM     19  C   UNL     1      -3.868  10.706  15.224  0.00  0.00    +0.000 C 
ATOM     20  C   UNL     1      -3.865  11.286  16.649  0.00  0.00    +0.000 C 
ENDBRANCH  16  17
ENDBRANCH  13  16
ENDBRANCH   7  10
BRANCH   1  21
ATOM     21  O   UNL     1       5.254   4.918  18.863  0.00  0.00    +0.000 OA
BRANCH  21  29
ATOM     22  C   UNL     1       3.296   3.394  16.968  0.00  0.00    +0.000 C 
ATOM     23  C   UNL     1       4.595   4.065  16.606  0.00  0.00    +0.000 A 
ATOM     24  C   UNL     1       5.016   3.890  15.265  0.00  0.00    +0.000 A 
ATOM     25  C   UNL     1       6.200   4.442  14.784  0.00  0.00    +0.000 A 
ATOM     26  C   UNL     1       6.967   5.231  15.633  0.00  0.00    +0.000 A 
ATOM     27  C   UNL     1       6.581   5.435  16.975  0.00  0.00    +0.000 A 
ATOM     28  C   UNL     1       7.436   6.372  17.791  0.00  0.00    +0.000 C 
ATOM     29  C   UNL     1       5.396   4.833  17.482  0.00  0.00    +0.000 A 
BRANCH  25  30
ATOM     30  C   UNL     1       6.614   4.198  13.437  0.00  0.00    +0.000 C 
ATOM     31  N   UNL     1       6.956   3.980  12.341  0.00  0.00    +0.000 NA
ENDBRANCH  25  30
ENDBRANCH  21  29
ENDBRANCH   1  21
TORSDOF 6
ENDMDL
MODEL 3
REMARK VINA RESULT:      -8.1      0.685      1.739
REMARK  Name = 
REMARK  8 active torsions:
REMARK  status: ('A' for Active; 'I' for Inactive)
REMARK    1  A    between atoms: C_1  and  C_2
REMARK    2  A    between atoms: C_4  and  C_5
REMARK    3  A    between atoms: C_8  and  C_9
REMARK    4  A    between atoms: C_10  and  O_11
REMARK    5  A    between atoms: O_11  and  C_12
REMARK    6  A    between atoms: N_18  and  C_19
REMARK    7  A    between atoms: N_22  and  C_23
REMARK    8  A    between atoms: C_23  and  C_24
REMARK                            x       y       z     vdW  Elec       q    Type
REMARK                         _______ _______ _______ _____ _____    ______ ____
ROOT
ATOM      1  C   UNL     1       2.434   6.451  20.014  0.00  0.00    +0.000 A 
ATOM      2  C   UNL     1       1.468   5.465  19.923  0.00  0.00    +0.000 A 
ATOM      3  C   UNL     1       1.843   4.286  19.315  0.00  0.00    +0.000 A 
ATOM      4 CL   UNL     1       0.686   3.057  19.011  0.00  0.00    +0.000 Cl
ATOM      5  N   UNL     1       3.086   4.002  18.874  0.00  0.00    +0.000 NA
ATOM      6  C   UNL     1       4.047   4.926  19.053  0.00  0.00    +0.000 A 
ATOM      7  N   UNL     1       5.286   4.490  18.661  0.00  0.00    +0.000 N 
ATOM      8  C   UNL     1       3.755   6.163  19.622  0.00  0.00    +0.000 A 
ATOM      9  H   UNL     1       5.193   3.589  18.198  0.00  0.00    +0.000 HD
ENDROOT
BRANCH   7  10
ATOM     10  C   UNL     1       6.474   5.269  18.322  0.00  0.00    +0.000 C 
ATOM     11  C   UNL     1       6.145   6.569  17.602  0.00  0.00    +0.000 C 
ATOM     12  C   UNL     1       5.593   6.347  16.194  0.00  0.00    +0.000 C 
ATOM     13  N   UNL     1       6.426   5.499  15.326  0.00  0.00    +0.000 NA
ATOM     14  C   UNL     1       6.874   4.264  15.996  0.00  0.00    +0.000 C 
ATOM     15  C   UNL     1       7.417   4.460  17.417  0.00  0.00    +0.000 C 
BRANCH  13  16
ATOM     16  C   UNL     1       5.688   5.138  14.079  0.00  0.00    +0.000 C 
BRANCH  16  17
ATOM     17  C   UNL     1       6.174   3.830  13.447  0.00  0.00    +0.000 C 
ATOM     18  C   UNL     1       5.203   3.171  12.440  0.00  0.00    +0.000 C 
ATOM     19  C   UNL     1       6.403   2.867  11.529  0.00  0.00    +0.000 C 
ATOM     20  C   UNL     1       7.206   3.934  12.292  0.00  0.00    +0.000 C 
ENDBRANCH  16  17
ENDBRANCH  13  16
ENDBRANCH   7  10
BRANCH   1  21
ATOM     21  O   UNL     1       2.198   7.688  20.571  0.00  0.00    +0.000 OA
BRANCH  21  29
ATOM     22  C   UNL     1      -0.182   8.971  22.130  0.00  0.00    +0.000 C 
ATOM     23  C   UNL     1       0.161   9.136  20.674  0.00  0.00    +0.000 A 
ATOM     24  C   UNL     1      -0.770   9.881  19.910  0.00  0.00    +0.000 A 
ATOM     25  C   UNL     1      -0.595  10.111  18.549  0.00  0.00    +0.000 A 
ATOM     26  C   UNL     1       0.556   9.636  17.930  0.00  0.00    +0.000 A 
ATOM     27  C   UNL     1       1.512   8.893  18.655  0.00  0.00    +0.000 A 
ATOM     28  C   UNL     1       2.763   8.492  17.915  0.00  0.00    +0.000 C 
ATOM     29  C   UNL     1       1.311   8.616  20.036  0.00  0.00    +0.000 A 
BRANCH  25  30
ATOM     30  C   UNL     1      -1.585  10.825  17.804  0.00  0.00    +0.000 C 
ATOM     31  N   UNL     1      -2.406  11.407  17.211  0.00  0.00    +0.000 NA
ENDBRANCH  25  30
ENDBRANCH  21  29
ENDBRANCH   1  21
TORSDOF 6
ENDMDL
MODEL 4
REMARK VINA RESULT:      -8.0      1.120      1.459
REMARK  Name = 
REMARK  8 active torsions:
REMARK  status: ('A' for Active; 'I' for Inactive)
REMARK    1  A    between atoms: C_1  and  C_2
REMARK    2  A    between atoms: C_4  and  C_5
REMARK    3  A    between atoms: C_8  and  C_9
REMARK    4  A    between atoms: C_10  and  O_11
REMARK    5  A    between atoms: O_11  and  C_12
REMARK    6  A    between atoms: N_18  and  C_19
REMARK    7  A    between atoms: N_22  and  C_23
REMARK    8  A    between atoms: C_23  and  C_24
REMARK                            x       y       z     vdW  Elec       q    Type
REMARK                         _______ _______ _______ _____ _____    ______ ____
ROOT
ATOM      1  C   UNL     1       2.152   7.146  20.310  0.00  0.00    +0.000 A 
ATOM      2  C   UNL     1       1.362   6.038  20.557  0.00  0.00    +0.000 A 
ATOM      3  C   UNL     1       1.730   4.864  19.936  0.00  0.00    +0.000 A 
ATOM      4 CL   UNL     1       0.737   3.470  20.048  0.00  0.00    +0.000 Cl
ATOM      5  N   UNL     1       2.831   4.703  19.173  0.00  0.00    +0.000 NA
ATOM      6  C   UNL     1       3.650   5.757  19.014  0.00  0.00    +0.000 A 
ATOM      7  N   UNL     1       4.785   5.451  18.309  0.00  0.00    +0.000 N 
ATOM      8  C   UNL     1       3.341   6.995  19.572  0.00  0.00    +0.000 A 
ATOM      9  H   UNL     1       4.706   4.505  17.945  0.00  0.00    +0.000 HD
ENDROOT
BRANCH   7  10
ATOM     10  C   UNL     1       5.699   6.341  17.598  0.00  0.00    +0.000 C 
ATOM     11  C   UNL     1       5.201   6.717  16.210  0.00  0.00    +0.000 C 
ATOM     12  C   UNL     1       5.208   5.538  15.236  0.00  0.00    +0.000 C 
ATOM     13  N   UNL     1       6.493   4.830  15.125  0.00  0.00    +0.000 NA
ATOM     14  C   UNL     1       7.092   4.526  16.438  0.00  0.00    +0.000 C 
ATOM     15  C   UNL     1       7.082   5.689  17.438  0.00  0.00    +0.000 C 
BRANCH  13  16
ATOM     16  C   UNL     1       6.329   3.561  14.357  0.00  0.00    +0.000 C 
BRANCH  16  17
ATOM     17  C   UNL     1       5.973   3.787  12.884  0.00  0.00    +0.000 C 
ATOM     18  C   UNL     1       6.549   2.753  11.888  0.00  0.00    +0.000 C 
ATOM     19  C   UNL     1       5.197   2.750  11.158  0.00  0.00    +0.000 C 
ATOM     20  C   UNL     1       4.556   3.359  12.417  0.00  0.00    +0.000 C 
ENDBRANCH  16  17
ENDBRANCH  13  16
ENDBRANCH   7  10
BRANCH   1  21
ATOM     21  O   UNL     1       1.893   8.390  20.840  0.00  0.00    +0.000 OA
BRANCH  21  29
ATOM     22  C   UNL     1       1.343   9.296  17.904  0.00  0.00    +0.000 C 
ATOM     23  C   UNL     1       0.601   9.705  19.149  0.00  0.00    +0.000 A 
ATOM     24  C   UNL     1      -0.396  10.694  18.967  0.00  0.00    +0.000 A 
ATOM     25  C   UNL     1      -1.159  11.179  20.025  0.00  0.00    +0.000 A 
ATOM     26  C   UNL     1      -0.971  10.640  21.292  0.00  0.00    +0.000 A 
ATOM     27  C   UNL     1       0.009   9.649  21.517  0.00  0.00    +0.000 A 
ATOM     28  C   UNL     1       0.080   9.071  22.907  0.00  0.00    +0.000 C 
ATOM     29  C   UNL     1       0.822   9.186  20.446  0.00  0.00    +0.000 A 
BRANCH  25  30
ATOM     30  C   UNL     1      -2.120  12.215  19.805  0.00  0.00    +0.000 C 
ATOM     31  N   UNL     1      -2.891  13.076  19.629  0.00  0.00    +0.000 NA
ENDBRANCH  25  30
ENDBRANCH  21  29
ENDBRANCH   1  21
TORSDOF 6
ENDMDL
MODEL 5
REMARK VINA RESULT:      -7.7      3.627      6.090
REMARK  Name = 
REMARK  8 active torsions:
REMARK  status: ('A' for Active; 'I' for Inactive)
REMARK    1  A    between atoms: C_1  and  C_2
REMARK    2  A    between atoms: C_4  and  C_5
REMARK    3  A    between atoms: C_8  and  C_9
REMARK    4  A    between atoms: C_10  and  O_11
REMARK    5  A    between atoms: O_11  and  C_12
REMARK    6  A    between atoms: N_18  and  C_19
REMARK    7  A    between atoms: N_22  and  C_23
REMARK    8  A    between atoms: C_23  and  C_24
REMARK                            x       y       z     vdW  Elec       q    Type
REMARK                         _______ _______ _______ _____ _____    ______ ____
ROOT
ATOM      1  C   UNL     1      -0.071  10.275  19.273  0.00  0.00    +0.000 A 
ATOM      2  C   UNL     1      -0.346  10.226  20.628  0.00  0.00    +0.000 A 
ATOM      3  C   UNL     1       0.331   9.276  21.363  0.00  0.00    +0.000 A 
ATOM      4 CL   UNL     1      -0.044   9.024  23.018  0.00  0.00    +0.000 Cl
ATOM      5  N   UNL     1       1.281   8.451  20.877  0.00  0.00    +0.000 NA
ATOM      6  C   UNL     1       1.616   8.568  19.579  0.00  0.00    +0.000 A 
ATOM      7  N   UNL     1       2.660   7.755  19.221  0.00  0.00    +0.000 N 
ATOM      8  C   UNL     1       0.960   9.473  18.748  0.00  0.00    +0.000 A 
ATOM      9  H   UNL     1       2.883   7.137  19.997  0.00  0.00    +0.000 HD
ENDROOT
BRANCH   7  10
ATOM     10  C   UNL     1       3.057   7.293  17.894  0.00  0.00    +0.000 C 
ATOM     11  C   UNL     1       2.068   6.306  17.290  0.00  0.00    +0.000 C 
ATOM     12  C   UNL     1       2.049   4.961  18.017  0.00  0.00    +0.000 C 
ATOM     13  N   UNL     1       3.363   4.315  18.166  0.00  0.00    +0.000 NA
ATOM     14  C   UNL     1       4.403   5.243  18.649  0.00  0.00    +0.000 C 
ATOM     15  C   UNL     1       4.431   6.606  17.944  0.00  0.00    +0.000 C 
BRANCH  13  16
ATOM     16  C   UNL     1       3.275   3.153  19.098  0.00  0.00    +0.000 C 
BRANCH  16  17
ATOM     17  C   UNL     1       2.531   3.475  20.398  0.00  0.00    +0.000 C 
ATOM     18  C   UNL     1       1.045   3.052  20.444  0.00  0.00    +0.000 C 
ATOM     19  C   UNL     1       1.261   2.564  21.886  0.00  0.00    +0.000 C 
ATOM     20  C   UNL     1       2.775   2.539  21.612  0.00  0.00    +0.000 C 
ENDBRANCH  16  17
ENDBRANCH  13  16
ENDBRANCH   7  10
BRANCH   1  21
ATOM     21  O   UNL     1      -0.688  11.153  18.411  0.00  0.00    +0.000 OA
BRANCH  21  29
ATOM     22  C   UNL     1      -1.831  13.350  20.312  0.00  0.00    +0.000 C 
ATOM     23  C   UNL     1      -2.600  12.411  19.421  0.00  0.00    +0.000 A 
ATOM     24  C   UNL     1      -4.010  12.472  19.545  0.00  0.00    +0.000 A 
ATOM     25  C   UNL     1      -4.854  11.659  18.795  0.00  0.00    +0.000 A 
ATOM     26  C   UNL     1      -4.299  10.795  17.859  0.00  0.00    +0.000 A 
ATOM     27  C   UNL     1      -2.899  10.706  17.700  0.00  0.00    +0.000 A 
ATOM     28  C   UNL     1      -2.398   9.800  16.603  0.00  0.00    +0.000 C 
ATOM     29  C   UNL     1      -2.032  11.501  18.499  0.00  0.00    +0.000 A 
BRANCH  25  30
ATOM     30  C   UNL     1      -6.270  11.717  18.988  0.00  0.00    +0.000 C 
ATOM     31  N   UNL     1      -7.429  11.748  19.135  0.00  0.00    +0.000 NA
ENDBRANCH  25  30
ENDBRANCH  21  29
ENDBRANCH   1  21
TORSDOF 6
ENDMDL
MODEL 6
REMARK VINA RESULT:      -7.7      1.149      2.110
REMARK  Name = 
REMARK  8 active torsions:
REMARK  status: ('A' for Active; 'I' for Inactive)
REMARK    1  A    between atoms: C_1  and  C_2
REMARK    2  A    between atoms: C_4  and  C_5
REMARK    3  A    between atoms: C_8  and  C_9
REMARK    4  A    between atoms: C_10  and  O_11
REMARK    5  A    between atoms: O_11  and  C_12
REMARK    6  A    between atoms: N_18  and  C_19
REMARK    7  A    between atoms: N_22  and  C_23
REMARK    8  A    between atoms: C_23  and  C_24
REMARK                            x       y       z     vdW  Elec       q    Type
REMARK                         _______ _______ _______ _____ _____    ______ ____
ROOT
ATOM      1  C   UNL     1       2.233   7.060  20.138  0.00  0.00    +0.000 A 
ATOM      2  C   UNL     1       1.412   5.973  20.378  0.00  0.00    +0.000 A 
ATOM      3  C   UNL     1       1.789   4.775  19.809  0.00  0.00    +0.000 A 
ATOM      4 CL   UNL     1       0.767   3.401  19.914  0.00  0.00    +0.000 Cl
ATOM      5  N   UNL     1       2.921   4.574  19.105  0.00  0.00    +0.000 NA
ATOM      6  C   UNL     1       3.766   5.610  18.955  0.00  0.00    +0.000 A 
ATOM      7  N   UNL     1       4.927   5.265  18.314  0.00  0.00    +0.000 N 
ATOM      8  C   UNL     1       3.453   6.869  19.462  0.00  0.00    +0.000 A 
ATOM      9  H   UNL     1       4.849   4.310  17.973  0.00  0.00    +0.000 HD
ENDROOT
BRANCH   7  10
ATOM     10  C   UNL     1       5.889   6.119  17.623  0.00  0.00    +0.000 C 
ATOM     11  C   UNL     1       5.400   6.578  16.256  0.00  0.00    +0.000 C 
ATOM     12  C   UNL     1       5.317   5.439  15.240  0.00  0.00    +0.000 C 
ATOM     13  N   UNL     1       6.551   4.653  15.084  0.00  0.00    +0.000 NA
ATOM     14  C   UNL     1       7.145   4.260  16.376  0.00  0.00    +0.000 C 
ATOM     15  C   UNL     1       7.224   5.384  17.419  0.00  0.00    +0.000 C 
BRANCH  13  16
ATOM     16  C   UNL     1       6.294   3.426  14.273  0.00  0.00    +0.000 C 
BRANCH  16  17
ATOM     17  C   UNL     1       5.973   3.728  12.805  0.00  0.00    +0.000 C 
ATOM     18  C   UNL     1       6.397   2.642  11.789  0.00  0.00    +0.000 C 
ATOM     19  C   UNL     1       5.058   2.844  11.063  0.00  0.00    +0.000 C 
ATOM     20  C   UNL     1       4.510   3.513  12.335  0.00  0.00    +0.000 C 
ENDBRANCH  16  17
ENDBRANCH  13  16
ENDBRANCH   7  10
BRANCH   1  21
ATOM     21  O   UNL     1       1.971   8.323  20.619  0.00  0.00    +0.000 OA
BRANCH  21  29
ATOM     22  C   UNL     1      -0.453   9.243  22.358  0.00  0.00    +0.000 C 
ATOM     23  C   UNL     1      -0.239   9.465  20.884  0.00  0.00    +0.000 A 
ATOM     24  C   UNL     1      -1.318  10.075  20.198  0.00  0.00    +0.000 A 
ATOM     25  C   UNL     1      -1.271  10.337  18.832  0.00  0.00    +0.000 A 
ATOM     26  C   UNL     1      -0.111  10.035  18.129  0.00  0.00    +0.000 A 
ATOM     27  C   UNL     1       0.989   9.431  18.775  0.00  0.00    +0.000 A 
ATOM     28  C   UNL     1       2.229   9.218  17.945  0.00  0.00    +0.000 C 
ATOM     29  C   UNL     1       0.926   9.119  20.161  0.00  0.00    +0.000 A 
BRANCH  25  30
ATOM     30  C   UNL     1      -2.402  10.908  18.168  0.00  0.00    +0.000 C 
ATOM     31  N   UNL     1      -3.318  11.393  17.629  0.00  0.00    +0.000 NA
ENDBRANCH  25  30
ENDBRANCH  21  29
ENDBRANCH   1  21
TORSDOF 6
ENDMDL
MODEL 7
REMARK VINA RESULT:      -7.7      2.091      8.338
REMARK  Name = 
REMARK  8 active torsions:
REMARK  status: ('A' for Active; 'I' for Inactive)
REMARK    1  A    between atoms: C_1  and  C_2
REMARK    2  A    between atoms: C_4  and  C_5
REMARK    3  A    between atoms: C_8  and  C_9
REMARK    4  A    between atoms: C_10  and  O_11
REMARK    5  A    between atoms: O_11  and  C_12
REMARK    6  A    between atoms: N_18  and  C_19
REMARK    7  A    between atoms: N_22  and  C_23
REMARK    8  A    between atoms: C_23  and  C_24
REMARK                            x       y       z     vdW  Elec       q    Type
REMARK                         _______ _______ _______ _____ _____    ______ ____
ROOT
ATOM      1  C   UNL     1       3.977   4.281  19.709  0.00  0.00    +0.000 A 
ATOM      2  C   UNL     1       3.183   3.293  20.261  0.00  0.00    +0.000 A 
ATOM      3  C   UNL     1       1.990   3.698  20.821  0.00  0.00    +0.000 A 
ATOM      4 CL   UNL     1       1.001   2.581  21.667  0.00  0.00    +0.000 Cl
ATOM      5  N   UNL     1       1.515   4.960  20.805  0.00  0.00    +0.000 NA
ATOM      6  C   UNL     1       2.245   5.902  20.181  0.00  0.00    +0.000 A 
ATOM      7  N   UNL     1       1.619   7.121  20.138  0.00  0.00    +0.000 N 
ATOM      8  C   UNL     1       3.482   5.596  19.621  0.00  0.00    +0.000 A 
ATOM      9  H   UNL     1       0.775   7.083  20.704  0.00  0.00    +0.000 HD
ENDROOT
BRANCH   7  10
ATOM     10  C   UNL     1       2.194   8.447  19.926  0.00  0.00    +0.000 C 
ATOM     11  C   UNL     1       1.563   9.515  20.809  0.00  0.00    +0.000 C 
ATOM     12  C   UNL     1       0.113   9.818  20.433  0.00  0.00    +0.000 C 
ATOM     13  N   UNL     1      -0.105  10.156  19.017  0.00  0.00    +0.000 NA
ATOM     14  C   UNL     1       0.570   9.222  18.097  0.00  0.00    +0.000 C 
ATOM     15  C   UNL     1       2.022   8.889  18.464  0.00  0.00    +0.000 C 
BRANCH  13  16
ATOM     16  C   UNL     1      -1.564  10.184  18.701  0.00  0.00    +0.000 C 
BRANCH  16  17
ATOM     17  C   UNL     1      -2.159  11.596  18.717  0.00  0.00    +0.000 C 
ATOM     18  C   UNL     1      -2.685  12.088  20.085  0.00  0.00    +0.000 C 
ATOM     19  C   UNL     1      -2.053  13.460  19.800  0.00  0.00    +0.000 C 
ATOM     20  C   UNL     1      -1.167  12.790  18.735  0.00  0.00    +0.000 C 
ENDBRANCH  16  17
ENDBRANCH  13  16
ENDBRANCH   7  10
BRANCH   1  21
ATOM     21  O   UNL     1       5.205   4.030  19.139  0.00  0.00    +0.000 OA
BRANCH  21  29
ATOM     22  C   UNL     1       3.556   3.314  16.588  0.00  0.00    +0.000 C 
ATOM     23  C   UNL     1       4.885   4.017  16.658  0.00  0.00    +0.000 A 
ATOM     24  C   UNL     1       5.496   4.289  15.409  0.00  0.00    +0.000 A 
ATOM     25  C   UNL     1       6.730   4.925  15.314  0.00  0.00    +0.000 A 
ATOM     26  C   UNL     1       7.360   5.351  16.478  0.00  0.00    +0.000 A 
ATOM     27  C   UNL     1       6.783   5.104  17.742  0.00  0.00    +0.000 A 
ATOM     28  C   UNL     1       7.502   5.676  18.938  0.00  0.00    +0.000 C 
ATOM     29  C   UNL     1       5.545   4.412  17.845  0.00  0.00    +0.000 A 
BRANCH  25  30
ATOM     30  C   UNL     1       7.336   5.136  14.035  0.00  0.00    +0.000 C 
ATOM     31  N   UNL     1       7.821   5.325  12.989  0.00  0.00    +0.000 NA
ENDBRANCH  25  30
ENDBRANCH  21  29
ENDBRANCH   1  21
TORSDOF 6
ENDMDL
MODEL 8
REMARK VINA RESULT:      -7.6      4.339     10.868
REMARK  Name = 
REMARK  8 active torsions:
REMARK  status: ('A' for Active; 'I' for Inactive)
REMARK    1  A    between atoms: C_1  and  C_2
REMARK    2  A    between atoms: C_4  and  C_5
REMARK    3  A    between atoms: C_8  and  C_9
REMARK    4  A    between atoms: C_10  and  O_11
REMARK    5  A    between atoms: O_11  and  C_12
REMARK    6  A    between atoms: N_18  and  C_19
REMARK    7  A    between atoms: N_22  and  C_23
REMARK    8  A    between atoms: C_23  and  C_24
REMARK                            x       y       z     vdW  Elec       q    Type
REMARK                         _______ _______ _______ _____ _____    ______ ____
ROOT
ATOM      1  C   UNL     1       0.180  10.519  19.007  0.00  0.00    +0.000 A 
ATOM      2  C   UNL     1      -0.500   9.922  17.961  0.00  0.00    +0.000 A 
ATOM      3  C   UNL     1      -1.730  10.454  17.638  0.00  0.00    +0.000 A 
ATOM      4 CL   UNL     1      -2.726   9.699  16.463  0.00  0.00    +0.000 Cl
ATOM      5  N   UNL     1      -2.278  11.544  18.214  0.00  0.00    +0.000 NA
ATOM      6  C   UNL     1      -1.570  12.181  19.164  0.00  0.00    +0.000 A 
ATOM      7  N   UNL     1      -2.176  13.329  19.603  0.00  0.00    +0.000 N 
ATOM      8  C   UNL     1      -0.335  11.694  19.584  0.00  0.00    +0.000 A 
ATOM      9  H   UNL     1      -3.107  13.392  19.196  0.00  0.00    +0.000 HD
ENDROOT
BRANCH   7  10
ATOM     10  C   UNL     1      -1.964  14.069  20.844  0.00  0.00    +0.000 C 
ATOM     11  C   UNL     1      -2.291  13.251  22.085  0.00  0.00    +0.000 C 
ATOM     12  C   UNL     1      -3.785  12.961  22.231  0.00  0.00    +0.000 C 
ATOM     13  N   UNL     1      -4.657  14.146  22.176  0.00  0.00    +0.000 NA
ATOM     14  C   UNL     1      -4.328  15.045  21.054  0.00  0.00    +0.000 C 
ATOM     15  C   UNL     1      -2.832  15.338  20.878  0.00  0.00    +0.000 C 
BRANCH  13  16
ATOM     16  C   UNL     1      -6.090  13.739  22.072  0.00  0.00    +0.000 C 
BRANCH  16  17
ATOM     17  C   UNL     1      -6.280  12.348  21.459  0.00  0.00    +0.000 C 
ATOM     18  C   UNL     1      -7.673  11.709  21.666  0.00  0.00    +0.000 C 
ATOM     19  C   UNL     1      -7.634  11.227  20.206  0.00  0.00    +0.000 C 
ATOM     20  C   UNL     1      -6.536  12.269  19.930  0.00  0.00    +0.000 C 
ENDBRANCH  16  17
ENDBRANCH  13  16
ENDBRANCH   7  10
BRANCH   1  21
ATOM     21  O   UNL     1       1.405  10.079  19.457  0.00  0.00    +0.000 OA
BRANCH  21  29
ATOM     22  C   UNL     1       2.861   8.127  17.504  0.00  0.00    +0.000 C 
ATOM     23  C   UNL     1       2.247   7.806  18.841  0.00  0.00    +0.000 A 
ATOM     24  C   UNL     1       2.247   6.435  19.197  0.00  0.00    +0.000 A 
ATOM     25  C   UNL     1       1.707   5.982  20.397  0.00  0.00    +0.000 A 
ATOM     26  C   UNL     1       1.196   6.911  21.297  0.00  0.00    +0.000 A 
ATOM     27  C   UNL     1       1.181   8.287  20.984  0.00  0.00    +0.000 A 
ATOM     28  C   UNL     1       0.681   9.221  22.057  0.00  0.00    +0.000 C 
ATOM     29  C   UNL     1       1.689   8.747  19.737  0.00  0.00    +0.000 A 
BRANCH  25  30
ATOM     30  C   UNL     1       1.682   4.584  20.695  0.00  0.00    +0.000 C 
ATOM     31  N   UNL     1       1.679   3.443  20.947  0.00  0.00    +0.000 NA
ENDBRANCH  25  30
ENDBRANCH  21  29
ENDBRANCH   1  21
TORSDOF 6
ENDMDL
MODEL 9
REMARK VINA RESULT:      -7.6      2.821      7.673
REMARK  Name = 
REMARK  8 active torsions:
REMARK  status: ('A' for Active; 'I' for Inactive)
REMARK    1  A    between atoms: C_1  and  C_2
REMARK    2  A    between atoms: C_4  and  C_5
REMARK    3  A    between atoms: C_8  and  C_9
REMARK    4  A    between atoms: C_10  and  O_11
REMARK    5  A    between atoms: O_11  and  C_12
REMARK    6  A    between atoms: N_18  and  C_19
REMARK    7  A    between atoms: N_22  and  C_23
REMARK    8  A    between atoms: C_23  and  C_24
REMARK                            x       y       z     vdW  Elec       q    Type
REMARK                         _______ _______ _______ _____ _____    ______ ____
ROOT
ATOM      1  C   UNL     1       4.312   4.887  18.777  0.00  0.00    +0.000 A 
ATOM      2  C   UNL     1       3.740   3.771  19.361  0.00  0.00    +0.000 A 
ATOM      3  C   UNL     1       2.610   3.981  20.121  0.00  0.00    +0.000 A 
ATOM      4 CL   UNL     1       1.909   2.695  21.014  0.00  0.00    +0.000 Cl
ATOM      5  N   UNL     1       1.988   5.168  20.274  0.00  0.00    +0.000 NA
ATOM      6  C   UNL     1       2.490   6.234  19.625  0.00  0.00    +0.000 A 
ATOM      7  N   UNL     1       1.722   7.360  19.770  0.00  0.00    +0.000 N 
ATOM      8  C   UNL     1       3.653   6.128  18.866  0.00  0.00    +0.000 A 
ATOM      9  H   UNL     1       0.987   7.177  20.450  0.00  0.00    +0.000 HD
ENDROOT
BRANCH   7  10
ATOM     10  C   UNL     1       2.090   8.760  19.580  0.00  0.00    +0.000 C 
ATOM     11  C   UNL     1       1.276   9.710  20.448  0.00  0.00    +0.000 C 
ATOM     12  C   UNL     1      -0.192   9.788  20.029  0.00  0.00    +0.000 C 
ATOM     13  N   UNL     1      -0.418  10.100  18.609  0.00  0.00    +0.000 NA
ATOM     14  C   UNL     1       0.419   9.288  17.706  0.00  0.00    +0.000 C 
ATOM     15  C   UNL     1       1.894   9.182  18.115  0.00  0.00    +0.000 C 
BRANCH  13  16
ATOM     16  C   UNL     1      -1.854   9.904  18.249  0.00  0.00    +0.000 C 
BRANCH  16  17
ATOM     17  C   UNL     1      -2.269  10.661  16.983  0.00  0.00    +0.000 C 
ATOM     18  C   UNL     1      -2.732   9.782  15.798  0.00  0.00    +0.000 C 
ATOM     19  C   UNL     1      -3.869  10.784  15.540  0.00  0.00    +0.000 C 
ATOM     20  C   UNL     1      -3.676  11.316  16.970  0.00  0.00    +0.000 C 
ENDBRANCH  16  17
ENDBRANCH  13  16
ENDBRANCH   7  10
BRANCH   1  21
ATOM     21  O   UNL     1       5.457   4.835  18.014  0.00  0.00    +0.000 OA
BRANCH  21  29
ATOM     22  C   UNL     1       7.872   5.102  19.974  0.00  0.00    +0.000 C 
ATOM     23  C   UNL     1       7.441   6.071  18.905  0.00  0.00    +0.000 A 
ATOM     24  C   UNL     1       8.163   7.289  18.861  0.00  0.00    +0.000 A 
ATOM     25  C   UNL     1       7.875   8.286  17.934  0.00  0.00    +0.000 A 
ATOM     26  C   UNL     1       6.880   8.060  16.991  0.00  0.00    +0.000 A 
ATOM     27  C   UNL     1       6.139   6.858  16.995  0.00  0.00    +0.000 A 
ATOM     28  C   UNL     1       5.139   6.674  15.883  0.00  0.00    +0.000 C 
ATOM     29  C   UNL     1       6.400   5.857  17.972  0.00  0.00    +0.000 A 
BRANCH  25  30
ATOM     30  C   UNL     1       8.594   9.522  17.957  0.00  0.00    +0.000 C 
ATOM     31  N   UNL     1       9.194  10.524  17.991  0.00  0.00    +0.000 NA
ENDBRANCH  25  30
ENDBRANCH  21  29
ENDBRANCH   1  21
TORSDOF 6
ENDMDL
