MODEL 1
REMARK VINA RESULT:      -8.0      0.000      0.000
REMARK  Name = 
REMARK  9 active torsions:
REMARK  status: ('A' for Active; 'I' for Inactive)
REMARK    1  A    between atoms: C_1  and  C_2
REMARK    2  A    between atoms: C_8  and  C_9
REMARK    3  A    between atoms: C_9  and  O_10
REMARK    4  A    between atoms: O_10  and  C_11
REMARK    5  A    between atoms: C_14  and  C_15
REMARK    6  A    between atoms: C_16  and  C_17
REMARK    7  A    between atoms: C_16  and  C_19
REMARK    8  A    between atoms: N_21  and  C_22
REMARK    9  A    between atoms: C_27  and  C_28
REMARK                            x       y       z     vdW  Elec       q    Type
REMARK                         _______ _______ _______ _____ _____    ______ ____
ROOT
ATOM      1  C   UNL     1      -0.730  11.813  19.049  0.00  0.00    +0.000 A 
ATOM      2  C   UNL     1      -1.212  10.647  18.454  0.00  0.00    +0.000 A 
ATOM      3  C   UNL     1      -0.329   9.652  18.024  0.00  0.00    +0.000 A 
ATOM      4  C   UNL     1       1.052   9.823  18.150  0.00  0.00    +0.000 A 
ATOM      5  C   UNL     1       1.536  11.028  18.680  0.00  0.00    +0.000 A 
ATOM      6  C   UNL     1       0.649  12.014  19.133  0.00  0.00    +0.000 A 
ENDROOT
BRANCH   4   7
ATOM      7  C   UNL     1       1.971   8.730  17.776  0.00  0.00    +0.000 C 
ATOM      8  C   UNL     1       2.395   7.720  18.576  0.00  0.00    +0.000 C 
BRANCH   8   9
ATOM      9  C   UNL     1       3.233   6.658  17.979  0.00  0.00    +0.000 C 
ATOM     10  O   UNL     1       2.803   5.504  18.028  0.00  0.00    +0.000 OA
ATOM     11  N   UNL     1       4.461   7.034  17.465  0.00  0.00    +0.000 N 
ATOM     12  H   UNL     1       4.804   7.973  17.624  0.00  0.00    +0.000 HD
BRANCH  11  13
ATOM     13  C   UNL     1       5.355   6.142  16.808  0.00  0.00    +0.000 A 
ATOM     14  C   UNL     1       5.304   5.975  15.413  0.00  0.00    +0.000 A 
ATOM     15  C   UNL     1       6.154   5.101  14.744  0.00  0.00    +0.000 A 
ATOM     16  C   UNL     1       7.095   4.386  15.459  0.00  0.00    +0.000 A 
ATOM     17  C   UNL     1       7.184   4.547  16.841  0.00  0.00    +0.000 A 
ATOM     18  C   UNL     1       6.320   5.417  17.537  0.00  0.00    +0.000 A 
ATOM     19  C   UNL     1       6.476   5.508  19.030  0.00  0.00    +0.000 C 
ENDBRANCH  11  13
ENDBRANCH   8   9
BRANCH   8  20
ATOM     20  C   UNL     1       1.846   7.693  19.994  0.00  0.00    +0.000 C 
ATOM     21  N   UNL     1       1.391   7.671  21.169  0.00  0.00    +0.000 NA
ENDBRANCH   8  20
ENDBRANCH   4   7
BRANCH   1  22
ATOM     22  O   UNL     1      -1.522  12.798  19.574  0.00  0.00    +0.000 OA
BRANCH  22  23
ATOM     23  C   UNL     1      -2.922  12.490  19.591  0.00  0.00    +0.000 C 
BRANCH  23  31
ATOM     24  C   UNL     1      -4.597  17.234  25.100  0.00  0.00    +0.000 C 
ATOM     25  C   UNL     1      -4.415  16.187  24.060  0.00  0.00    +0.000 A 
ATOM     26  N   UNL     1      -5.228  15.193  23.889  0.00  0.00    +0.000 NA
ATOM     27  N   UNL     1      -4.756  14.433  22.853  0.00  0.00    +0.000 N 
ATOM     28  C   UNL     1      -5.410  13.301  22.439  0.00  0.00    +0.000 A 
ATOM     29  O   UNL     1      -6.446  12.837  22.904  0.00  0.00    +0.000 OA
ATOM     30  C   UNL     1      -4.751  12.617  21.306  0.00  0.00    +0.000 A 
ATOM     31  C   UNL     1      -3.619  13.121  20.784  0.00  0.00    +0.000 A 
ATOM     32  N   UNL     1      -3.007  14.267  21.260  0.00  0.00    +0.000 NA
ATOM     33  C   UNL     1      -3.600  14.847  22.247  0.00  0.00    +0.000 A 
ATOM     34  S   UNL     1      -3.028  16.295  23.005  0.00  0.00    +0.000 S 
ENDBRANCH  23  31
ENDBRANCH  22  23
ENDBRANCH   1  22
TORSDOF 7
ENDMDL
MODEL 2
REMARK VINA RESULT:      -7.9      3.979     12.194
REMARK  Name = 
REMARK  9 active torsions:
REMARK  status: ('A' for Active; 'I' for Inactive)
REMARK    1  A    between atoms: C_1  and  C_2
REMARK    2  A    between atoms: C_8  and  C_9
REMARK    3  A    between atoms: C_9  and  O_10
REMARK    4  A    between atoms: O_10  and  C_11
REMARK    5  A    between atoms: C_14  and  C_15
REMARK    6  A    between atoms: C_16  and  C_17
REMARK    7  A    between atoms: C_16  and  C_19
REMARK    8  A    between atoms: N_21  and  C_22
REMARK    9  A    between atoms: C_27  and  C_28
REMARK                            x       y       z     vdW  Elec       q    Type
REMARK                         _______ _______ _______ _____ _____    ______ ____
ROOT
ATOM      1  C   UNL     1       2.303   6.486  19.234  0.00  0.00    +0.000 A 
ATOM      2  C   UNL     1       1.770   6.623  20.516  0.00  0.00    +0.000 A 
ATOM      3  C   UNL     1       1.260   7.852  20.945  0.00  0.00    +0.000 A 
ATOM      4  C   UNL     1       1.307   8.972  20.111  0.00  0.00    +0.000 A 
ATOM      5  C   UNL     1       1.911   8.850  18.852  0.00  0.00    +0.000 A 
ATOM      6  C   UNL     1       2.400   7.611  18.414  0.00  0.00    +0.000 A 
ENDROOT
BRANCH   4   7
ATOM      7  C   UNL     1       0.685  10.242  20.539  0.00  0.00    +0.000 C 
ATOM      8  C   UNL     1      -0.298  10.918  19.894  0.00  0.00    +0.000 C 
BRANCH   8   9
ATOM      9  C   UNL     1      -0.864  12.119  20.545  0.00  0.00    +0.000 C 
ATOM     10  O   UNL     1      -1.684  12.777  19.902  0.00  0.00    +0.000 OA
ATOM     11  N   UNL     1      -0.384  12.445  21.801  0.00  0.00    +0.000 N 
ATOM     12  H   UNL     1       0.412  11.946  22.177  0.00  0.00    +0.000 HD
BRANCH  11  13
ATOM     13  C   UNL     1      -0.868  13.534  22.580  0.00  0.00    +0.000 A 
ATOM     14  C   UNL     1      -0.178  14.758  22.608  0.00  0.00    +0.000 A 
ATOM     15  C   UNL     1      -0.618  15.834  23.371  0.00  0.00    +0.000 A 
ATOM     16  C   UNL     1      -1.779  15.716  24.109  0.00  0.00    +0.000 A 
ATOM     17  C   UNL     1      -2.498  14.522  24.082  0.00  0.00    +0.000 A 
ATOM     18  C   UNL     1      -2.058  13.415  23.328  0.00  0.00    +0.000 A 
ATOM     19  C   UNL     1      -2.887  12.161  23.379  0.00  0.00    +0.000 C 
ENDBRANCH  11  13
ENDBRANCH   8   9
BRANCH   8  20
ATOM     20  C   UNL     1      -0.835  10.293  18.616  0.00  0.00    +0.000 C 
ATOM     21  N   UNL     1      -1.280   9.775  17.557  0.00  0.00    +0.000 NA
ENDBRANCH   8  20
ENDBRANCH   4   7
BRANCH   1  22
ATOM     22  O   UNL     1       2.746   5.305  18.703  0.00  0.00    +0.000 OA
BRANCH  22  23
ATOM     23  C   UNL     1       4.077   4.941  19.090  0.00  0.00    +0.000 C 
BRANCH  23  31
ATOM     24  C   UNL     1       7.432   4.476  12.443  0.00  0.00    +0.000 C 
ATOM     25  C   UNL     1       6.902   4.693  13.815  0.00  0.00    +0.000 A 
ATOM     26  N   UNL     1       7.410   5.534  14.659  0.00  0.00    +0.000 NA
ATOM     27  N   UNL     1       6.677   5.471  15.813  0.00  0.00    +0.000 N 
ATOM     28  C   UNL     1       6.982   6.252  16.898  0.00  0.00    +0.000 A 
ATOM     29  O   UNL     1       7.894   7.068  16.986  0.00  0.00    +0.000 OA
ATOM     30  C   UNL     1       6.075   6.047  18.048  0.00  0.00    +0.000 A 
ATOM     31  C   UNL     1       5.068   5.161  17.960  0.00  0.00    +0.000 A 
ATOM     32  N   UNL     1       4.824   4.398  16.832  0.00  0.00    +0.000 NA
ATOM     33  C   UNL     1       5.625   4.594  15.842  0.00  0.00    +0.000 A 
ATOM     34  S   UNL     1       5.516   3.763  14.326  0.00  0.00    +0.000 S 
ENDBRANCH  23  31
ENDBRANCH  22  23
ENDBRANCH   1  22
TORSDOF 7
ENDMDL
MODEL 3
REMARK VINA RESULT:      -7.8      3.619     11.651
REMARK  Name = 
REMARK  9 active torsions:
REMARK  status: ('A' for Active; 'I' for Inactive)
REMARK    1  A    between atoms: C_1  and  C_2
REMARK    2  A    between atoms: C_8  and  C_9
REMARK    3  A    between atoms: C_9  and  O_10
REMARK    4  A    between atoms: O_10  and  C_11
REMARK    5  A    between atoms: C_14  and  C_15
REMARK    6  A    between atoms: C_16  and  C_17
REMARK    7  A    between atoms: C_16  and  C_19
REMARK    8  A    between atoms: N_21  and  C_22
REMARK    9  A    between atoms: C_27  and  C_28
REMARK                            x       y       z     vdW  Elec       q    Type
REMARK                         _______ _______ _______ _____ _____    ______ ____
ROOT
ATOM      1  C   UNL     1       0.941   9.997  18.130  0.00  0.00    +0.000 A 
ATOM      2  C   UNL     1       1.406  11.046  18.922  0.00  0.00    +0.000 A 
ATOM      3  C   UNL     1       0.537  11.728  19.779  0.00  0.00    +0.000 A 
ATOM      4  C   UNL     1      -0.819  11.395  19.831  0.00  0.00    +0.000 A 
ATOM      5  C   UNL     1      -1.298  10.390  18.979  0.00  0.00    +0.000 A 
ATOM      6  C   UNL     1      -0.422   9.691  18.138  0.00  0.00    +0.000 A 
ENDROOT
BRANCH   4   7
ATOM      7  C   UNL     1      -1.709  12.059  20.805  0.00  0.00    +0.000 C 
ATOM      8  C   UNL     1      -1.755  11.836  22.142  0.00  0.00    +0.000 C 
BRANCH   8   9
ATOM      9  C   UNL     1      -2.644  12.686  22.963  0.00  0.00    +0.000 C 
ATOM     10  O   UNL     1      -3.394  12.116  23.758  0.00  0.00    +0.000 OA
ATOM     11  N   UNL     1      -2.609  14.049  22.732  0.00  0.00    +0.000 N 
ATOM     12  H   UNL     1      -2.089  14.409  21.941  0.00  0.00    +0.000 HD
BRANCH  11  13
ATOM     13  C   UNL     1      -3.359  15.002  23.477  0.00  0.00    +0.000 A 
ATOM     14  C   UNL     1      -4.700  15.269  23.154  0.00  0.00    +0.000 A 
ATOM     15  C   UNL     1      -5.455  16.205  23.853  0.00  0.00    +0.000 A 
ATOM     16  C   UNL     1      -4.886  16.882  24.914  0.00  0.00    +0.000 A 
ATOM     17  C   UNL     1      -3.564  16.621  25.273  0.00  0.00    +0.000 A 
ATOM     18  C   UNL     1      -2.780  15.688  24.564  0.00  0.00    +0.000 A 
ATOM     19  C   UNL     1      -1.357  15.490  25.010  0.00  0.00    +0.000 C 
ENDBRANCH  11  13
ENDBRANCH   8   9
BRANCH   8  20
ATOM     20  C   UNL     1      -0.772  10.819  22.701  0.00  0.00    +0.000 C 
ATOM     21  N   UNL     1       0.041   9.976  23.165  0.00  0.00    +0.000 NA
ENDBRANCH   8  20
ENDBRANCH   4   7
BRANCH   1  22
ATOM     22  O   UNL     1       1.734   9.223  17.327  0.00  0.00    +0.000 OA
BRANCH  22  23
ATOM     23  C   UNL     1       2.947   8.774  17.945  0.00  0.00    +0.000 C 
BRANCH  23  31
ATOM     24  C   UNL     1       3.707   1.362  18.318  0.00  0.00    +0.000 C 
ATOM     25  C   UNL     1       3.457   2.825  18.408  0.00  0.00    +0.000 A 
ATOM     26  N   UNL     1       2.850   3.392  19.401  0.00  0.00    +0.000 NA
ATOM     27  N   UNL     1       2.795   4.737  19.152  0.00  0.00    +0.000 N 
ATOM     28  C   UNL     1       2.202   5.604  20.033  0.00  0.00    +0.000 A 
ATOM     29  O   UNL     1       1.672   5.321  21.102  0.00  0.00    +0.000 OA
ATOM     30  C   UNL     1       2.245   7.015  19.593  0.00  0.00    +0.000 A 
ATOM     31  C   UNL     1       2.831   7.338  18.427  0.00  0.00    +0.000 A 
ATOM     32  N   UNL     1       3.403   6.405  17.581  0.00  0.00    +0.000 NA
ATOM     33  C   UNL     1       3.356   5.182  17.985  0.00  0.00    +0.000 A 
ATOM     34  S   UNL     1       4.009   3.843  17.102  0.00  0.00    +0.000 S 
ENDBRANCH  23  31
ENDBRANCH  22  23
ENDBRANCH   1  22
TORSDOF 7
ENDMDL
MODEL 4
REMARK VINA RESULT:      -7.8      3.630     12.469
REMARK  Name = 
REMARK  9 active torsions:
REMARK  status: ('A' for Active; 'I' for Inactive)
REMARK    1  A    between atoms: C_1  and  C_2
REMARK    2  A    between atoms: C_8  and  C_9
REMARK    3  A    between atoms: C_9  and  O_10
REMARK    4  A    between atoms: O_10  and  C_11
REMARK    5  A    between atoms: C_14  and  C_15
REMARK    6  A    between atoms: C_16  and  C_17
REMARK    7  A    between atoms: C_16  and  C_19
REMARK    8  A    between atoms: N_21  and  C_22
REMARK    9  A    between atoms: C_27  and  C_28
REMARK                            x       y       z     vdW  Elec       q    Type
REMARK                         _______ _______ _______ _____ _____    ______ ____
ROOT
ATOM      1  C   UNL     1       0.884   9.110  21.013  0.00  0.00    +0.000 A 
ATOM      2  C   UNL     1       0.655   9.135  22.389  0.00  0.00    +0.000 A 
ATOM      3  C   UNL     1      -0.263  10.034  22.940  0.00  0.00    +0.000 A 
ATOM      4  C   UNL     1      -0.941  10.947  22.128  0.00  0.00    +0.000 A 
ATOM      5  C   UNL     1      -0.654  10.970  20.756  0.00  0.00    +0.000 A 
ATOM      6  C   UNL     1       0.249  10.052  20.201  0.00  0.00    +0.000 A 
ENDROOT
BRANCH   4   7
ATOM      7  C   UNL     1      -1.974  11.829  22.707  0.00  0.00    +0.000 C 
ATOM      8  C   UNL     1      -1.840  13.147  22.998  0.00  0.00    +0.000 C 
BRANCH   8   9
ATOM      9  C   UNL     1      -3.032  13.883  23.474  0.00  0.00    +0.000 C 
ATOM     10  O   UNL     1      -3.002  14.324  24.623  0.00  0.00    +0.000 OA
ATOM     11  N   UNL     1      -4.111  13.966  22.612  0.00  0.00    +0.000 N 
ATOM     12  H   UNL     1      -4.111  13.426  21.756  0.00  0.00    +0.000 HD
BRANCH  11  13
ATOM     13  C   UNL     1      -5.305  14.687  22.900  0.00  0.00    +0.000 A 
ATOM     14  C   UNL     1      -5.446  16.027  22.504  0.00  0.00    +0.000 A 
ATOM     15  C   UNL     1      -6.593  16.762  22.783  0.00  0.00    +0.000 A 
ATOM     16  C   UNL     1      -7.642  16.159  23.450  0.00  0.00    +0.000 A 
ATOM     17  C   UNL     1      -7.540  14.823  23.835  0.00  0.00    +0.000 A 
ATOM     18  C   UNL     1      -6.377  14.068  23.575  0.00  0.00    +0.000 A 
ATOM     19  C   UNL     1      -6.351  12.641  24.048  0.00  0.00    +0.000 C 
ENDBRANCH  11  13
ENDBRANCH   8   9
BRANCH   8  20
ATOM     20  C   UNL     1      -0.502  13.790  22.668  0.00  0.00    +0.000 C 
ATOM     21  N   UNL     1       0.606  14.323  22.395  0.00  0.00    +0.000 NA
ENDBRANCH   8  20
ENDBRANCH   4   7
BRANCH   1  22
ATOM     22  O   UNL     1       1.699   8.211  20.380  0.00  0.00    +0.000 OA
BRANCH  22  23
ATOM     23  C   UNL     1       1.607   6.871  20.879  0.00  0.00    +0.000 C 
BRANCH  23  31
ATOM     24  C   UNL     1       5.803   3.985  15.428  0.00  0.00    +0.000 C 
ATOM     25  C   UNL     1       4.905   4.381  16.544  0.00  0.00    +0.000 A 
ATOM     26  N   UNL     1       4.210   3.540  17.243  0.00  0.00    +0.000 NA
ATOM     27  N   UNL     1       3.502   4.248  18.177  0.00  0.00    +0.000 N 
ATOM     28  C   UNL     1       2.667   3.623  19.067  0.00  0.00    +0.000 A 
ATOM     29  O   UNL     1       2.449   2.419  19.152  0.00  0.00    +0.000 OA
ATOM     30  C   UNL     1       1.994   4.552  20.000  0.00  0.00    +0.000 A 
ATOM     31  C   UNL     1       2.232   5.873  19.920  0.00  0.00    +0.000 A 
ATOM     32  N   UNL     1       3.084   6.436  18.987  0.00  0.00    +0.000 NA
ATOM     33  C   UNL     1       3.660   5.608  18.186  0.00  0.00    +0.000 A 
ATOM     34  S   UNL     1       4.771   6.075  16.942  0.00  0.00    +0.000 S 
ENDBRANCH  23  31
ENDBRANCH  22  23
ENDBRANCH   1  22
TORSDOF 7
ENDMDL
MODEL 5
REMARK VINA RESULT:      -7.7      4.180     12.195
REMARK  Name = 
REMARK  9 active torsions:
REMARK  status: ('A' for Active; 'I' for Inactive)
REMARK    1  A    between atoms: C_1  and  C_2
REMARK    2  A    between atoms: C_8  and  C_9
REMARK    3  A    between atoms: C_9  and  O_10
REMARK    4  A    between atoms: O_10  and  C_11
REMARK    5  A    between atoms: C_14  and  C_15
REMARK    6  A    between atoms: C_16  and  C_17
REMARK    7  A    between atoms: C_16  and  C_19
REMARK    8  A    between atoms: N_21  and  C_22
REMARK    9  A    between atoms: C_27  and  C_28
REMARK                            x       y       z     vdW  Elec       q    Type
REMARK                         _______ _______ _______ _____ _____    ______ ____
ROOT
ATOM      1  C   UNL     1       2.463   5.170  19.040  0.00  0.00    +0.000 A 
ATOM      2  C   UNL     1       2.698   6.416  18.459  0.00  0.00    +0.000 A 
ATOM      3  C   UNL     1       2.289   7.588  19.103  0.00  0.00    +0.000 A 
ATOM      4  C   UNL     1       1.608   7.530  20.321  0.00  0.00    +0.000 A 
ATOM      5  C   UNL     1       1.307   6.274  20.866  0.00  0.00    +0.000 A 
ATOM      6  C   UNL     1       1.738   5.101  20.232  0.00  0.00    +0.000 A 
ENDROOT
BRANCH   4   7
ATOM      7  C   UNL     1       1.262   8.775  21.036  0.00  0.00    +0.000 C 
ATOM      8  C   UNL     1       0.651   9.866  20.510  0.00  0.00    +0.000 C 
BRANCH   8   9
ATOM      9  C   UNL     1       0.292  10.975  21.422  0.00  0.00    +0.000 C 
ATOM     10  O   UNL     1       0.515  10.813  22.623  0.00  0.00    +0.000 OA
ATOM     11  N   UNL     1      -0.322  12.081  20.863  0.00  0.00    +0.000 N 
ATOM     12  H   UNL     1      -0.622  12.053  19.896  0.00  0.00    +0.000 HD
BRANCH  11  13
ATOM     13  C   UNL     1      -0.675  13.250  21.596  0.00  0.00    +0.000 A 
ATOM     14  C   UNL     1       0.308  14.173  21.989  0.00  0.00    +0.000 A 
ATOM     15  C   UNL     1      -0.003  15.316  22.718  0.00  0.00    +0.000 A 
ATOM     16  C   UNL     1      -1.318  15.573  23.051  0.00  0.00    +0.000 A 
ATOM     17  C   UNL     1      -2.319  14.686  22.655  0.00  0.00    +0.000 A 
ATOM     18  C   UNL     1      -2.019  13.515  21.930  0.00  0.00    +0.000 A 
ATOM     19  C   UNL     1      -3.162  12.607  21.567  0.00  0.00    +0.000 C 
ENDBRANCH  11  13
ENDBRANCH   8   9
BRANCH   8  20
ATOM     20  C   UNL     1       0.256   9.791  19.044  0.00  0.00    +0.000 C 
ATOM     21  N   UNL     1      -0.070   9.729  17.828  0.00  0.00    +0.000 NA
ENDBRANCH   8  20
ENDBRANCH   4   7
BRANCH   1  22
ATOM     22  O   UNL     1       2.900   3.980  18.523  0.00  0.00    +0.000 OA
BRANCH  22  23
ATOM     23  C   UNL     1       4.240   3.628  18.890  0.00  0.00    +0.000 C 
BRANCH  23  31
ATOM     24  C   UNL     1       7.804   5.237  12.537  0.00  0.00    +0.000 C 
ATOM     25  C   UNL     1       7.226   5.024  13.890  0.00  0.00    +0.000 A 
ATOM     26  N   UNL     1       7.678   5.591  14.964  0.00  0.00    +0.000 NA
ATOM     27  N   UNL     1       6.914   5.171  16.019  0.00  0.00    +0.000 N 
ATOM     28  C   UNL     1       7.158   5.603  17.296  0.00  0.00    +0.000 A 
ATOM     29  O   UNL     1       8.037   6.380  17.656  0.00  0.00    +0.000 OA
ATOM     30  C   UNL     1       6.226   5.045  18.299  0.00  0.00    +0.000 A 
ATOM     31  C   UNL     1       5.255   4.198  17.915  0.00  0.00    +0.000 A 
ATOM     32  N   UNL     1       5.072   3.797  16.604  0.00  0.00    +0.000 NA
ATOM     33  C   UNL     1       5.895   4.298  15.747  0.00  0.00    +0.000 A 
ATOM     34  S   UNL     1       5.860   3.949  14.051  0.00  0.00    +0.000 S 
ENDBRANCH  23  31
ENDBRANCH  22  23
ENDBRANCH   1  22
TORSDOF 7
ENDMDL
MODEL 6
REMARK VINA RESULT:      -7.6      2.772      3.984
REMARK  Name = 
REMARK  9 active torsions:
REMARK  status: ('A' for Active; 'I' for Inactive)
REMARK    1  A    between atoms: C_1  and  C_2
REMARK    2  A    between atoms: C_8  and  C_9
REMARK    3  A    between atoms: C_9  and  O_10
REMARK    4  A    between atoms: O_10  and  C_11
REMARK    5  A    between atoms: C_14  and  C_15
REMARK    6  A    between atoms: C_16  and  C_17
REMARK    7  A    between atoms: C_16  and  C_19
REMARK    8  A    between atoms: N_21  and  C_22
REMARK    9  A    between atoms: C_27  and  C_28
REMARK                            x       y       z     vdW  Elec       q    Type
REMARK                         _______ _______ _______ _____ _____    ______ ____
ROOT
ATOM      1  C   UNL     1      -0.149  10.060  22.565  0.00  0.00    +0.000 A 
ATOM      2  C   UNL     1       1.205  10.254  22.293  0.00  0.00    +0.000 A 
ATOM      3  C   UNL     1       1.915   9.326  21.525  0.00  0.00    +0.000 A 
ATOM      4  C   UNL     1       1.291   8.172  21.046  0.00  0.00    +0.000 A 
ATOM      5  C   UNL     1      -0.051   7.943  21.383  0.00  0.00    +0.000 A 
ATOM      6  C   UNL     1      -0.768   8.886  22.133  0.00  0.00    +0.000 A 
ENDROOT
BRANCH   4   7
ATOM      7  C   UNL     1       2.025   7.245  20.161  0.00  0.00    +0.000 C 
ATOM      8  C   UNL     1       2.336   7.449  18.857  0.00  0.00    +0.000 C 
BRANCH   8   9
ATOM      9  C   UNL     1       3.174   6.441  18.172  0.00  0.00    +0.000 C 
ATOM     10  O   UNL     1       2.746   5.286  18.127  0.00  0.00    +0.000 OA
ATOM     11  N   UNL     1       4.401   6.860  17.689  0.00  0.00    +0.000 N 
ATOM     12  H   UNL     1       4.743   7.783  17.923  0.00  0.00    +0.000 HD
BRANCH  11  13
ATOM     13  C   UNL     1       5.295   6.026  16.957  0.00  0.00    +0.000 A 
ATOM     14  C   UNL     1       5.163   5.881  15.566  0.00  0.00    +0.000 A 
ATOM     15  C   UNL     1       6.010   5.063  14.827  0.00  0.00    +0.000 A 
ATOM     16  C   UNL     1       7.030   4.386  15.466  0.00  0.00    +0.000 A 
ATOM     17  C   UNL     1       7.200   4.528  16.843  0.00  0.00    +0.000 A 
ATOM     18  C   UNL     1       6.339   5.340  17.609  0.00  0.00    +0.000 A 
ATOM     19  C   UNL     1       6.587   5.414  19.092  0.00  0.00    +0.000 C 
ENDBRANCH  11  13
ENDBRANCH   8   9
BRANCH   8  20
ATOM     20  C   UNL     1       1.913   8.777  18.250  0.00  0.00    +0.000 C 
ATOM     21  N   UNL     1       1.562   9.878  17.747  0.00  0.00    +0.000 NA
ENDBRANCH   8  20
ENDBRANCH   4   7
BRANCH   1  22
ATOM     22  O   UNL     1      -0.939  10.955  23.235  0.00  0.00    +0.000 OA
BRANCH  22  23
ATOM     23  C   UNL     1      -1.036  12.244  22.615  0.00  0.00    +0.000 C 
BRANCH  23  31
ATOM     24  C   UNL     1      -4.054  11.115  15.887  0.00  0.00    +0.000 C 
ATOM     25  C   UNL     1      -3.621  11.418  17.276  0.00  0.00    +0.000 A 
ATOM     26  N   UNL     1      -4.397  11.931  18.177  0.00  0.00    +0.000 NA
ATOM     27  N   UNL     1      -3.673  12.074  19.329  0.00  0.00    +0.000 N 
ATOM     28  C   UNL     1      -4.232  12.600  20.466  0.00  0.00    +0.000 A 
ATOM     29  O   UNL     1      -5.386  12.990  20.607  0.00  0.00    +0.000 OA
ATOM     30  C   UNL     1      -3.295  12.671  21.608  0.00  0.00    +0.000 A 
ATOM     31  C   UNL     1      -2.030  12.239  21.467  0.00  0.00    +0.000 A 
ATOM     32  N   UNL     1      -1.530  11.727  20.283  0.00  0.00    +0.000 NA
ATOM     33  C   UNL     1      -2.364  11.673  19.302  0.00  0.00    +0.000 A 
ATOM     34  S   UNL     1      -1.972  11.067  17.728  0.00  0.00    +0.000 S 
ENDBRANCH  23  31
ENDBRANCH  22  23
ENDBRANCH   1  22
TORSDOF 7
ENDMDL
MODEL 7
REMARK VINA RESULT:      -7.6      4.449     11.777
REMARK  Name = 
REMARK  9 active torsions:
REMARK  status: ('A' for Active; 'I' for Inactive)
REMARK    1  A    between atoms: C_1  and  C_2
REMARK    2  A    between atoms: C_8  and  C_9
REMARK    3  A    between atoms: C_9  and  O_10
REMARK    4  A    between atoms: O_10  and  C_11
REMARK    5  A    between atoms: C_14  and  C_15
REMARK    6  A    between atoms: C_16  and  C_17
REMARK    7  A    between atoms: C_16  and  C_19
REMARK    8  A    between atoms: N_21  and  C_22
REMARK    9  A    between atoms: C_27  and  C_28
REMARK                            x       y       z     vdW  Elec       q    Type
REMARK                         _______ _______ _______ _____ _____    ______ ____
ROOT
ATOM      1  C   UNL     1       2.389   5.353  18.861  0.00  0.00    +0.000 A 
ATOM      2  C   UNL     1       2.301   5.871  20.153  0.00  0.00    +0.000 A 
ATOM      3  C   UNL     1       2.085   7.237  20.356  0.00  0.00    +0.000 A 
ATOM      4  C   UNL     1       1.989   8.112  19.271  0.00  0.00    +0.000 A 
ATOM      5  C   UNL     1       2.152   7.600  17.976  0.00  0.00    +0.000 A 
ATOM      6  C   UNL     1       2.344   6.226  17.773  0.00  0.00    +0.000 A 
ENDROOT
BRANCH   4   7
ATOM      7  C   UNL     1       1.671   9.537  19.494  0.00  0.00    +0.000 C 
ATOM      8  C   UNL     1       0.727  10.033  20.333  0.00  0.00    +0.000 C 
BRANCH   8   9
ATOM      9  C   UNL     1       0.637  11.501  20.495  0.00  0.00    +0.000 C 
ATOM     10  O   UNL     1       0.851  11.959  21.619  0.00  0.00    +0.000 OA
ATOM     11  N   UNL     1       0.261  12.238  19.387  0.00  0.00    +0.000 N 
ATOM     12  H   UNL     1      -0.062  11.762  18.555  0.00  0.00    +0.000 HD
BRANCH  11  13
ATOM     13  C   UNL     1       0.185  13.660  19.367  0.00  0.00    +0.000 A 
ATOM     14  C   UNL     1       1.236  14.426  18.835  0.00  0.00    +0.000 A 
ATOM     15  C   UNL     1       1.198  15.816  18.814  0.00  0.00    +0.000 A 
ATOM     16  C   UNL     1       0.089  16.474  19.308  0.00  0.00    +0.000 A 
ATOM     17  C   UNL     1      -0.980  15.740  19.822  0.00  0.00    +0.000 A 
ATOM     18  C   UNL     1      -0.950  14.331  19.865  0.00  0.00    +0.000 A 
ATOM     19  C   UNL     1      -2.140  13.626  20.458  0.00  0.00    +0.000 C 
ENDBRANCH  11  13
ENDBRANCH   8   9
BRANCH   8  20
ATOM     20  C   UNL     1      -0.064   9.024  21.149  0.00  0.00    +0.000 C 
ATOM     21  N   UNL     1      -0.720   8.186  21.825  0.00  0.00    +0.000 NA
ENDBRANCH   8  20
ENDBRANCH   4   7
BRANCH   1  22
ATOM     22  O   UNL     1       2.515   4.021  18.568  0.00  0.00    +0.000 OA
BRANCH  22  23
ATOM     23  C   UNL     1       3.792   3.459  18.896  0.00  0.00    +0.000 C 
BRANCH  23  31
ATOM     24  C   UNL     1       7.905   5.263  12.940  0.00  0.00    +0.000 C 
ATOM     25  C   UNL     1       7.213   5.004  14.230  0.00  0.00    +0.000 A 
ATOM     26  N   UNL     1       7.591   5.503  15.364  0.00  0.00    +0.000 NA
ATOM     27  N   UNL     1       6.732   5.056  16.331  0.00  0.00    +0.000 N 
ATOM     28  C   UNL     1       6.883   5.417  17.645  0.00  0.00    +0.000 A 
ATOM     29  O   UNL     1       7.750   6.148  18.113  0.00  0.00    +0.000 OA
ATOM     30  C   UNL     1       5.857   4.840  18.539  0.00  0.00    +0.000 A 
ATOM     31  C   UNL     1       4.898   4.044  18.036  0.00  0.00    +0.000 A 
ATOM     32  N   UNL     1       4.812   3.712  16.695  0.00  0.00    +0.000 NA
ATOM     33  C   UNL     1       5.716   4.229  15.934  0.00  0.00    +0.000 A 
ATOM     34  S   UNL     1       5.810   3.965  14.225  0.00  0.00    +0.000 S 
ENDBRANCH  23  31
ENDBRANCH  22  23
ENDBRANCH   1  22
TORSDOF 7
ENDMDL
MODEL 8
REMARK VINA RESULT:      -7.6      4.525     11.784
REMARK  Name = 
REMARK  9 active torsions:
REMARK  status: ('A' for Active; 'I' for Inactive)
REMARK    1  A    between atoms: C_1  and  C_2
REMARK    2  A    between atoms: C_8  and  C_9
REMARK    3  A    between atoms: C_9  and  O_10
REMARK    4  A    between atoms: O_10  and  C_11
REMARK    5  A    between atoms: C_14  and  C_15
REMARK    6  A    between atoms: C_16  and  C_17
REMARK    7  A    between atoms: C_16  and  C_19
REMARK    8  A    between atoms: N_21  and  C_22
REMARK    9  A    between atoms: C_27  and  C_28
REMARK                            x       y       z     vdW  Elec       q    Type
REMARK                         _______ _______ _______ _____ _____    ______ ____
ROOT
ATOM      1  C   UNL     1       2.143   6.724  19.047  0.00  0.00    +0.000 A 
ATOM      2  C   UNL     1       1.705   7.234  20.269  0.00  0.00    +0.000 A 
ATOM      3  C   UNL     1       1.349   8.581  20.388  0.00  0.00    +0.000 A 
ATOM      4  C   UNL     1       1.459   9.447  19.298  0.00  0.00    +0.000 A 
ATOM      5  C   UNL     1       1.970   8.948  18.091  0.00  0.00    +0.000 A 
ATOM      6  C   UNL     1       2.304   7.592  17.965  0.00  0.00    +0.000 A 
ENDROOT
BRANCH   4   7
ATOM      7  C   UNL     1       0.994  10.844  19.410  0.00  0.00    +0.000 C 
ATOM      8  C   UNL     1      -0.116  11.376  18.840  0.00  0.00    +0.000 C 
BRANCH   8   9
ATOM      9  C   UNL     1      -0.466  12.775  19.164  0.00  0.00    +0.000 C 
ATOM     10  O   UNL     1      -1.632  13.005  19.490  0.00  0.00    +0.000 OA
ATOM     11  N   UNL     1       0.526  13.728  19.017  0.00  0.00    +0.000 N 
ATOM     12  H   UNL     1       1.402  13.474  18.578  0.00  0.00    +0.000 HD
BRANCH  11  13
ATOM     13  C   UNL     1       0.363  15.104  19.343  0.00  0.00    +0.000 A 
ATOM     14  C   UNL     1      -0.247  15.988  18.437  0.00  0.00    +0.000 A 
ATOM     15  C   UNL     1      -0.407  17.340  18.720  0.00  0.00    +0.000 A 
ATOM     16  C   UNL     1       0.022  17.836  19.936  0.00  0.00    +0.000 A 
ATOM     17  C   UNL     1       0.610  16.978  20.865  0.00  0.00    +0.000 A 
ATOM     18  C   UNL     1       0.795  15.608  20.586  0.00  0.00    +0.000 A 
ATOM     19  C   UNL     1       1.460  14.766  21.641  0.00  0.00    +0.000 C 
ENDBRANCH  11  13
ENDBRANCH   8   9
BRANCH   8  20
ATOM     20  C   UNL     1      -0.987  10.433  18.025  0.00  0.00    +0.000 C 
ATOM     21  N   UNL     1      -1.709   9.651  17.351  0.00  0.00    +0.000 NA
ENDBRANCH   8  20
ENDBRANCH   4   7
BRANCH   1  22
ATOM     22  O   UNL     1       2.432   5.406  18.818  0.00  0.00    +0.000 OA
BRANCH  22  23
ATOM     23  C   UNL     1       3.684   4.968  19.362  0.00  0.00    +0.000 C 
BRANCH  23  31
ATOM     24  C   UNL     1       7.653   4.909  13.046  0.00  0.00    +0.000 C 
ATOM     25  C   UNL     1       7.014   5.007  14.384  0.00  0.00    +0.000 A 
ATOM     26  N   UNL     1       7.560   5.592  15.403  0.00  0.00    +0.000 NA
ATOM     27  N   UNL     1       6.699   5.492  16.461  0.00  0.00    +0.000 N 
ATOM     28  C   UNL     1       7.008   6.020  17.688  0.00  0.00    +0.000 A 
ATOM     29  O   UNL     1       8.033   6.621  17.995  0.00  0.00    +0.000 OA
ATOM     30  C   UNL     1       5.953   5.817  18.703  0.00  0.00    +0.000 A 
ATOM     31  C   UNL     1       4.822   5.167  18.376  0.00  0.00    +0.000 A 
ATOM     32  N   UNL     1       4.581   4.650  17.116  0.00  0.00    +0.000 NA
ATOM     33  C   UNL     1       5.514   4.841  16.247  0.00  0.00    +0.000 A 
ATOM     34  S   UNL     1       5.436   4.293  14.606  0.00  0.00    +0.000 S 
ENDBRANCH  23  31
ENDBRANCH  22  23
ENDBRANCH   1  22
TORSDOF 7
ENDMDL
MODEL 9
REMARK VINA RESULT:      -7.6      4.713     11.585
REMARK  Name = 
REMARK  9 active torsions:
REMARK  status: ('A' for Active; 'I' for Inactive)
REMARK    1  A    between atoms: C_1  and  C_2
REMARK    2  A    between atoms: C_8  and  C_9
REMARK    3  A    between atoms: C_9  and  O_10
REMARK    4  A    between atoms: O_10  and  C_11
REMARK    5  A    between atoms: C_14  and  C_15
REMARK    6  A    between atoms: C_16  and  C_17
REMARK    7  A    between atoms: C_16  and  C_19
REMARK    8  A    between atoms: N_21  and  C_22
REMARK    9  A    between atoms: C_27  and  C_28
REMARK                            x       y       z     vdW  Elec       q    Type
REMARK                         _______ _______ _______ _____ _____    ______ ____
ROOT
ATOM      1  C   UNL     1       2.255   6.326  19.077  0.00  0.00    +0.000 A 
ATOM      2  C   UNL     1       2.302   7.050  17.886  0.00  0.00    +0.000 A 
ATOM      3  C   UNL     1       2.026   8.421  17.877  0.00  0.00    +0.000 A 
ATOM      4  C   UNL     1       1.666   9.082  19.054  0.00  0.00    +0.000 A 
ATOM      5  C   UNL     1       1.547   8.337  20.236  0.00  0.00    +0.000 A 
ATOM      6  C   UNL     1       1.847   6.967  20.248  0.00  0.00    +0.000 A 
ENDROOT
BRANCH   4   7
ATOM      7  C   UNL     1       1.466  10.545  19.051  0.00  0.00    +0.000 C 
ATOM      8  C   UNL     1       0.369  11.210  18.610  0.00  0.00    +0.000 C 
BRANCH   8   9
ATOM      9  C   UNL     1       0.319  12.677  18.793  0.00  0.00    +0.000 C 
ATOM     10  O   UNL     1      -0.707  13.257  18.435  0.00  0.00    +0.000 OA
ATOM     11  N   UNL     1       1.452  13.291  19.297  0.00  0.00    +0.000 N 
ATOM     12  H   UNL     1       2.306  12.758  19.401  0.00  0.00    +0.000 HD
BRANCH  11  13
ATOM     13  C   UNL     1       1.541  14.683  19.584  0.00  0.00    +0.000 A 
ATOM     14  C   UNL     1       2.072  15.577  18.640  0.00  0.00    +0.000 A 
ATOM     15  C   UNL     1       2.186  16.939  18.897  0.00  0.00    +0.000 A 
ATOM     16  C   UNL     1       1.746  17.443  20.105  0.00  0.00    +0.000 A 
ATOM     17  C   UNL     1       1.193  16.582  21.054  0.00  0.00    +0.000 A 
ATOM     18  C   UNL     1       1.085  15.197  20.816  0.00  0.00    +0.000 A 
ATOM     19  C   UNL     1       0.496  14.345  21.907  0.00  0.00    +0.000 C 
ENDBRANCH  11  13
ENDBRANCH   8   9
BRANCH   8  20
ATOM     20  C   UNL     1      -0.784  10.364  18.093  0.00  0.00    +0.000 C 
ATOM     21  N   UNL     1      -1.739   9.663  17.664  0.00  0.00    +0.000 NA
ENDBRANCH   8  20
ENDBRANCH   4   7
BRANCH   1  22
ATOM     22  O   UNL     1       2.589   5.003  19.192  0.00  0.00    +0.000 OA
BRANCH  22  23
ATOM     23  C   UNL     1       3.902   4.765  19.716  0.00  0.00    +0.000 C 
BRANCH  23  31
ATOM     24  C   UNL     1       7.616   4.940  13.248  0.00  0.00    +0.000 C 
ATOM     25  C   UNL     1       7.021   5.008  14.609  0.00  0.00    +0.000 A 
ATOM     26  N   UNL     1       7.547   5.666  15.594  0.00  0.00    +0.000 NA
ATOM     27  N   UNL     1       6.740   5.508  16.688  0.00  0.00    +0.000 N 
ATOM     28  C   UNL     1       7.043   6.092  17.891  0.00  0.00    +0.000 A 
ATOM     29  O   UNL     1       8.016   6.795  18.145  0.00  0.00    +0.000 OA
ATOM     30  C   UNL     1       6.051   5.812  18.951  0.00  0.00    +0.000 A 
ATOM     31  C   UNL     1       4.977   5.049  18.682  0.00  0.00    +0.000 A 
ATOM     32  N   UNL     1       4.739   4.483  17.443  0.00  0.00    +0.000 NA
ATOM     33  C   UNL     1       5.616   4.742  16.534  0.00  0.00    +0.000 A 
ATOM     34  S   UNL     1       5.529   4.152  14.907  0.00  0.00    +0.000 S 
ENDBRANCH  23  31
ENDBRANCH  22  23
ENDBRANCH   1  22
TORSDOF 7
ENDMDL
