MODEL 1
REMARK VINA RESULT:      -6.9      0.000      0.000
REMARK  Name = 
REMARK  2 active torsions:
REMARK  status: ('A' for Active; 'I' for Inactive)
REMARK    1  A    between atoms: C_1  and  N_2
REMARK    2  A    between atoms: C_3  and  C_4
REMARK                            x       y       z     vdW  Elec       q    Type
REMARK                         _______ _______ _______ _____ _____    ______ ____
ROOT
ATOM      1  C   UNL     1       2.588   8.683  17.890  0.00  0.00    +0.000 C 
ATOM      2  N   UNL     1       2.343   7.694  18.906  0.00  0.00    +0.000 N 
ATOM      3  C   UNL     1       2.854   6.401  18.933  0.00  0.00    +0.000 A 
ATOM      4  N   UNL     1       2.406   5.815  20.027  0.00  0.00    +0.000 NA
ATOM      5  N   UNL     1       1.697   6.732  20.751  0.00  0.00    +0.000 NA
ATOM      6  C   UNL     1       1.638   7.869  20.087  0.00  0.00    +0.000 A 
ATOM      7  N   UNL     1       1.051   9.026  20.537  0.00  0.00    +0.000 N 
ATOM      8  C   UNL     1       1.165   9.301  21.978  0.00  0.00    +0.000 C 
ATOM      9  C   UNL     1      -0.114   9.851  22.610  0.00  0.00    +0.000 C 
ATOM     10  C   UNL     1      -0.429  11.262  22.131  0.00  0.00    +0.000 C 
ATOM     11  O   UNL     1      -1.222  11.338  20.953  0.00  0.00    +0.000 OA
ATOM     12  C   UNL     1      -0.977  10.346  19.963  0.00  0.00    +0.000 C 
ATOM     13  C   UNL     1       0.501  10.070  19.676  0.00  0.00    +0.000 C 
ENDROOT
BRANCH   3  14
ATOM     14  C   UNL     1       3.704   5.756  17.924  0.00  0.00    +0.000 A 
ATOM     15  C   UNL     1       4.759   6.428  17.290  0.00  0.00    +0.000 A 
ATOM     16  C   UNL     1       5.480   5.831  16.255  0.00  0.00    +0.000 A 
ATOM     17  C   UNL     1       5.217   4.513  15.899  0.00  0.00    +0.000 A 
ATOM     18  C   UNL     1       4.239   3.794  16.583  0.00  0.00    +0.000 A 
ATOM     19  C   UNL     1       3.481   4.413  17.583  0.00  0.00    +0.000 A 
ENDBRANCH   3  14
TORSDOF 1
ENDMDL
MODEL 2
REMARK VINA RESULT:      -6.8      2.947      6.517
REMARK  Name = 
REMARK  2 active torsions:
REMARK  status: ('A' for Active; 'I' for Inactive)
REMARK    1  A    between atoms: C_1  and  N_2
REMARK    2  A    between atoms: C_3  and  C_4
REMARK                            x       y       z     vdW  Elec       q    Type
REMARK                         _______ _______ _______ _____ _____    ______ ____
ROOT
ATOM      1  C   UNL     1       2.036   8.586  17.742  0.00  0.00    +0.000 C 
ATOM      2  N   UNL     1       1.671   8.605  19.133  0.00  0.00    +0.000 N 
ATOM      3  C   UNL     1       1.015   9.637  19.796  0.00  0.00    +0.000 A 
ATOM      4  N   UNL     1       0.856   9.269  21.053  0.00  0.00    +0.000 NA
ATOM      5  N   UNL     1       1.311   7.988  21.192  0.00  0.00    +0.000 NA
ATOM      6  C   UNL     1       1.817   7.573  20.048  0.00  0.00    +0.000 A 
ATOM      7  N   UNL     1       2.315   6.317  19.805  0.00  0.00    +0.000 N 
ATOM      8  C   UNL     1       1.634   5.200  20.478  0.00  0.00    +0.000 C 
ATOM      9  C   UNL     1       2.582   4.138  21.037  0.00  0.00    +0.000 C 
ATOM     10  C   UNL     1       3.277   3.352  19.933  0.00  0.00    +0.000 C 
ATOM     11  O   UNL     1       4.501   3.908  19.471  0.00  0.00    +0.000 OA
ATOM     12  C   UNL     1       4.563   5.328  19.407  0.00  0.00    +0.000 C 
ATOM     13  C   UNL     1       3.329   6.004  18.801  0.00  0.00    +0.000 C 
ENDROOT
BRANCH   3  14
ATOM     14  C   UNL     1       0.597  10.931  19.241  0.00  0.00    +0.000 A 
ATOM     15  C   UNL     1       1.472  12.022  19.139  0.00  0.00    +0.000 A 
ATOM     16  C   UNL     1       1.022  13.273  18.714  0.00  0.00    +0.000 A 
ATOM     17  C   UNL     1      -0.295  13.430  18.295  0.00  0.00    +0.000 A 
ATOM     18  C   UNL     1      -1.155  12.334  18.296  0.00  0.00    +0.000 A 
ATOM     19  C   UNL     1      -0.716  11.095  18.773  0.00  0.00    +0.000 A 
ENDBRANCH   3  14
TORSDOF 1
ENDMDL
MODEL 3
REMARK VINA RESULT:      -6.8      0.263      1.115
REMARK  Name = 
REMARK  2 active torsions:
REMARK  status: ('A' for Active; 'I' for Inactive)
REMARK    1  A    between atoms: C_1  and  N_2
REMARK    2  A    between atoms: C_3  and  C_4
REMARK                            x       y       z     vdW  Elec       q    Type
REMARK                         _______ _______ _______ _____ _____    ______ ____
ROOT
ATOM      1  C   UNL     1       2.606   8.546  17.917  0.00  0.00    +0.000 C 
ATOM      2  N   UNL     1       2.334   7.603  18.969  0.00  0.00    +0.000 N 
ATOM      3  C   UNL     1       2.819   6.303  19.051  0.00  0.00    +0.000 A 
ATOM      4  N   UNL     1       2.351   5.770  20.164  0.00  0.00    +0.000 NA
ATOM      5  N   UNL     1       1.654   6.728  20.845  0.00  0.00    +0.000 NA
ATOM      6  C   UNL     1       1.622   7.838  20.136  0.00  0.00    +0.000 A 
ATOM      7  N   UNL     1       1.056   9.024  20.535  0.00  0.00    +0.000 N 
ATOM      8  C   UNL     1       1.164   9.354  21.964  0.00  0.00    +0.000 C 
ATOM      9  C   UNL     1      -0.109   9.954  22.563  0.00  0.00    +0.000 C 
ATOM     10  C   UNL     1      -0.393  11.350  22.026  0.00  0.00    +0.000 C 
ATOM     11  O   UNL     1      -1.174  11.395  20.839  0.00  0.00    +0.000 OA
ATOM     12  C   UNL     1      -0.941  10.360  19.892  0.00  0.00    +0.000 C 
ATOM     13  C   UNL     1       0.534  10.043  19.628  0.00  0.00    +0.000 C 
ENDROOT
BRANCH   3  14
ATOM     14  C   UNL     1       3.664   5.602  18.076  0.00  0.00    +0.000 A 
ATOM     15  C   UNL     1       3.283   4.386  17.488  0.00  0.00    +0.000 A 
ATOM     16  C   UNL     1       4.151   3.683  16.652  0.00  0.00    +0.000 A 
ATOM     17  C   UNL     1       5.384   4.231  16.316  0.00  0.00    +0.000 A 
ATOM     18  C   UNL     1       5.742   5.483  16.811  0.00  0.00    +0.000 A 
ATOM     19  C   UNL     1       4.892   6.160  17.692  0.00  0.00    +0.000 A 
ENDBRANCH   3  14
TORSDOF 1
ENDMDL
MODEL 4
REMARK VINA RESULT:      -6.8      2.927      6.610
REMARK  Name = 
REMARK  2 active torsions:
REMARK  status: ('A' for Active; 'I' for Inactive)
REMARK    1  A    between atoms: C_1  and  N_2
REMARK    2  A    between atoms: C_3  and  C_4
REMARK                            x       y       z     vdW  Elec       q    Type
REMARK                         _______ _______ _______ _____ _____    ______ ____
ROOT
ATOM      1  C   UNL     1       2.046   8.692  17.805  0.00  0.00    +0.000 C 
ATOM      2  N   UNL     1       1.644   8.632  19.185  0.00  0.00    +0.000 N 
ATOM      3  C   UNL     1       0.940   9.612  19.877  0.00  0.00    +0.000 A 
ATOM      4  N   UNL     1       0.759   9.179  21.111  0.00  0.00    +0.000 NA
ATOM      5  N   UNL     1       1.247   7.906  21.201  0.00  0.00    +0.000 NA
ATOM      6  C   UNL     1       1.795   7.561  20.053  0.00  0.00    +0.000 A 
ATOM      7  N   UNL     1       2.336   6.333  19.764  0.00  0.00    +0.000 N 
ATOM      8  C   UNL     1       1.670   5.166  20.363  0.00  0.00    +0.000 C 
ATOM      9  C   UNL     1       2.633   4.104  20.896  0.00  0.00    +0.000 C 
ATOM     10  C   UNL     1       3.379   3.392  19.775  0.00  0.00    +0.000 C 
ATOM     11  O   UNL     1       4.598   4.005  19.376  0.00  0.00    +0.000 OA
ATOM     12  C   UNL     1       4.621   5.427  19.382  0.00  0.00    +0.000 C 
ATOM     13  C   UNL     1       3.385   6.097  18.775  0.00  0.00    +0.000 C 
ENDROOT
BRANCH   3  14
ATOM     14  C   UNL     1       0.500  10.919  19.374  0.00  0.00    +0.000 A 
ATOM     15  C   UNL     1      -0.808  11.149  18.924  0.00  0.00    +0.000 A 
ATOM     16  C   UNL     1      -1.172  12.366  18.345  0.00  0.00    +0.000 A 
ATOM     17  C   UNL     1      -0.253  13.408  18.292  0.00  0.00    +0.000 A 
ATOM     18  C   UNL     1       1.023  13.233  18.823  0.00  0.00    +0.000 A 
ATOM     19  C   UNL     1       1.400  11.995  19.353  0.00  0.00    +0.000 A 
ENDBRANCH   3  14
TORSDOF 1
ENDMDL
MODEL 5
REMARK VINA RESULT:      -6.7      1.167      2.347
REMARK  Name = 
REMARK  2 active torsions:
REMARK  status: ('A' for Active; 'I' for Inactive)
REMARK    1  A    between atoms: C_1  and  N_2
REMARK    2  A    between atoms: C_3  and  C_4
REMARK                            x       y       z     vdW  Elec       q    Type
REMARK                         _______ _______ _______ _____ _____    ______ ____
ROOT
ATOM      1  C   UNL     1       2.236   6.177  20.141  0.00  0.00    +0.000 C 
ATOM      2  N   UNL     1       2.336   7.294  19.240  0.00  0.00    +0.000 N 
ATOM      3  C   UNL     1       2.960   7.292  17.998  0.00  0.00    +0.000 A 
ATOM      4  N   UNL     1       2.829   8.500  17.482  0.00  0.00    +0.000 NA
ATOM      5  N   UNL     1       2.056   9.250  18.322  0.00  0.00    +0.000 NA
ATOM      6  C   UNL     1       1.757   8.544  19.394  0.00  0.00    +0.000 A 
ATOM      7  N   UNL     1       0.949   8.961  20.423  0.00  0.00    +0.000 N 
ATOM      8  C   UNL     1      -0.194   9.811  20.057  0.00  0.00    +0.000 C 
ATOM      9  C   UNL     1      -0.439  10.975  21.018  0.00  0.00    +0.000 C 
ATOM     10  C   UNL     1      -0.931  10.502  22.379  0.00  0.00    +0.000 C 
ATOM     11  O   UNL     1       0.090  10.205  23.322  0.00  0.00    +0.000 OA
ATOM     12  C   UNL     1       1.272   9.605  22.804  0.00  0.00    +0.000 C 
ATOM     13  C   UNL     1       1.036   8.474  21.798  0.00  0.00    +0.000 C 
ENDROOT
BRANCH   3  14
ATOM     14  C   UNL     1       3.680   6.182  17.361  0.00  0.00    +0.000 A 
ATOM     15  C   UNL     1       3.288   4.844  17.519  0.00  0.00    +0.000 A 
ATOM     16  C   UNL     1       4.053   3.800  16.998  0.00  0.00    +0.000 A 
ATOM     17  C   UNL     1       5.177   4.081  16.229  0.00  0.00    +0.000 A 
ATOM     18  C   UNL     1       5.529   5.406  15.978  0.00  0.00    +0.000 A 
ATOM     19  C   UNL     1       4.791   6.449  16.547  0.00  0.00    +0.000 A 
ENDBRANCH   3  14
TORSDOF 1
ENDMDL
MODEL 6
REMARK VINA RESULT:      -6.7      1.448      1.616
REMARK  Name = 
REMARK  2 active torsions:
REMARK  status: ('A' for Active; 'I' for Inactive)
REMARK    1  A    between atoms: C_1  and  N_2
REMARK    2  A    between atoms: C_3  and  C_4
REMARK                            x       y       z     vdW  Elec       q    Type
REMARK                         _______ _______ _______ _____ _____    ______ ____
ROOT
ATOM      1  C   UNL     1       2.372   8.573  17.777  0.00  0.00    +0.000 C 
ATOM      2  N   UNL     1       1.955   8.073  19.060  0.00  0.00    +0.000 N 
ATOM      3  C   UNL     1       2.273   6.831  19.599  0.00  0.00    +0.000 A 
ATOM      4  N   UNL     1       1.711   6.756  20.791  0.00  0.00    +0.000 NA
ATOM      5  N   UNL     1       1.118   7.955  21.068  0.00  0.00    +0.000 NA
ATOM      6  C   UNL     1       1.245   8.760  20.033  0.00  0.00    +0.000 A 
ATOM      7  N   UNL     1       0.817  10.064  19.978  0.00  0.00    +0.000 N 
ATOM      8  C   UNL     1       0.923  10.840  21.223  0.00  0.00    +0.000 C 
ATOM      9  C   UNL     1      -0.283  11.739  21.502  0.00  0.00    +0.000 C 
ATOM     10  C   UNL     1      -0.376  12.896  20.516  0.00  0.00    +0.000 C 
ATOM     11  O   UNL     1      -1.111  12.623  19.330  0.00  0.00    +0.000 OA
ATOM     12  C   UNL     1      -0.980  11.311  18.795  0.00  0.00    +0.000 C 
ATOM     13  C   UNL     1       0.451  10.769  18.752  0.00  0.00    +0.000 C 
ENDROOT
BRANCH   3  14
ATOM     14  C   UNL     1       3.054   5.758  18.971  0.00  0.00    +0.000 A 
ATOM     15  C   UNL     1       4.401   5.526  19.285  0.00  0.00    +0.000 A 
ATOM     16  C   UNL     1       5.152   4.575  18.594  0.00  0.00    +0.000 A 
ATOM     17  C   UNL     1       4.541   3.773  17.636  0.00  0.00    +0.000 A 
ATOM     18  C   UNL     1       3.180   3.920  17.378  0.00  0.00    +0.000 A 
ATOM     19  C   UNL     1       2.443   4.911  18.034  0.00  0.00    +0.000 A 
ENDBRANCH   3  14
TORSDOF 1
ENDMDL
MODEL 7
REMARK VINA RESULT:      -6.7      1.526      1.881
REMARK  Name = 
REMARK  2 active torsions:
REMARK  status: ('A' for Active; 'I' for Inactive)
REMARK    1  A    between atoms: C_1  and  N_2
REMARK    2  A    between atoms: C_3  and  C_4
REMARK                            x       y       z     vdW  Elec       q    Type
REMARK                         _______ _______ _______ _____ _____    ______ ____
ROOT
ATOM      1  C   UNL     1       2.325   8.636  17.767  0.00  0.00    +0.000 C 
ATOM      2  N   UNL     1       1.915   8.141  19.054  0.00  0.00    +0.000 N 
ATOM      3  C   UNL     1       2.224   6.896  19.590  0.00  0.00    +0.000 A 
ATOM      4  N   UNL     1       1.672   6.826  20.787  0.00  0.00    +0.000 NA
ATOM      5  N   UNL     1       1.095   8.032  21.070  0.00  0.00    +0.000 NA
ATOM      6  C   UNL     1       1.221   8.836  20.033  0.00  0.00    +0.000 A 
ATOM      7  N   UNL     1       0.808  10.144  19.983  0.00  0.00    +0.000 N 
ATOM      8  C   UNL     1       0.934  10.920  21.227  0.00  0.00    +0.000 C 
ATOM      9  C   UNL     1      -0.259  11.831  21.517  0.00  0.00    +0.000 C 
ATOM     10  C   UNL     1      -0.349  12.989  20.532  0.00  0.00    +0.000 C 
ATOM     11  O   UNL     1      -1.098  12.725  19.353  0.00  0.00    +0.000 OA
ATOM     12  C   UNL     1      -0.987  11.412  18.817  0.00  0.00    +0.000 C 
ATOM     13  C   UNL     1       0.438  10.854  18.761  0.00  0.00    +0.000 C 
ENDROOT
BRANCH   3  14
ATOM     14  C   UNL     1       2.986   5.814  18.955  0.00  0.00    +0.000 A 
ATOM     15  C   UNL     1       2.442   5.002  17.948  0.00  0.00    +0.000 A 
ATOM     16  C   UNL     1       3.146   3.910  17.439  0.00  0.00    +0.000 A 
ATOM     17  C   UNL     1       4.447   3.665  17.865  0.00  0.00    +0.000 A 
ATOM     18  C   UNL     1       5.042   4.517  18.793  0.00  0.00    +0.000 A 
ATOM     19  C   UNL     1       4.315   5.579  19.341  0.00  0.00    +0.000 A 
ENDBRANCH   3  14
TORSDOF 1
ENDMDL
MODEL 8
REMARK VINA RESULT:      -6.7      2.558      6.944
REMARK  Name = 
REMARK  2 active torsions:
REMARK  status: ('A' for Active; 'I' for Inactive)
REMARK    1  A    between atoms: C_1  and  N_2
REMARK    2  A    between atoms: C_3  and  C_4
REMARK                            x       y       z     vdW  Elec       q    Type
REMARK                         _______ _______ _______ _____ _____    ______ ____
ROOT
ATOM      1  C   UNL     1       2.318   8.871  18.174  0.00  0.00    +0.000 C 
ATOM      2  N   UNL     1       2.246   7.789  19.119  0.00  0.00    +0.000 N 
ATOM      3  C   UNL     1       1.513   7.779  20.301  0.00  0.00    +0.000 A 
ATOM      4  N   UNL     1       1.701   6.607  20.879  0.00  0.00    +0.000 NA
ATOM      5  N   UNL     1       2.462   5.831  20.051  0.00  0.00    +0.000 NA
ATOM      6  C   UNL     1       2.810   6.529  18.989  0.00  0.00    +0.000 A 
ATOM      7  N   UNL     1       3.530   6.051  17.921  0.00  0.00    +0.000 N 
ATOM      8  C   UNL     1       3.279   4.654  17.534  0.00  0.00    +0.000 C 
ATOM      9  C   UNL     1       4.542   3.872  17.170  0.00  0.00    +0.000 C 
ATOM     10  C   UNL     1       5.164   4.363  15.869  0.00  0.00    +0.000 C 
ATOM     11  O   UNL     1       6.106   5.419  16.010  0.00  0.00    +0.000 OA
ATOM     12  C   UNL     1       5.819   6.389  17.010  0.00  0.00    +0.000 C 
ATOM     13  C   UNL     1       4.366   6.871  17.048  0.00  0.00    +0.000 C 
ENDROOT
BRANCH   3  14
ATOM     14  C   UNL     1       0.701   8.868  20.857  0.00  0.00    +0.000 A 
ATOM     15  C   UNL     1       0.027   9.792  20.046  0.00  0.00    +0.000 A 
ATOM     16  C   UNL     1      -0.645  10.884  20.597  0.00  0.00    +0.000 A 
ATOM     17  C   UNL     1      -0.731  11.019  21.978  0.00  0.00    +0.000 A 
ATOM     18  C   UNL     1      -0.152  10.058  22.804  0.00  0.00    +0.000 A 
ATOM     19  C   UNL     1       0.567   8.994  22.248  0.00  0.00    +0.000 A 
ENDBRANCH   3  14
TORSDOF 1
ENDMDL
MODEL 9
REMARK VINA RESULT:      -6.7      4.398      5.826
REMARK  Name = 
REMARK  2 active torsions:
REMARK  status: ('A' for Active; 'I' for Inactive)
REMARK    1  A    between atoms: C_1  and  N_2
REMARK    2  A    between atoms: C_3  and  C_4
REMARK                            x       y       z     vdW  Elec       q    Type
REMARK                         _______ _______ _______ _____ _____    ______ ____
ROOT
ATOM      1  C   UNL     1       4.609   2.372  16.605  0.00  0.00    +0.000 C 
ATOM      2  N   UNL     1       4.550   3.795  16.807  0.00  0.00    +0.000 N 
ATOM      3  C   UNL     1       5.067   4.767  15.957  0.00  0.00    +0.000 A 
ATOM      4  N   UNL     1       4.803   5.946  16.488  0.00  0.00    +0.000 NA
ATOM      5  N   UNL     1       4.049   5.758  17.611  0.00  0.00    +0.000 NA
ATOM      6  C   UNL     1       3.894   4.467  17.828  0.00  0.00    +0.000 A 
ATOM      7  N   UNL     1       3.147   3.911  18.836  0.00  0.00    +0.000 N 
ATOM      8  C   UNL     1       1.916   4.625  19.211  0.00  0.00    +0.000 C 
ATOM      9  C   UNL     1       1.667   4.690  20.718  0.00  0.00    +0.000 C 
ATOM     10  C   UNL     1       1.327   3.325  21.302  0.00  0.00    +0.000 C 
ATOM     11  O   UNL     1       2.443   2.553  21.726  0.00  0.00    +0.000 OA
ATOM     12  C   UNL     1       3.618   2.654  20.931  0.00  0.00    +0.000 C 
ATOM     13  C   UNL     1       3.384   2.592  19.419  0.00  0.00    +0.000 C 
ENDROOT
BRANCH   3  14
ATOM     14  C   UNL     1       5.812   4.556  14.709  0.00  0.00    +0.000 A 
ATOM     15  C   UNL     1       7.087   5.099  14.495  0.00  0.00    +0.000 A 
ATOM     16  C   UNL     1       7.726   4.981  13.260  0.00  0.00    +0.000 A 
ATOM     17  C   UNL     1       7.138   4.235  12.244  0.00  0.00    +0.000 A 
ATOM     18  C   UNL     1       5.916   3.605  12.469  0.00  0.00    +0.000 A 
ATOM     19  C   UNL     1       5.252   3.771  13.689  0.00  0.00    +0.000 A 
ENDBRANCH   3  14
TORSDOF 1
ENDMDL
