MODEL 1
REMARK VINA RESULT:      -9.0      0.000      0.000
REMARK  Name = 
REMARK  2 active torsions:
REMARK  status: ('A' for Active; 'I' for Inactive)
REMARK    1  A    between atoms: C_9  and  C_10
REMARK    2  A    between atoms: C_17  and  N_18
REMARK                            x       y       z     vdW  Elec       q    Type
REMARK                         _______ _______ _______ _____ _____    ______ ____
ROOT
ATOM      1  C   UNL     1       2.057   8.140  18.603  0.00  0.00    +0.000 A 
ATOM      2  N   UNL     1       1.790   9.252  17.957  0.00  0.00    +0.000 NA
ATOM      3  N   UNL     1       1.030  10.113  18.707  0.00  0.00    +0.000 NA
ATOM      4  C   UNL     1       0.753   9.663  19.918  0.00  0.00    +0.000 A 
ATOM      5  N   UNL     1       0.085  10.385  20.869  0.00  0.00    +0.000 N 
ATOM      6  C   UNL     1      -0.527  11.634  20.414  0.00  0.00    +0.000 C 
ATOM      7  C   UNL     1      -0.605  12.615  21.571  0.00  0.00    +0.000 C 
ATOM      8  C   UNL     1      -1.319  12.058  22.817  0.00  0.00    +0.000 C 
ATOM      9  C   UNL     1      -0.732  10.677  23.168  0.00  0.00    +0.000 C 
ATOM     10  C   UNL     1      -0.577   9.719  21.990  0.00  0.00    +0.000 C 
ATOM     11  S   UNL     1       1.403   8.083  20.183  0.00  0.00    +0.000 S 
ENDROOT
BRANCH   1  20
ATOM     12  O   UNL     1       6.877   7.482  16.741  0.00  0.00    +0.000 OA
ATOM     13  C   UNL     1       6.347   6.379  16.761  0.00  0.00    +0.000 A 
ATOM     14  C   UNL     1       7.083   5.166  16.357  0.00  0.00    +0.000 A 
ATOM     15  C   UNL     1       6.440   3.997  16.378  0.00  0.00    +0.000 A 
ATOM     16  O   UNL     1       5.130   3.796  16.739  0.00  0.00    +0.000 OA
ATOM     17  C   UNL     1       4.414   4.892  17.155  0.00  0.00    +0.000 A 
ATOM     18  C   UNL     1       3.103   4.679  17.570  0.00  0.00    +0.000 A 
ATOM     19  C   UNL     1       2.343   5.755  18.030  0.00  0.00    +0.000 A 
ATOM     20  C   UNL     1       2.878   7.054  18.070  0.00  0.00    +0.000 A 
ATOM     21  C   UNL     1       4.193   7.260  17.634  0.00  0.00    +0.000 A 
ATOM     22  C   UNL     1       4.952   6.175  17.184  0.00  0.00    +0.000 A 
ENDBRANCH   1  20
BRANCH   8  23
ATOM     23  N   UNL     1      -2.803  12.129  22.859  0.00  0.00    +0.000 NA
ATOM     24  C   UNL     1      -3.286  12.608  24.165  0.00  0.00    +0.000 C 
ATOM     25  C   UNL     1      -4.808  12.535  24.291  0.00  0.00    +0.000 C 
ATOM     26  C   UNL     1      -5.479  13.304  23.162  0.00  0.00    +0.000 C 
ATOM     27  C   UNL     1      -4.989  12.768  21.828  0.00  0.00    +0.000 C 
ATOM     28  C   UNL     1      -3.460  12.813  21.744  0.00  0.00    +0.000 C 
ENDBRANCH   8  23
TORSDOF 2
ENDMDL
MODEL 2
REMARK VINA RESULT:      -8.6      1.059      1.084
REMARK  Name = 
REMARK  2 active torsions:
REMARK  status: ('A' for Active; 'I' for Inactive)
REMARK    1  A    between atoms: C_9  and  C_10
REMARK    2  A    between atoms: C_17  and  N_18
REMARK                            x       y       z     vdW  Elec       q    Type
REMARK                         _______ _______ _______ _____ _____    ______ ____
ROOT
ATOM      1  C   UNL     1       1.890   8.266  18.837  0.00  0.00    +0.000 A 
ATOM      2  N   UNL     1       1.298   8.984  17.909  0.00  0.00    +0.000 NA
ATOM      3  N   UNL     1       0.436   9.907  18.446  0.00  0.00    +0.000 NA
ATOM      4  C   UNL     1       0.404   9.901  19.767  0.00  0.00    +0.000 A 
ATOM      5  N   UNL     1      -0.314  10.790  20.519  0.00  0.00    +0.000 N 
ATOM      6  C   UNL     1      -1.253  11.641  19.786  0.00  0.00    +0.000 C 
ATOM      7  C   UNL     1      -1.441  12.952  20.530  0.00  0.00    +0.000 C 
ATOM      8  C   UNL     1      -1.866  12.781  22.001  0.00  0.00    +0.000 C 
ATOM      9  C   UNL     1      -0.931  11.767  22.688  0.00  0.00    +0.000 C 
ATOM     10  C   UNL     1      -0.676  10.483  21.903  0.00  0.00    +0.000 C 
ATOM     11  S   UNL     1       1.438   8.685  20.432  0.00  0.00    +0.000 S 
ENDROOT
BRANCH   1  20
ATOM     12  O   UNL     1       5.258   7.025  15.062  0.00  0.00    +0.000 OA
ATOM     13  C   UNL     1       5.426   6.222  15.970  0.00  0.00    +0.000 A 
ATOM     14  C   UNL     1       6.470   5.183  15.893  0.00  0.00    +0.000 A 
ATOM     15  C   UNL     1       6.587   4.323  16.907  0.00  0.00    +0.000 A 
ATOM     16  O   UNL     1       5.813   4.295  18.043  0.00  0.00    +0.000 OA
ATOM     17  C   UNL     1       4.849   5.265  18.173  0.00  0.00    +0.000 A 
ATOM     18  C   UNL     1       4.101   5.268  19.347  0.00  0.00    +0.000 A 
ATOM     19  C   UNL     1       3.130   6.250  19.542  0.00  0.00    +0.000 A 
ATOM     20  C   UNL     1       2.886   7.231  18.566  0.00  0.00    +0.000 A 
ATOM     21  C   UNL     1       3.633   7.208  17.381  0.00  0.00    +0.000 A 
ATOM     22  C   UNL     1       4.612   6.227  17.197  0.00  0.00    +0.000 A 
ENDBRANCH   1  20
BRANCH   8  23
ATOM     23  N   UNL     1      -3.311  12.587  22.290  0.00  0.00    +0.000 NA
ATOM     24  C   UNL     1      -3.708  13.257  23.540  0.00  0.00    +0.000 C 
ATOM     25  C   UNL     1      -5.147  12.938  23.945  0.00  0.00    +0.000 C 
ATOM     26  C   UNL     1      -6.113  13.290  22.823  0.00  0.00    +0.000 C 
ATOM     27  C   UNL     1      -5.700  12.560  21.556  0.00  0.00    +0.000 C 
ATOM     28  C   UNL     1      -4.243  12.863  21.196  0.00  0.00    +0.000 C 
ENDBRANCH   8  23
TORSDOF 2
ENDMDL
MODEL 3
REMARK VINA RESULT:      -8.3      2.099      3.063
REMARK  Name = 
REMARK  2 active torsions:
REMARK  status: ('A' for Active; 'I' for Inactive)
REMARK    1  A    between atoms: C_9  and  C_10
REMARK    2  A    between atoms: C_17  and  N_18
REMARK                            x       y       z     vdW  Elec       q    Type
REMARK                         _______ _______ _______ _____ _____    ______ ____
ROOT
ATOM      1  C   UNL     1       2.195   7.809  18.917  0.00  0.00    +0.000 A 
ATOM      2  N   UNL     1       1.855   7.760  20.186  0.00  0.00    +0.000 NA
ATOM      3  N   UNL     1       1.150   8.871  20.572  0.00  0.00    +0.000 NA
ATOM      4  C   UNL     1       0.936   9.734  19.594  0.00  0.00    +0.000 A 
ATOM      5  N   UNL     1       0.183  10.869  19.725  0.00  0.00    +0.000 N 
ATOM      6  C   UNL     1      -0.212  11.223  21.090  0.00  0.00    +0.000 C 
ATOM      7  C   UNL     1      -1.517  12.001  21.056  0.00  0.00    +0.000 C 
ATOM      8  C   UNL     1      -1.484  13.238  20.139  0.00  0.00    +0.000 C 
ATOM      9  C   UNL     1      -0.926  12.838  18.760  0.00  0.00    +0.000 C 
ATOM     10  C   UNL     1       0.341  11.986  18.794  0.00  0.00    +0.000 C 
ATOM     11  S   UNL     1       1.659   9.219  18.111  0.00  0.00    +0.000 S 
ENDROOT
BRANCH   1  20
ATOM     12  O   UNL     1       6.770   7.186  16.506  0.00  0.00    +0.000 OA
ATOM     13  C   UNL     1       6.209   6.099  16.496  0.00  0.00    +0.000 A 
ATOM     14  C   UNL     1       6.859   4.905  15.923  0.00  0.00    +0.000 A 
ATOM     15  C   UNL     1       6.184   3.754  15.922  0.00  0.00    +0.000 A 
ATOM     16  O   UNL     1       4.913   3.556  16.405  0.00  0.00    +0.000 OA
ATOM     17  C   UNL     1       4.281   4.632  16.978  0.00  0.00    +0.000 A 
ATOM     18  C   UNL     1       3.014   4.418  17.513  0.00  0.00    +0.000 A 
ATOM     19  C   UNL     1       2.342   5.472  18.134  0.00  0.00    +0.000 A 
ATOM     20  C   UNL     1       2.920   6.750  18.217  0.00  0.00    +0.000 A 
ATOM     21  C   UNL     1       4.188   6.958  17.660  0.00  0.00    +0.000 A 
ATOM     22  C   UNL     1       4.860   5.895  17.049  0.00  0.00    +0.000 A 
ENDBRANCH   1  20
BRANCH   8  23
ATOM     23  N   UNL     1      -0.926  14.499  20.692  0.00  0.00    +0.000 NA
ATOM     24  C   UNL     1      -0.582  15.453  19.624  0.00  0.00    +0.000 C 
ATOM     25  C   UNL     1       0.145  16.690  20.154  0.00  0.00    +0.000 C 
ATOM     26  C   UNL     1      -0.677  17.376  21.235  0.00  0.00    +0.000 C 
ATOM     27  C   UNL     1      -0.988  16.379  22.338  0.00  0.00    +0.000 C 
ATOM     28  C   UNL     1      -1.677  15.132  21.776  0.00  0.00    +0.000 C 
ENDBRANCH   8  23
TORSDOF 2
ENDMDL
MODEL 4
REMARK VINA RESULT:      -8.2      1.154      2.059
REMARK  Name = 
REMARK  2 active torsions:
REMARK  status: ('A' for Active; 'I' for Inactive)
REMARK    1  A    between atoms: C_9  and  C_10
REMARK    2  A    between atoms: C_17  and  N_18
REMARK                            x       y       z     vdW  Elec       q    Type
REMARK                         _______ _______ _______ _____ _____    ______ ____
ROOT
ATOM      1  C   UNL     1       1.592   8.540  18.675  0.00  0.00    +0.000 A 
ATOM      2  N   UNL     1       1.061   9.470  17.914  0.00  0.00    +0.000 NA
ATOM      3  N   UNL     1       0.240  10.309  18.624  0.00  0.00    +0.000 NA
ATOM      4  C   UNL     1       0.180  10.030  19.914  0.00  0.00    +0.000 A 
ATOM      5  N   UNL     1      -0.504  10.783  20.829  0.00  0.00    +0.000 N 
ATOM      6  C   UNL     1      -1.378  11.821  20.281  0.00  0.00    +0.000 C 
ATOM      7  C   UNL     1      -1.510  12.957  21.282  0.00  0.00    +0.000 C 
ATOM      8  C   UNL     1      -1.974  12.508  22.680  0.00  0.00    +0.000 C 
ATOM      9  C   UNL     1      -1.112  11.320  23.149  0.00  0.00    +0.000 C 
ATOM     10  C   UNL     1      -0.911  10.215  22.114  0.00  0.00    +0.000 C 
ATOM     11  S   UNL     1       1.131   8.643  20.319  0.00  0.00    +0.000 S 
ENDROOT
BRANCH   1  20
ATOM     12  O   UNL     1       2.065   3.353  18.741  0.00  0.00    +0.000 OA
ATOM     13  C   UNL     1       3.008   3.790  18.096  0.00  0.00    +0.000 A 
ATOM     14  C   UNL     1       3.988   2.889  17.460  0.00  0.00    +0.000 A 
ATOM     15  C   UNL     1       5.007   3.429  16.790  0.00  0.00    +0.000 A 
ATOM     16  O   UNL     1       5.252   4.772  16.628  0.00  0.00    +0.000 OA
ATOM     17  C   UNL     1       4.348   5.649  17.174  0.00  0.00    +0.000 A 
ATOM     18  C   UNL     1       4.570   7.008  16.964  0.00  0.00    +0.000 A 
ATOM     19  C   UNL     1       3.664   7.939  17.473  0.00  0.00    +0.000 A 
ATOM     20  C   UNL     1       2.536   7.528  18.203  0.00  0.00    +0.000 A 
ATOM     21  C   UNL     1       2.332   6.160  18.422  0.00  0.00    +0.000 A 
ATOM     22  C   UNL     1       3.238   5.232  17.901  0.00  0.00    +0.000 A 
ENDBRANCH   1  20
BRANCH   8  23
ATOM     23  N   UNL     1      -3.433  12.343  22.909  0.00  0.00    +0.000 NA
ATOM     24  C   UNL     1      -3.794  12.598  24.313  0.00  0.00    +0.000 C 
ATOM     25  C   UNL     1      -5.259  12.277  24.611  0.00  0.00    +0.000 C 
ATOM     26  C   UNL     1      -6.180  13.049  23.677  0.00  0.00    +0.000 C 
ATOM     27  C   UNL     1      -5.808  12.742  22.237  0.00  0.00    +0.000 C 
ATOM     28  C   UNL     1      -4.327  13.032  21.976  0.00  0.00    +0.000 C 
ENDBRANCH   8  23
TORSDOF 2
ENDMDL
MODEL 5
REMARK VINA RESULT:      -8.1      2.067      2.976
REMARK  Name = 
REMARK  2 active torsions:
REMARK  status: ('A' for Active; 'I' for Inactive)
REMARK    1  A    between atoms: C_9  and  C_10
REMARK    2  A    between atoms: C_17  and  N_18
REMARK                            x       y       z     vdW  Elec       q    Type
REMARK                         _______ _______ _______ _____ _____    ______ ____
ROOT
ATOM      1  C   UNL     1       2.193   7.799  18.931  0.00  0.00    +0.000 A 
ATOM      2  N   UNL     1       1.833   7.727  20.192  0.00  0.00    +0.000 NA
ATOM      3  N   UNL     1       1.138   8.840  20.593  0.00  0.00    +0.000 NA
ATOM      4  C   UNL     1       0.951   9.727  19.631  0.00  0.00    +0.000 A 
ATOM      5  N   UNL     1       0.213  10.870  19.776  0.00  0.00    +0.000 N 
ATOM      6  C   UNL     1      -0.198  11.200  21.141  0.00  0.00    +0.000 C 
ATOM      7  C   UNL     1      -1.491  11.997  21.106  0.00  0.00    +0.000 C 
ATOM      8  C   UNL     1      -1.427  13.253  20.217  0.00  0.00    +0.000 C 
ATOM      9  C   UNL     1      -0.854  12.875  18.837  0.00  0.00    +0.000 C 
ATOM     10  C   UNL     1       0.400  12.004  18.872  0.00  0.00    +0.000 C 
ATOM     11  S   UNL     1       1.689   9.233  18.147  0.00  0.00    +0.000 S 
ENDROOT
BRANCH   1  20
ATOM     12  O   UNL     1       6.762   7.184  16.507  0.00  0.00    +0.000 OA
ATOM     13  C   UNL     1       6.197   6.100  16.487  0.00  0.00    +0.000 A 
ATOM     14  C   UNL     1       6.841   4.909  15.900  0.00  0.00    +0.000 A 
ATOM     15  C   UNL     1       6.162   3.760  15.887  0.00  0.00    +0.000 A 
ATOM     16  O   UNL     1       4.891   3.562  16.369  0.00  0.00    +0.000 OA
ATOM     17  C   UNL     1       4.264   4.635  16.955  0.00  0.00    +0.000 A 
ATOM     18  C   UNL     1       2.996   4.420  17.489  0.00  0.00    +0.000 A 
ATOM     19  C   UNL     1       2.329   5.469  18.121  0.00  0.00    +0.000 A 
ATOM     20  C   UNL     1       2.912   6.745  18.219  0.00  0.00    +0.000 A 
ATOM     21  C   UNL     1       4.181   6.954  17.662  0.00  0.00    +0.000 A 
ATOM     22  C   UNL     1       4.848   5.895  17.039  0.00  0.00    +0.000 A 
ENDBRANCH   1  20
BRANCH   8  23
ATOM     23  N   UNL     1      -0.858  14.494  20.805  0.00  0.00    +0.000 NA
ATOM     24  C   UNL     1      -0.952  14.488  22.274  0.00  0.00    +0.000 C 
ATOM     25  C   UNL     1      -0.525  15.819  22.894  0.00  0.00    +0.000 C 
ATOM     26  C   UNL     1       0.883  16.193  22.452  0.00  0.00    +0.000 C 
ATOM     27  C   UNL     1       0.942  16.224  20.935  0.00  0.00    +0.000 C 
ATOM     28  C   UNL     1       0.470  14.895  20.338  0.00  0.00    +0.000 C 
ENDBRANCH   8  23
TORSDOF 2
ENDMDL
MODEL 6
REMARK VINA RESULT:      -8.1      1.822      2.609
REMARK  Name = 
REMARK  2 active torsions:
REMARK  status: ('A' for Active; 'I' for Inactive)
REMARK    1  A    between atoms: C_9  and  C_10
REMARK    2  A    between atoms: C_17  and  N_18
REMARK                            x       y       z     vdW  Elec       q    Type
REMARK                         _______ _______ _______ _____ _____    ______ ____
ROOT
ATOM      1  C   UNL     1       1.383   8.932  19.226  0.00  0.00    +0.000 A 
ATOM      2  N   UNL     1       1.001   9.795  18.311  0.00  0.00    +0.000 NA
ATOM      3  N   UNL     1       0.229  10.797  18.841  0.00  0.00    +0.000 NA
ATOM      4  C   UNL     1       0.057  10.704  20.148  0.00  0.00    +0.000 A 
ATOM      5  N   UNL     1      -0.602  11.637  20.902  0.00  0.00    +0.000 N 
ATOM      6  C   UNL     1      -1.326  12.669  20.157  0.00  0.00    +0.000 C 
ATOM      7  C   UNL     1      -1.403  13.938  20.989  0.00  0.00    +0.000 C 
ATOM      8  C   UNL     1      -2.001  13.731  22.394  0.00  0.00    +0.000 C 
ATOM      9  C   UNL     1      -1.299  12.542  23.078  0.00  0.00    +0.000 C 
ATOM     10  C   UNL     1      -1.148  11.292  22.214  0.00  0.00    +0.000 C 
ATOM     11  S   UNL     1       0.830   9.303  20.801  0.00  0.00    +0.000 S 
ENDROOT
BRANCH   1  20
ATOM     12  O   UNL     1       2.297   4.232  21.275  0.00  0.00    +0.000 OA
ATOM     13  C   UNL     1       2.986   4.324  20.269  0.00  0.00    +0.000 A 
ATOM     14  C   UNL     1       3.828   3.203  19.809  0.00  0.00    +0.000 A 
ATOM     15  C   UNL     1       4.576   3.375  18.717  0.00  0.00    +0.000 A 
ATOM     16  O   UNL     1       4.652   4.517  17.956  0.00  0.00    +0.000 OA
ATOM     17  C   UNL     1       3.859   5.576  18.327  0.00  0.00    +0.000 A 
ATOM     18  C   UNL     1       3.899   6.714  17.526  0.00  0.00    +0.000 A 
ATOM     19  C   UNL     1       3.090   7.806  17.842  0.00  0.00    +0.000 A 
ATOM     20  C   UNL     1       2.244   7.781  18.964  0.00  0.00    +0.000 A 
ATOM     21  C   UNL     1       2.225   6.637  19.772  0.00  0.00    +0.000 A 
ATOM     22  C   UNL     1       3.031   5.542  19.444  0.00  0.00    +0.000 A 
ENDBRANCH   1  20
BRANCH   8  23
ATOM     23  N   UNL     1      -3.481  13.737  22.527  0.00  0.00    +0.000 NA
ATOM     24  C   UNL     1      -3.909  13.192  23.827  0.00  0.00    +0.000 C 
ATOM     25  C   UNL     1      -5.427  13.036  23.925  0.00  0.00    +0.000 C 
ATOM     26  C   UNL     1      -6.124  14.360  23.648  0.00  0.00    +0.000 C 
ATOM     27  C   UNL     1      -5.690  14.882  22.289  0.00  0.00    +0.000 C 
ATOM     28  C   UNL     1      -4.165  14.990  22.202  0.00  0.00    +0.000 C 
ENDBRANCH   8  23
TORSDOF 2
ENDMDL
MODEL 7
REMARK VINA RESULT:      -8.1      1.137      1.554
REMARK  Name = 
REMARK  2 active torsions:
REMARK  status: ('A' for Active; 'I' for Inactive)
REMARK    1  A    between atoms: C_9  and  C_10
REMARK    2  A    between atoms: C_17  and  N_18
REMARK                            x       y       z     vdW  Elec       q    Type
REMARK                         _______ _______ _______ _____ _____    ______ ____
ROOT
ATOM      1  C   UNL     1       1.841   8.650  18.906  0.00  0.00    +0.000 A 
ATOM      2  N   UNL     1       1.633   9.624  18.049  0.00  0.00    +0.000 NA
ATOM      3  N   UNL     1       0.867  10.627  18.587  0.00  0.00    +0.000 NA
ATOM      4  C   UNL     1       0.529  10.422  19.848  0.00  0.00    +0.000 A 
ATOM      5  N   UNL     1      -0.156  11.325  20.614  0.00  0.00    +0.000 N 
ATOM      6  C   UNL     1      -0.715  12.476  19.903  0.00  0.00    +0.000 C 
ATOM      7  C   UNL     1      -0.812  13.661  20.850  0.00  0.00    +0.000 C 
ATOM      8  C   UNL     1      -1.591  13.366  22.145  0.00  0.00    +0.000 C 
ATOM      9  C   UNL     1      -1.057  12.066  22.777  0.00  0.00    +0.000 C 
ATOM     10  C   UNL     1      -0.882  10.897  21.810  0.00  0.00    +0.000 C 
ATOM     11  S   UNL     1       1.123   8.908  20.436  0.00  0.00    +0.000 S 
ENDROOT
BRANCH   1  20
ATOM     12  O   UNL     1       5.166   7.009  15.248  0.00  0.00    +0.000 OA
ATOM     13  C   UNL     1       5.130   6.144  16.112  0.00  0.00    +0.000 A 
ATOM     14  C   UNL     1       5.975   4.938  16.028  0.00  0.00    +0.000 A 
ATOM     15  C   UNL     1       5.870   4.021  16.992  0.00  0.00    +0.000 A 
ATOM     16  O   UNL     1       5.034   4.077  18.081  0.00  0.00    +0.000 OA
ATOM     17  C   UNL     1       4.253   5.198  18.219  0.00  0.00    +0.000 A 
ATOM     18  C   UNL     1       3.444   5.278  19.349  0.00  0.00    +0.000 A 
ATOM     19  C   UNL     1       2.654   6.409  19.552  0.00  0.00    +0.000 A 
ATOM     20  C   UNL     1       2.652   7.467  18.626  0.00  0.00    +0.000 A 
ATOM     21  C   UNL     1       3.456   7.368  17.483  0.00  0.00    +0.000 A 
ATOM     22  C   UNL     1       4.254   6.236  17.292  0.00  0.00    +0.000 A 
ENDBRANCH   1  20
BRANCH   8  23
ATOM     23  N   UNL     1      -3.072  13.473  22.105  0.00  0.00    +0.000 NA
ATOM     24  C   UNL     1      -3.603  13.151  20.770  0.00  0.00    +0.000 C 
ATOM     25  C   UNL     1      -5.105  13.412  20.657  0.00  0.00    +0.000 C 
ATOM     26  C   UNL     1      -5.867  12.648  21.731  0.00  0.00    +0.000 C 
ATOM     27  C   UNL     1      -5.322  13.025  23.098  0.00  0.00    +0.000 C 
ATOM     28  C   UNL     1      -3.810  12.794  23.171  0.00  0.00    +0.000 C 
ENDBRANCH   8  23
TORSDOF 2
ENDMDL
MODEL 8
REMARK VINA RESULT:      -8.0      1.815      2.735
REMARK  Name = 
REMARK  2 active torsions:
REMARK  status: ('A' for Active; 'I' for Inactive)
REMARK    1  A    between atoms: C_9  and  C_10
REMARK    2  A    between atoms: C_17  and  N_18
REMARK                            x       y       z     vdW  Elec       q    Type
REMARK                         _______ _______ _______ _____ _____    ______ ____
ROOT
ATOM      1  C   UNL     1       2.164   7.362  19.441  0.00  0.00    +0.000 A 
ATOM      2  N   UNL     1       1.788   7.076  20.667  0.00  0.00    +0.000 NA
ATOM      3  N   UNL     1       1.122   8.120  21.258  0.00  0.00    +0.000 NA
ATOM      4  C   UNL     1       0.972   9.170  20.470  0.00  0.00    +0.000 A 
ATOM      5  N   UNL     1       0.265  10.290  20.814  0.00  0.00    +0.000 N 
ATOM      6  C   UNL     1      -0.151  10.382  22.215  0.00  0.00    +0.000 C 
ATOM      7  C   UNL     1      -1.420  11.212  22.317  0.00  0.00    +0.000 C 
ATOM      8  C   UNL     1      -1.310  12.605  21.668  0.00  0.00    +0.000 C 
ATOM      9  C   UNL     1      -0.733  12.463  20.247  0.00  0.00    +0.000 C 
ATOM     10  C   UNL     1       0.494  11.562  20.130  0.00  0.00    +0.000 C 
ATOM     11  S   UNL     1       1.710   8.929  18.926  0.00  0.00    +0.000 S 
ENDROOT
BRANCH   1  20
ATOM     12  O   UNL     1       6.576   7.213  16.676  0.00  0.00    +0.000 OA
ATOM     13  C   UNL     1       6.038   6.122  16.551  0.00  0.00    +0.000 A 
ATOM     14  C   UNL     1       6.671   5.038  15.776  0.00  0.00    +0.000 A 
ATOM     15  C   UNL     1       6.021   3.878  15.657  0.00  0.00    +0.000 A 
ATOM     16  O   UNL     1       4.789   3.579  16.189  0.00  0.00    +0.000 OA
ATOM     17  C   UNL     1       4.176   4.547  16.946  0.00  0.00    +0.000 A 
ATOM     18  C   UNL     1       2.953   4.224  17.527  0.00  0.00    +0.000 A 
ATOM     19  C   UNL     1       2.304   5.161  18.330  0.00  0.00    +0.000 A 
ATOM     20  C   UNL     1       2.860   6.432  18.555  0.00  0.00    +0.000 A 
ATOM     21  C   UNL     1       4.083   6.752  17.952  0.00  0.00    +0.000 A 
ATOM     22  C   UNL     1       4.733   5.804  17.156  0.00  0.00    +0.000 A 
ENDBRANCH   1  20
BRANCH   8  23
ATOM     23  N   UNL     1      -0.712  13.701  22.473  0.00  0.00    +0.000 NA
ATOM     24  C   UNL     1      -0.090  14.725  21.616  0.00  0.00    +0.000 C 
ATOM     25  C   UNL     1       0.674  15.778  22.420  0.00  0.00    +0.000 C 
ATOM     26  C   UNL     1      -0.234  16.429  23.454  0.00  0.00    +0.000 C 
ATOM     27  C   UNL     1      -0.834  15.355  24.344  0.00  0.00    +0.000 C 
ATOM     28  C   UNL     1      -1.557  14.291  23.512  0.00  0.00    +0.000 C 
ENDBRANCH   8  23
TORSDOF 2
ENDMDL
MODEL 9
REMARK VINA RESULT:      -8.0      2.204      3.350
REMARK  Name = 
REMARK  2 active torsions:
REMARK  status: ('A' for Active; 'I' for Inactive)
REMARK    1  A    between atoms: C_9  and  C_10
REMARK    2  A    between atoms: C_17  and  N_18
REMARK                            x       y       z     vdW  Elec       q    Type
REMARK                         _______ _______ _______ _____ _____    ______ ____
ROOT
ATOM      1  C   UNL     1       1.400   8.444  20.347  0.00  0.00    +0.000 A 
ATOM      2  N   UNL     1       1.082   8.149  21.587  0.00  0.00    +0.000 NA
ATOM      3  N   UNL     1       0.293   9.115  22.159  0.00  0.00    +0.000 NA
ATOM      4  C   UNL     1      -0.004  10.112  21.345  0.00  0.00    +0.000 A 
ATOM      5  N   UNL     1      -0.846  11.141  21.670  0.00  0.00    +0.000 N 
ATOM      6  C   UNL     1      -1.251  11.220  23.074  0.00  0.00    +0.000 C 
ATOM      7  C   UNL     1      -2.615  11.881  23.175  0.00  0.00    +0.000 C 
ATOM      8  C   UNL     1      -2.697  13.256  22.485  0.00  0.00    +0.000 C 
ATOM      9  C   UNL     1      -2.127  13.147  21.058  0.00  0.00    +0.000 C 
ATOM     10  C   UNL     1      -0.794  12.410  20.946  0.00  0.00    +0.000 C 
ATOM     11  S   UNL     1       0.738   9.922  19.795  0.00  0.00    +0.000 S 
ENDROOT
BRANCH   1  20
ATOM     12  O   UNL     1       2.983   3.485  20.188  0.00  0.00    +0.000 OA
ATOM     13  C   UNL     1       3.378   4.019  19.161  0.00  0.00    +0.000 A 
ATOM     14  C   UNL     1       4.106   3.257  18.129  0.00  0.00    +0.000 A 
ATOM     15  C   UNL     1       4.531   3.905  17.042  0.00  0.00    +0.000 A 
ATOM     16  O   UNL     1       4.364   5.243  16.776  0.00  0.00    +0.000 OA
ATOM     17  C   UNL     1       3.662   5.986  17.694  0.00  0.00    +0.000 A 
ATOM     18  C   UNL     1       3.449   7.330  17.398  0.00  0.00    +0.000 A 
ATOM     19  C   UNL     1       2.717   8.121  18.283  0.00  0.00    +0.000 A 
ATOM     20  C   UNL     1       2.199   7.586  19.475  0.00  0.00    +0.000 A 
ATOM     21  C   UNL     1       2.434   6.237  19.770  0.00  0.00    +0.000 A 
ATOM     22  C   UNL     1       3.161   5.447  18.874  0.00  0.00    +0.000 A 
ENDBRANCH   1  20
BRANCH   8  23
ATOM     23  N   UNL     1      -2.236  14.445  23.248  0.00  0.00    +0.000 NA
ATOM     24  C   UNL     1      -2.468  15.692  22.499  0.00  0.00    +0.000 C 
ATOM     25  C   UNL     1      -1.856  16.912  23.188  0.00  0.00    +0.000 C 
ATOM     26  C   UNL     1      -2.374  17.043  24.613  0.00  0.00    +0.000 C 
ATOM     27  C   UNL     1      -2.092  15.757  25.371  0.00  0.00    +0.000 C 
ATOM     28  C   UNL     1      -2.679  14.547  24.639  0.00  0.00    +0.000 C 
ENDBRANCH   8  23
TORSDOF 2
ENDMDL
