MODEL 1
REMARK VINA RESULT:      -7.7      0.000      0.000
REMARK  Name = 
REMARK  9 active torsions:
REMARK  status: ('A' for Active; 'I' for Inactive)
REMARK    1  A    between atoms: C_1  and  C_2
REMARK    2  A    between atoms: C_2  and  C_3
REMARK    3  A    between atoms: C_3  and  O_4
REMARK    4  A    between atoms: C_3  and  C_5
REMARK    5  A    between atoms: C_3  and  C_18
REMARK    6  A    between atoms: C_5  and  O_7
REMARK    7  A    between atoms: O_7  and  C_8
REMARK    8  A    between atoms: C_8  and  C_9
REMARK    9  A    between atoms: C_15  and  O_16
REMARK                            x       y       z     vdW  Elec       q    Type
REMARK                         _______ _______ _______ _____ _____    ______ ____
ROOT
ATOM      1  C   UNL     1       5.080   5.877  16.148  0.00  0.00    +0.000 C 
ATOM      2  O   UNL     1       5.221   6.986  15.640  0.00  0.00    +0.000 OA
ENDROOT
BRANCH   1   3
ATOM      3  C   UNL     1       6.126   4.741  15.952  0.00  0.00    +0.000 C 
BRANCH   3   4
ATOM      4  C   UNL     1       6.437   4.496  14.464  0.00  0.00    +0.000 A 
ATOM      5  C   UNL     1       5.649   3.616  13.701  0.00  0.00    +0.000 A 
ATOM      6  C   UNL     1       5.928   3.381  12.355  0.00  0.00    +0.000 A 
ATOM      7  C   UNL     1       6.988   4.037  11.729  0.00  0.00    +0.000 A 
ATOM      8  C   UNL     1       7.772   4.921  12.456  0.00  0.00    +0.000 A 
ATOM      9  C   UNL     1       7.502   5.146  13.808  0.00  0.00    +0.000 A 
ENDBRANCH   3   4
BRANCH   3  11
ATOM     10  C   UNL     1       7.205   5.007  18.301  0.00  0.00    +0.000 C 
ATOM     11  C   UNL     1       7.401   5.006  16.788  0.00  0.00    +0.000 C 
ENDBRANCH   3  11
BRANCH   3  12
ATOM     12  O   UNL     1       5.557   3.518  16.472  0.00  0.00    +0.000 OA
ATOM     13  H   UNL     1       4.816   3.791  17.047  0.00  0.00    +0.000 HD
ENDBRANCH   3  12
ENDBRANCH   1   3
BRANCH   1  14
ATOM     14  O   UNL     1       4.023   5.505  16.915  0.00  0.00    +0.000 OA
BRANCH  14  15
ATOM     15  C   UNL     1       3.657   6.372  17.998  0.00  0.00    +0.000 C 
BRANCH  15  16
ATOM     16  C   UNL     1       2.924   5.601  19.045  0.00  0.00    +0.000 C 
ATOM     17  C   UNL     1       2.253   6.093  20.097  0.00  0.00    +0.000 C 
ATOM     18  C   UNL     1       1.722   5.002  20.964  0.00  0.00    +0.000 C 
ATOM     19  N   UNL     1       2.153   3.747  20.326  0.00  0.00    +0.000 NA
ATOM     20  C   UNL     1       1.040   2.867  19.952  0.00  0.00    +0.000 C 
ATOM     21  C   UNL     1       1.480   2.225  18.646  0.00  0.00    +0.000 C 
ATOM     22  C   UNL     1       2.156   3.382  17.938  0.00  0.00    +0.000 C 
ATOM     23  C   UNL     1       2.898   4.106  19.080  0.00  0.00    +0.000 C 
BRANCH  22  24
ATOM     24  O   UNL     1       1.139   4.172  17.309  0.00  0.00    +0.000 OA
ATOM     25  H   UNL     1       0.602   4.572  18.016  0.00  0.00    +0.000 HD
ENDBRANCH  22  24
ENDBRANCH  15  16
ENDBRANCH  14  15
ENDBRANCH   1  14
TORSDOF 8
ENDMDL
MODEL 2
REMARK VINA RESULT:      -7.6      2.713      6.458
REMARK  Name = 
REMARK  9 active torsions:
REMARK  status: ('A' for Active; 'I' for Inactive)
REMARK    1  A    between atoms: C_1  and  C_2
REMARK    2  A    between atoms: C_2  and  C_3
REMARK    3  A    between atoms: C_3  and  O_4
REMARK    4  A    between atoms: C_3  and  C_5
REMARK    5  A    between atoms: C_3  and  C_18
REMARK    6  A    between atoms: C_5  and  O_7
REMARK    7  A    between atoms: O_7  and  C_8
REMARK    8  A    between atoms: C_8  and  C_9
REMARK    9  A    between atoms: C_15  and  O_16
REMARK                            x       y       z     vdW  Elec       q    Type
REMARK                         _______ _______ _______ _____ _____    ______ ____
ROOT
ATOM      1  C   UNL     1       2.819   3.495  17.983  0.00  0.00    +0.000 C 
ATOM      2  O   UNL     1       1.996   3.246  17.106  0.00  0.00    +0.000 OA
ENDROOT
BRANCH   1   3
ATOM      3  C   UNL     1       2.402   4.079  19.364  0.00  0.00    +0.000 C 
BRANCH   3   4
ATOM      4  C   UNL     1       2.236   5.608  19.316  0.00  0.00    +0.000 A 
ATOM      5  C   UNL     1       1.810   6.321  20.452  0.00  0.00    +0.000 A 
ATOM      6  C   UNL     1       1.649   7.706  20.416  0.00  0.00    +0.000 A 
ATOM      7  C   UNL     1       1.930   8.419  19.250  0.00  0.00    +0.000 A 
ATOM      8  C   UNL     1       2.365   7.742  18.121  0.00  0.00    +0.000 A 
ATOM      9  C   UNL     1       2.514   6.353  18.152  0.00  0.00    +0.000 A 
ENDBRANCH   3   4
BRANCH   3  11
ATOM     10  C   UNL     1       1.277   2.793  21.323  0.00  0.00    +0.000 C 
ATOM     11  C   UNL     1       1.144   3.364  19.915  0.00  0.00    +0.000 C 
ENDBRANCH   3  11
BRANCH   3  12
ATOM     12  O   UNL     1       3.462   3.798  20.305  0.00  0.00    +0.000 OA
ATOM     13  H   UNL     1       4.293   3.852  19.795  0.00  0.00    +0.000 HD
ENDBRANCH   3  12
ENDBRANCH   1   3
BRANCH   1  14
ATOM     14  O   UNL     1       4.159   3.307  17.864  0.00  0.00    +0.000 OA
BRANCH  14  15
ATOM     15  C   UNL     1       4.735   3.473  16.560  0.00  0.00    +0.000 C 
BRANCH  15  16
ATOM     16  C   UNL     1       5.496   4.756  16.497  0.00  0.00    +0.000 C 
ATOM     17  C   UNL     1       5.138   5.885  15.868  0.00  0.00    +0.000 C 
ATOM     18  C   UNL     1       6.202   6.925  15.965  0.00  0.00    +0.000 C 
ATOM     19  N   UNL     1       7.292   6.303  16.736  0.00  0.00    +0.000 NA
ATOM     20  C   UNL     1       7.625   7.025  17.968  0.00  0.00    +0.000 C 
ATOM     21  C   UNL     1       7.974   5.936  18.969  0.00  0.00    +0.000 C 
ATOM     22  C   UNL     1       6.941   4.872  18.651  0.00  0.00    +0.000 C 
ATOM     23  C   UNL     1       6.849   4.925  17.112  0.00  0.00    +0.000 C 
BRANCH  22  24
ATOM     24  O   UNL     1       5.724   5.222  19.321  0.00  0.00    +0.000 OA
ATOM     25  H   UNL     1       4.995   5.093  18.688  0.00  0.00    +0.000 HD
ENDBRANCH  22  24
ENDBRANCH  15  16
ENDBRANCH  14  15
ENDBRANCH   1  14
TORSDOF 8
ENDMDL
MODEL 3
REMARK VINA RESULT:      -7.5      1.345      2.050
REMARK  Name = 
REMARK  9 active torsions:
REMARK  status: ('A' for Active; 'I' for Inactive)
REMARK    1  A    between atoms: C_1  and  C_2
REMARK    2  A    between atoms: C_2  and  C_3
REMARK    3  A    between atoms: C_3  and  O_4
REMARK    4  A    between atoms: C_3  and  C_5
REMARK    5  A    between atoms: C_3  and  C_18
REMARK    6  A    between atoms: C_5  and  O_7
REMARK    7  A    between atoms: O_7  and  C_8
REMARK    8  A    between atoms: C_8  and  C_9
REMARK    9  A    between atoms: C_15  and  O_16
REMARK                            x       y       z     vdW  Elec       q    Type
REMARK                         _______ _______ _______ _____ _____    ______ ____
ROOT
ATOM      1  C   UNL     1       5.314   5.690  16.238  0.00  0.00    +0.000 C 
ATOM      2  O   UNL     1       5.590   6.861  15.991  0.00  0.00    +0.000 OA
ENDROOT
BRANCH   1   3
ATOM      3  C   UNL     1       6.291   4.525  15.907  0.00  0.00    +0.000 C 
BRANCH   3   4
ATOM      4  C   UNL     1       6.618   4.457  14.405  0.00  0.00    +0.000 A 
ATOM      5  C   UNL     1       7.594   5.301  13.843  0.00  0.00    +0.000 A 
ATOM      6  C   UNL     1       7.891   5.253  12.481  0.00  0.00    +0.000 A 
ATOM      7  C   UNL     1       7.238   4.345  11.648  0.00  0.00    +0.000 A 
ATOM      8  C   UNL     1       6.282   3.492  12.179  0.00  0.00    +0.000 A 
ATOM      9  C   UNL     1       5.974   3.548  13.541  0.00  0.00    +0.000 A 
ENDBRANCH   3   4
BRANCH   3  11
ATOM     10  C   UNL     1       7.486   5.549  17.977  0.00  0.00    +0.000 C 
ATOM     11  C   UNL     1       7.563   4.597  16.787  0.00  0.00    +0.000 C 
ENDBRANCH   3  11
BRANCH   3  12
ATOM     12  O   UNL     1       5.638   3.284  16.255  0.00  0.00    +0.000 OA
ATOM     13  H   UNL     1       5.182   2.985  15.444  0.00  0.00    +0.000 HD
ENDBRANCH   3  12
ENDBRANCH   1   3
BRANCH   1  14
ATOM     14  O   UNL     1       4.153   5.270  16.806  0.00  0.00    +0.000 OA
BRANCH  14  15
ATOM     15  C   UNL     1       3.947   5.582  18.191  0.00  0.00    +0.000 C 
BRANCH  15  16
ATOM     16  C   UNL     1       3.856   4.324  18.989  0.00  0.00    +0.000 C 
ATOM     17  C   UNL     1       4.870   3.563  19.427  0.00  0.00    +0.000 C 
ATOM     18  C   UNL     1       4.374   2.339  20.121  0.00  0.00    +0.000 C 
ATOM     19  N   UNL     1       2.905   2.420  20.060  0.00  0.00    +0.000 NA
ATOM     20  C   UNL     1       2.262   2.427  21.378  0.00  0.00    +0.000 C 
ATOM     21  C   UNL     1       1.076   3.364  21.223  0.00  0.00    +0.000 C 
ATOM     22  C   UNL     1       1.655   4.466  20.358  0.00  0.00    +0.000 C 
ATOM     23  C   UNL     1       2.551   3.697  19.366  0.00  0.00    +0.000 C 
BRANCH  22  24
ATOM     24  O   UNL     1       2.369   5.370  21.212  0.00  0.00    +0.000 OA
ATOM     25  H   UNL     1       2.255   5.057  22.127  0.00  0.00    +0.000 HD
ENDBRANCH  22  24
ENDBRANCH  15  16
ENDBRANCH  14  15
ENDBRANCH   1  14
TORSDOF 8
ENDMDL
MODEL 4
REMARK VINA RESULT:      -7.5      0.453      1.104
REMARK  Name = 
REMARK  9 active torsions:
REMARK  status: ('A' for Active; 'I' for Inactive)
REMARK    1  A    between atoms: C_1  and  C_2
REMARK    2  A    between atoms: C_2  and  C_3
REMARK    3  A    between atoms: C_3  and  O_4
REMARK    4  A    between atoms: C_3  and  C_5
REMARK    5  A    between atoms: C_3  and  C_18
REMARK    6  A    between atoms: C_5  and  O_7
REMARK    7  A    between atoms: O_7  and  C_8
REMARK    8  A    between atoms: C_8  and  C_9
REMARK    9  A    between atoms: C_15  and  O_16
REMARK                            x       y       z     vdW  Elec       q    Type
REMARK                         _______ _______ _______ _____ _____    ______ ____
ROOT
ATOM      1  C   UNL     1       5.042   5.811  16.171  0.00  0.00    +0.000 C 
ATOM      2  O   UNL     1       5.111   6.882  15.573  0.00  0.00    +0.000 OA
ENDROOT
BRANCH   1   3
ATOM      3  C   UNL     1       6.090   4.680  15.962  0.00  0.00    +0.000 C 
BRANCH   3   4
ATOM      4  C   UNL     1       6.453   4.501  14.477  0.00  0.00    +0.000 A 
ATOM      5  C   UNL     1       7.519   5.221  13.906  0.00  0.00    +0.000 A 
ATOM      6  C   UNL     1       7.851   5.072  12.560  0.00  0.00    +0.000 A 
ATOM      7  C   UNL     1       7.142   4.181  11.753  0.00  0.00    +0.000 A 
ATOM      8  C   UNL     1       6.096   3.449  12.294  0.00  0.00    +0.000 A 
ATOM      9  C   UNL     1       5.754   3.608  13.640  0.00  0.00    +0.000 A 
ENDBRANCH   3   4
BRANCH   3  11
ATOM     10  C   UNL     1       7.463   6.290  17.472  0.00  0.00    +0.000 C 
ATOM     11  C   UNL     1       7.336   4.901  16.854  0.00  0.00    +0.000 C 
ENDBRANCH   3  11
BRANCH   3  12
ATOM     12  O   UNL     1       5.499   3.438  16.406  0.00  0.00    +0.000 OA
ATOM     13  H   UNL     1       4.583   3.656  16.666  0.00  0.00    +0.000 HD
ENDBRANCH   3  12
ENDBRANCH   1   3
BRANCH   1  14
ATOM     14  O   UNL     1       4.068   5.482  17.059  0.00  0.00    +0.000 OA
BRANCH  14  15
ATOM     15  C   UNL     1       4.176   6.021  18.385  0.00  0.00    +0.000 C 
BRANCH  15  16
ATOM     16  C   UNL     1       3.130   5.423  19.266  0.00  0.00    +0.000 C 
ATOM     17  C   UNL     1       2.213   6.074  19.997  0.00  0.00    +0.000 C 
ATOM     18  C   UNL     1       1.394   5.131  20.811  0.00  0.00    +0.000 C 
ATOM     19  N   UNL     1       1.917   3.789  20.506  0.00  0.00    +0.000 NA
ATOM     20  C   UNL     1       0.912   2.880  19.945  0.00  0.00    +0.000 C 
ATOM     21  C   UNL     1       1.671   2.047  18.927  0.00  0.00    +0.000 C 
ATOM     22  C   UNL     1       2.588   3.077  18.296  0.00  0.00    +0.000 C 
ATOM     23  C   UNL     1       3.009   3.950  19.496  0.00  0.00    +0.000 C 
BRANCH  22  24
ATOM     24  O   UNL     1       1.842   3.780  17.295  0.00  0.00    +0.000 OA
ATOM     25  H   UNL     1       1.256   3.133  16.861  0.00  0.00    +0.000 HD
ENDBRANCH  22  24
ENDBRANCH  15  16
ENDBRANCH  14  15
ENDBRANCH   1  14
TORSDOF 8
ENDMDL
MODEL 5
REMARK VINA RESULT:      -7.5      1.164      1.710
REMARK  Name = 
REMARK  9 active torsions:
REMARK  status: ('A' for Active; 'I' for Inactive)
REMARK    1  A    between atoms: C_1  and  C_2
REMARK    2  A    between atoms: C_2  and  C_3
REMARK    3  A    between atoms: C_3  and  O_4
REMARK    4  A    between atoms: C_3  and  C_5
REMARK    5  A    between atoms: C_3  and  C_18
REMARK    6  A    between atoms: C_5  and  O_7
REMARK    7  A    between atoms: O_7  and  C_8
REMARK    8  A    between atoms: C_8  and  C_9
REMARK    9  A    between atoms: C_15  and  O_16
REMARK                            x       y       z     vdW  Elec       q    Type
REMARK                         _______ _______ _______ _____ _____    ______ ____
ROOT
ATOM      1  C   UNL     1       5.412   4.883  16.875  0.00  0.00    +0.000 C 
ATOM      2  O   UNL     1       4.462   5.600  16.569  0.00  0.00    +0.000 OA
ENDROOT
BRANCH   1   3
ATOM      3  C   UNL     1       6.832   5.094  16.274  0.00  0.00    +0.000 C 
BRANCH   3   4
ATOM      4  C   UNL     1       6.874   4.772  14.770  0.00  0.00    +0.000 A 
ATOM      5  C   UNL     1       7.755   5.457  13.913  0.00  0.00    +0.000 A 
ATOM      6  C   UNL     1       7.795   5.178  12.547  0.00  0.00    +0.000 A 
ATOM      7  C   UNL     1       6.972   4.191  12.004  0.00  0.00    +0.000 A 
ATOM      8  C   UNL     1       6.104   3.491  12.829  0.00  0.00    +0.000 A 
ATOM      9  C   UNL     1       6.054   3.779  14.196  0.00  0.00    +0.000 A 
ENDBRANCH   3   4
BRANCH   3  11
ATOM     10  C   UNL     1       7.660   6.788  18.063  0.00  0.00    +0.000 C 
ATOM     11  C   UNL     1       7.367   6.512  16.592  0.00  0.00    +0.000 C 
ENDBRANCH   3  11
BRANCH   3  12
ATOM     12  O   UNL     1       7.733   4.174  16.929  0.00  0.00    +0.000 OA
ATOM     13  H   UNL     1       7.271   3.876  17.737  0.00  0.00    +0.000 HD
ENDBRANCH   3  12
ENDBRANCH   1   3
BRANCH   1  14
ATOM     14  O   UNL     1       5.347   3.840  17.743  0.00  0.00    +0.000 OA
BRANCH  14  15
ATOM     15  C   UNL     1       5.315   4.151  19.144  0.00  0.00    +0.000 C 
BRANCH  15  16
ATOM     16  C   UNL     1       3.904   4.333  19.595  0.00  0.00    +0.000 C 
ATOM     17  C   UNL     1       3.294   5.485  19.913  0.00  0.00    +0.000 C 
ATOM     18  C   UNL     1       1.904   5.250  20.398  0.00  0.00    +0.000 C 
ATOM     19  N   UNL     1       1.711   3.791  20.352  0.00  0.00    +0.000 NA
ATOM     20  C   UNL     1       0.601   3.372  19.490  0.00  0.00    +0.000 C 
ATOM     21  C   UNL     1       1.076   2.076  18.854  0.00  0.00    +0.000 C 
ATOM     22  C   UNL     1       2.535   2.379  18.573  0.00  0.00    +0.000 C 
ATOM     23  C   UNL     1       2.969   3.186  19.813  0.00  0.00    +0.000 C 
BRANCH  22  24
ATOM     24  O   UNL     1       2.606   3.112  17.343  0.00  0.00    +0.000 OA
ATOM     25  H   UNL     1       3.410   3.661  17.379  0.00  0.00    +0.000 HD
ENDBRANCH  22  24
ENDBRANCH  15  16
ENDBRANCH  14  15
ENDBRANCH   1  14
TORSDOF 8
ENDMDL
MODEL 6
REMARK VINA RESULT:      -7.5      1.341      1.794
REMARK  Name = 
REMARK  9 active torsions:
REMARK  status: ('A' for Active; 'I' for Inactive)
REMARK    1  A    between atoms: C_1  and  C_2
REMARK    2  A    between atoms: C_2  and  C_3
REMARK    3  A    between atoms: C_3  and  O_4
REMARK    4  A    between atoms: C_3  and  C_5
REMARK    5  A    between atoms: C_3  and  C_18
REMARK    6  A    between atoms: C_5  and  O_7
REMARK    7  A    between atoms: O_7  and  C_8
REMARK    8  A    between atoms: C_8  and  C_9
REMARK    9  A    between atoms: C_15  and  O_16
REMARK                            x       y       z     vdW  Elec       q    Type
REMARK                         _______ _______ _______ _____ _____    ______ ____
ROOT
ATOM      1  C   UNL     1       5.232   5.615  16.211  0.00  0.00    +0.000 C 
ATOM      2  O   UNL     1       5.442   6.802  15.976  0.00  0.00    +0.000 OA
ENDROOT
BRANCH   1   3
ATOM      3  C   UNL     1       6.285   4.513  15.893  0.00  0.00    +0.000 C 
BRANCH   3   4
ATOM      4  C   UNL     1       6.591   4.428  14.387  0.00  0.00    +0.000 A 
ATOM      5  C   UNL     1       5.883   3.537  13.559  0.00  0.00    +0.000 A 
ATOM      6  C   UNL     1       6.158   3.447  12.195  0.00  0.00    +0.000 A 
ATOM      7  C   UNL     1       7.132   4.261  11.616  0.00  0.00    +0.000 A 
ATOM      8  C   UNL     1       7.834   5.159  12.407  0.00  0.00    +0.000 A 
ATOM      9  C   UNL     1       7.569   5.240  13.777  0.00  0.00    +0.000 A 
ENDBRANCH   3   4
BRANCH   3  11
ATOM     10  C   UNL     1       7.360   5.395  18.089  0.00  0.00    +0.000 C 
ATOM     11  C   UNL     1       7.562   4.697  16.747  0.00  0.00    +0.000 C 
ENDBRANCH   3  11
BRANCH   3  12
ATOM     12  O   UNL     1       5.726   3.239  16.283  0.00  0.00    +0.000 OA
ATOM     13  H   UNL     1       6.375   2.838  16.893  0.00  0.00    +0.000 HD
ENDBRANCH   3  12
ENDBRANCH   1   3
BRANCH   1  14
ATOM     14  O   UNL     1       4.089   5.123  16.755  0.00  0.00    +0.000 OA
BRANCH  14  15
ATOM     15  C   UNL     1       3.802   5.477  18.116  0.00  0.00    +0.000 C 
BRANCH  15  16
ATOM     16  C   UNL     1       3.767   4.250  18.966  0.00  0.00    +0.000 C 
ATOM     17  C   UNL     1       4.813   3.532  19.401  0.00  0.00    +0.000 C 
ATOM     18  C   UNL     1       4.370   2.326  20.159  0.00  0.00    +0.000 C 
ATOM     19  N   UNL     1       2.898   2.368  20.141  0.00  0.00    +0.000 NA
ATOM     20  C   UNL     1       2.296   2.413  21.477  0.00  0.00    +0.000 C 
ATOM     21  C   UNL     1       1.081   3.313  21.322  0.00  0.00    +0.000 C 
ATOM     22  C   UNL     1       1.605   4.393  20.396  0.00  0.00    +0.000 C 
ATOM     23  C   UNL     1       2.491   3.607  19.408  0.00  0.00    +0.000 C 
BRANCH  22  24
ATOM     24  O   UNL     1       2.321   5.348  21.190  0.00  0.00    +0.000 OA
ATOM     25  H   UNL     1       2.322   6.190  20.702  0.00  0.00    +0.000 HD
ENDBRANCH  22  24
ENDBRANCH  15  16
ENDBRANCH  14  15
ENDBRANCH   1  14
TORSDOF 8
ENDMDL
MODEL 7
REMARK VINA RESULT:      -7.4      1.221      1.914
REMARK  Name = 
REMARK  9 active torsions:
REMARK  status: ('A' for Active; 'I' for Inactive)
REMARK    1  A    between atoms: C_1  and  C_2
REMARK    2  A    between atoms: C_2  and  C_3
REMARK    3  A    between atoms: C_3  and  O_4
REMARK    4  A    between atoms: C_3  and  C_5
REMARK    5  A    between atoms: C_3  and  C_18
REMARK    6  A    between atoms: C_5  and  O_7
REMARK    7  A    between atoms: O_7  and  C_8
REMARK    8  A    between atoms: C_8  and  C_9
REMARK    9  A    between atoms: C_15  and  O_16
REMARK                            x       y       z     vdW  Elec       q    Type
REMARK                         _______ _______ _______ _____ _____    ______ ____
ROOT
ATOM      1  C   UNL     1       6.572   4.537  17.063  0.00  0.00    +0.000 C 
ATOM      2  O   UNL     1       7.677   4.190  17.472  0.00  0.00    +0.000 OA
ENDROOT
BRANCH   1   3
ATOM      3  C   UNL     1       6.407   5.592  15.930  0.00  0.00    +0.000 C 
BRANCH   3   4
ATOM      4  C   UNL     1       6.545   4.961  14.533  0.00  0.00    +0.000 A 
ATOM      5  C   UNL     1       5.612   4.011  14.077  0.00  0.00    +0.000 A 
ATOM      6  C   UNL     1       5.733   3.428  12.816  0.00  0.00    +0.000 A 
ATOM      7  C   UNL     1       6.777   3.796  11.966  0.00  0.00    +0.000 A 
ATOM      8  C   UNL     1       7.702   4.740  12.385  0.00  0.00    +0.000 A 
ATOM      9  C   UNL     1       7.589   5.315  13.654  0.00  0.00    +0.000 A 
ENDBRANCH   3   4
BRANCH   3  11
ATOM     10  C   UNL     1       5.047   7.355  17.271  0.00  0.00    +0.000 C 
ATOM     11  C   UNL     1       5.087   6.385  16.094  0.00  0.00    +0.000 C 
ENDBRANCH   3  11
BRANCH   3  12
ATOM     12  O   UNL     1       7.471   6.560  16.065  0.00  0.00    +0.000 OA
ATOM     13  H   UNL     1       7.612   6.671  17.025  0.00  0.00    +0.000 HD
ENDBRANCH   3  12
ENDBRANCH   1   3
BRANCH   1  14
ATOM     14  O   UNL     1       5.388   4.067  17.534  0.00  0.00    +0.000 OA
BRANCH  14  15
ATOM     15  C   UNL     1       5.307   3.775  18.937  0.00  0.00    +0.000 C 
BRANCH  15  16
ATOM     16  C   UNL     1       3.939   4.089  19.445  0.00  0.00    +0.000 C 
ATOM     17  C   UNL     1       3.458   5.291  19.796  0.00  0.00    +0.000 C 
ATOM     18  C   UNL     1       2.071   5.187  20.335  0.00  0.00    +0.000 C 
ATOM     19  N   UNL     1       1.736   3.754  20.286  0.00  0.00    +0.000 NA
ATOM     20  C   UNL     1       0.557   3.455  19.467  0.00  0.00    +0.000 C 
ATOM     21  C   UNL     1       0.878   2.126  18.802  0.00  0.00    +0.000 C 
ATOM     22  C   UNL     1       2.347   2.289  18.465  0.00  0.00    +0.000 C 
ATOM     23  C   UNL     1       2.906   3.036  19.692  0.00  0.00    +0.000 C 
BRANCH  22  24
ATOM     24  O   UNL     1       2.441   3.026  17.239  0.00  0.00    +0.000 OA
ATOM     25  H   UNL     1       1.710   3.669  17.229  0.00  0.00    +0.000 HD
ENDBRANCH  22  24
ENDBRANCH  15  16
ENDBRANCH  14  15
ENDBRANCH   1  14
TORSDOF 8
ENDMDL
MODEL 8
REMARK VINA RESULT:      -7.4      1.330      2.327
REMARK  Name = 
REMARK  9 active torsions:
REMARK  status: ('A' for Active; 'I' for Inactive)
REMARK    1  A    between atoms: C_1  and  C_2
REMARK    2  A    between atoms: C_2  and  C_3
REMARK    3  A    between atoms: C_3  and  O_4
REMARK    4  A    between atoms: C_3  and  C_5
REMARK    5  A    between atoms: C_3  and  C_18
REMARK    6  A    between atoms: C_5  and  O_7
REMARK    7  A    between atoms: O_7  and  C_8
REMARK    8  A    between atoms: C_8  and  C_9
REMARK    9  A    between atoms: C_15  and  O_16
REMARK                            x       y       z     vdW  Elec       q    Type
REMARK                         _______ _______ _______ _____ _____    ______ ____
ROOT
ATOM      1  C   UNL     1       6.963   4.502  17.211  0.00  0.00    +0.000 C 
ATOM      2  O   UNL     1       8.106   4.116  17.446  0.00  0.00    +0.000 OA
ENDROOT
BRANCH   1   3
ATOM      3  C   UNL     1       6.663   5.577  16.126  0.00  0.00    +0.000 C 
BRANCH   3   4
ATOM      4  C   UNL     1       6.719   4.990  14.705  0.00  0.00    +0.000 A 
ATOM      5  C   UNL     1       7.666   5.455  13.773  0.00  0.00    +0.000 A 
ATOM      6  C   UNL     1       7.720   4.935  12.479  0.00  0.00    +0.000 A 
ATOM      7  C   UNL     1       6.845   3.921  12.089  0.00  0.00    +0.000 A 
ATOM      8  C   UNL     1       5.912   3.434  12.993  0.00  0.00    +0.000 A 
ATOM      9  C   UNL     1       5.848   3.964  14.285  0.00  0.00    +0.000 A 
ENDBRANCH   3   4
BRANCH   3  11
ATOM     10  C   UNL     1       4.746   7.097  15.248  0.00  0.00    +0.000 C 
ATOM     11  C   UNL     1       5.326   6.303  16.414  0.00  0.00    +0.000 C 
ENDBRANCH   3  11
BRANCH   3  12
ATOM     12  O   UNL     1       7.690   6.590  16.207  0.00  0.00    +0.000 OA
ATOM     13  H   UNL     1       7.573   7.021  17.075  0.00  0.00    +0.000 HD
ENDBRANCH   3  12
ENDBRANCH   1   3
BRANCH   1  14
ATOM     14  O   UNL     1       5.850   4.063  17.853  0.00  0.00    +0.000 OA
BRANCH  14  15
ATOM     15  C   UNL     1       5.678   4.460  19.221  0.00  0.00    +0.000 C 
BRANCH  15  16
ATOM     16  C   UNL     1       4.225   4.591  19.536  0.00  0.00    +0.000 C 
ATOM     17  C   UNL     1       3.495   5.716  19.556  0.00  0.00    +0.000 C 
ATOM     18  C   UNL     1       2.095   5.451  19.997  0.00  0.00    +0.000 C 
ATOM     19  N   UNL     1       2.033   4.004  20.263  0.00  0.00    +0.000 NA
ATOM     20  C   UNL     1       1.035   3.300  19.450  0.00  0.00    +0.000 C 
ATOM     21  C   UNL     1       1.669   1.953  19.143  0.00  0.00    +0.000 C 
ATOM     22  C   UNL     1       3.114   2.335  18.890  0.00  0.00    +0.000 C 
ATOM     23  C   UNL     1       3.377   3.428  19.946  0.00  0.00    +0.000 C 
BRANCH  22  24
ATOM     24  O   UNL     1       3.220   2.792  17.536  0.00  0.00    +0.000 OA
ATOM     25  H   UNL     1       3.555   2.049  17.003  0.00  0.00    +0.000 HD
ENDBRANCH  22  24
ENDBRANCH  15  16
ENDBRANCH  14  15
ENDBRANCH   1  14
TORSDOF 8
ENDMDL
MODEL 9
REMARK VINA RESULT:      -7.3      1.150      1.215
REMARK  Name = 
REMARK  9 active torsions:
REMARK  status: ('A' for Active; 'I' for Inactive)
REMARK    1  A    between atoms: C_1  and  C_2
REMARK    2  A    between atoms: C_2  and  C_3
REMARK    3  A    between atoms: C_3  and  O_4
REMARK    4  A    between atoms: C_3  and  C_5
REMARK    5  A    between atoms: C_3  and  C_18
REMARK    6  A    between atoms: C_5  and  O_7
REMARK    7  A    between atoms: O_7  and  C_8
REMARK    8  A    between atoms: C_8  and  C_9
REMARK    9  A    between atoms: C_15  and  O_16
REMARK                            x       y       z     vdW  Elec       q    Type
REMARK                         _______ _______ _______ _____ _____    ______ ____
ROOT
ATOM      1  C   UNL     1       5.107   5.786  16.078  0.00  0.00    +0.000 C 
ATOM      2  O   UNL     1       5.138   6.888  15.536  0.00  0.00    +0.000 OA
ENDROOT
BRANCH   1   3
ATOM      3  C   UNL     1       6.218   4.721  15.844  0.00  0.00    +0.000 C 
BRANCH   3   4
ATOM      4  C   UNL     1       6.478   4.481  14.347  0.00  0.00    +0.000 A 
ATOM      5  C   UNL     1       5.657   3.610  13.606  0.00  0.00    +0.000 A 
ATOM      6  C   UNL     1       5.890   3.379  12.250  0.00  0.00    +0.000 A 
ATOM      7  C   UNL     1       6.934   4.029  11.593  0.00  0.00    +0.000 A 
ATOM      8  C   UNL     1       7.749   4.904  12.296  0.00  0.00    +0.000 A 
ATOM      9  C   UNL     1       7.526   5.125  13.658  0.00  0.00    +0.000 A 
ENDBRANCH   3   4
BRANCH   3  11
ATOM     10  C   UNL     1       7.498   4.743  18.107  0.00  0.00    +0.000 C 
ATOM     11  C   UNL     1       7.509   5.082  16.619  0.00  0.00    +0.000 C 
ENDBRANCH   3  11
BRANCH   3  12
ATOM     12  O   UNL     1       5.758   3.469  16.401  0.00  0.00    +0.000 OA
ATOM     13  H   UNL     1       5.918   3.528  17.362  0.00  0.00    +0.000 HD
ENDBRANCH   3  12
ENDBRANCH   1   3
BRANCH   1  14
ATOM     14  O   UNL     1       4.128   5.363  16.919  0.00  0.00    +0.000 OA
BRANCH  14  15
ATOM     15  C   UNL     1       3.709   6.267  17.951  0.00  0.00    +0.000 C 
BRANCH  15  16
ATOM     16  C   UNL     1       2.981   5.521  19.019  0.00  0.00    +0.000 C 
ATOM     17  C   UNL     1       1.671   5.578  19.302  0.00  0.00    +0.000 C 
ATOM     18  C   UNL     1       1.333   4.748  20.495  0.00  0.00    +0.000 C 
ATOM     19  N   UNL     1       2.609   4.160  20.938  0.00  0.00    +0.000 NA
ATOM     20  C   UNL     1       2.607   2.693  20.944  0.00  0.00    +0.000 C 
ATOM     21  C   UNL     1       4.012   2.305  20.513  0.00  0.00    +0.000 C 
ATOM     22  C   UNL     1       4.303   3.326  19.432  0.00  0.00    +0.000 C 
ATOM     23  C   UNL     1       3.671   4.617  19.990  0.00  0.00    +0.000 C 
BRANCH  22  24
ATOM     24  O   UNL     1       3.707   2.863  18.213  0.00  0.00    +0.000 OA
ATOM     25  H   UNL     1       4.357   2.287  17.772  0.00  0.00    +0.000 HD
ENDBRANCH  22  24
ENDBRANCH  15  16
ENDBRANCH  14  15
ENDBRANCH   1  14
TORSDOF 8
ENDMDL
