MODEL 1
REMARK VINA RESULT:      -8.6      0.000      0.000
REMARK  Name = 
REMARK  10 active torsions:
REMARK  status: ('A' for Active; 'I' for Inactive)
REMARK    1  A    between atoms: C_1  and  O_2
REMARK    2  A    between atoms: O_2  and  C_3
REMARK    3  A    between atoms: C_6  and  C_7
REMARK    4  A    between atoms: C_10  and  C_11
REMARK    5  A    between atoms: C_14  and  N_15
REMARK    6  A    between atoms: C_16  and  C_18
REMARK    7  A    between atoms: C_25  and  O_26
REMARK    8  A    between atoms: O_26  and  C_27
REMARK    9  A    between atoms: C_27  and  C_28
REMARK   10  A    between atoms: C_27  and  C_29
REMARK                            x       y       z     vdW  Elec       q    Type
REMARK                         _______ _______ _______ _____ _____    ______ ____
ROOT
ATOM      1  C   UNL     1       2.448   7.171  19.301  0.00  0.00    +0.000 A 
ATOM      2  C   UNL     1       2.730   7.888  18.116  0.00  0.00    +0.000 A 
ATOM      3  C   UNL     1       3.645   7.415  17.164  0.00  0.00    +0.000 A 
ATOM      4  C   UNL     1       4.328   6.212  17.360  0.00  0.00    +0.000 A 
ATOM      5  C   UNL     1       4.006   5.475  18.506  0.00  0.00    +0.000 A 
ATOM      6  C   UNL     1       3.060   5.912  19.463  0.00  0.00    +0.000 A 
ENDROOT
BRANCH   1  10
ATOM      7  C   UNL     1       0.578   9.577  21.177  0.00  0.00    +0.000 A 
ATOM      8  C   UNL     1       0.054   8.458  21.792  0.00  0.00    +0.000 A 
ATOM      9  C   UNL     1       0.812   7.354  21.339  0.00  0.00    +0.000 A 
ATOM     10  C   UNL     1       1.615   7.819  20.313  0.00  0.00    +0.000 A 
ATOM     11  O   UNL     1       1.523   9.188  20.262  0.00  0.00    +0.000 OA
BRANCH   7  15
ATOM     12  C   UNL     1       0.016  13.787  21.763  0.00  0.00    +0.000 A 
ATOM     13  C   UNL     1      -0.795  12.870  22.431  0.00  0.00    +0.000 A 
ATOM     14  C   UNL     1      -0.629  11.494  22.217  0.00  0.00    +0.000 A 
ATOM     15  C   UNL     1       0.338  11.012  21.321  0.00  0.00    +0.000 A 
ATOM     16  C   UNL     1       1.110  11.948  20.623  0.00  0.00    +0.000 A 
ATOM     17  C   UNL     1       0.952  13.323  20.841  0.00  0.00    +0.000 A 
BRANCH  12  19
ATOM     18  C   UNL     1      -0.660  15.360  23.389  0.00  0.00    +0.000 C 
ATOM     19  O   UNL     1      -0.207  15.103  22.062  0.00  0.00    +0.000 OA
ENDBRANCH  12  19
ENDBRANCH   7  15
ENDBRANCH   1  10
BRANCH   4  20
ATOM     20  N   UNL     1       5.346   5.836  16.459  0.00  0.00    +0.000 N 
ATOM     21  C   UNL     1       5.604   4.584  15.936  0.00  0.00    +0.000 C 
ATOM     22  N   UNL     1       5.362   3.472  16.565  0.00  0.00    +0.000 NA
ATOM     23  H   UNL     1       5.731   6.606  15.915  0.00  0.00    +0.000 HD
ATOM     24  H   UNL     1       4.977   3.704  17.485  0.00  0.00    +0.000 HD
BRANCH  21  25
ATOM     25  C   UNL     1       6.258   4.514  14.582  0.00  0.00    +0.000 A 
ATOM     26  C   UNL     1       5.752   3.674  13.589  0.00  0.00    +0.000 A 
ATOM     27  C   UNL     1       6.364   3.668  12.340  0.00  0.00    +0.000 A 
ATOM     28  C   UNL     1       7.458   4.495  12.122  0.00  0.00    +0.000 A 
ATOM     29  C   UNL     1       7.908   5.285  13.171  0.00  0.00    +0.000 A 
ATOM     30  N   UNL     1       7.349   5.314  14.404  0.00  0.00    +0.000 NA
ENDBRANCH  21  25
ENDBRANCH   4  20
BRANCH   6  31
ATOM     31  O   UNL     1       2.943   5.015  20.492  0.00  0.00    +0.000 OA
BRANCH  31  32
ATOM     32  C   UNL     1       2.378   3.716  20.305  0.00  0.00    +0.000 C 
ATOM     33  C   UNL     1       2.506   2.850  21.547  0.00  0.00    +0.000 C 
ATOM     34  C   UNL     1       0.915   3.939  19.927  0.00  0.00    +0.000 C 
ENDBRANCH  31  32
ENDBRANCH   6  31
TORSDOF 7
ENDMDL
MODEL 2
REMARK VINA RESULT:      -8.6      0.926      1.198
REMARK  Name = 
REMARK  10 active torsions:
REMARK  status: ('A' for Active; 'I' for Inactive)
REMARK    1  A    between atoms: C_1  and  O_2
REMARK    2  A    between atoms: O_2  and  C_3
REMARK    3  A    between atoms: C_6  and  C_7
REMARK    4  A    between atoms: C_10  and  C_11
REMARK    5  A    between atoms: C_14  and  N_15
REMARK    6  A    between atoms: C_16  and  C_18
REMARK    7  A    between atoms: C_25  and  O_26
REMARK    8  A    between atoms: O_26  and  C_27
REMARK    9  A    between atoms: C_27  and  C_28
REMARK   10  A    between atoms: C_27  and  C_29
REMARK                            x       y       z     vdW  Elec       q    Type
REMARK                         _______ _______ _______ _____ _____    ______ ____
ROOT
ATOM      1  C   UNL     1       2.447   7.244  19.208  0.00  0.00    +0.000 A 
ATOM      2  C   UNL     1       2.733   7.933  18.008  0.00  0.00    +0.000 A 
ATOM      3  C   UNL     1       3.652   7.438  17.071  0.00  0.00    +0.000 A 
ATOM      4  C   UNL     1       4.332   6.240  17.296  0.00  0.00    +0.000 A 
ATOM      5  C   UNL     1       4.006   5.529  18.457  0.00  0.00    +0.000 A 
ATOM      6  C   UNL     1       3.057   5.988  19.401  0.00  0.00    +0.000 A 
ENDROOT
BRANCH   1  10
ATOM      7  C   UNL     1       0.331   9.589  20.890  0.00  0.00    +0.000 A 
ATOM      8  C   UNL     1       0.119   8.537  21.758  0.00  0.00    +0.000 A 
ATOM      9  C   UNL     1       1.036   7.524  21.398  0.00  0.00    +0.000 A 
ATOM     10  C   UNL     1       1.611   7.916  20.203  0.00  0.00    +0.000 A 
ATOM     11  O   UNL     1       1.233   9.207  19.930  0.00  0.00    +0.000 OA
BRANCH   7  15
ATOM     12  C   UNL     1      -1.371  13.516  20.632  0.00  0.00    +0.000 A 
ATOM     13  C   UNL     1      -0.809  12.917  19.503  0.00  0.00    +0.000 A 
ATOM     14  C   UNL     1      -0.228  11.645  19.595  0.00  0.00    +0.000 A 
ATOM     15  C   UNL     1      -0.184  10.956  20.818  0.00  0.00    +0.000 A 
ATOM     16  C   UNL     1      -0.708  11.592  21.949  0.00  0.00    +0.000 A 
ATOM     17  C   UNL     1      -1.297  12.860  21.858  0.00  0.00    +0.000 A 
BRANCH  12  19
ATOM     18  C   UNL     1      -2.850  15.170  21.441  0.00  0.00    +0.000 C 
ATOM     19  O   UNL     1      -1.937  14.745  20.430  0.00  0.00    +0.000 OA
ENDBRANCH  12  19
ENDBRANCH   7  15
ENDBRANCH   1  10
BRANCH   4  20
ATOM     20  N   UNL     1       5.354   5.843  16.407  0.00  0.00    +0.000 N 
ATOM     21  C   UNL     1       5.587   4.587  15.882  0.00  0.00    +0.000 C 
ATOM     22  N   UNL     1       5.308   3.478  16.501  0.00  0.00    +0.000 NA
ATOM     23  H   UNL     1       5.765   6.605  15.873  0.00  0.00    +0.000 HD
ATOM     24  H   UNL     1       4.916   3.715  17.417  0.00  0.00    +0.000 HD
BRANCH  21  25
ATOM     25  C   UNL     1       6.258   4.508  14.537  0.00  0.00    +0.000 A 
ATOM     26  C   UNL     1       5.767   3.656  13.545  0.00  0.00    +0.000 A 
ATOM     27  C   UNL     1       6.394   3.641  12.303  0.00  0.00    +0.000 A 
ATOM     28  C   UNL     1       7.489   4.470  12.092  0.00  0.00    +0.000 A 
ATOM     29  C   UNL     1       7.922   5.272  13.139  0.00  0.00    +0.000 A 
ATOM     30  N   UNL     1       7.348   5.309  14.365  0.00  0.00    +0.000 NA
ENDBRANCH  21  25
ENDBRANCH   4  20
BRANCH   6  31
ATOM     31  O   UNL     1       2.936   5.116  20.450  0.00  0.00    +0.000 OA
BRANCH  31  32
ATOM     32  C   UNL     1       2.371   3.813  20.290  0.00  0.00    +0.000 C 
ATOM     33  C   UNL     1       2.523   2.963  21.541  0.00  0.00    +0.000 C 
ATOM     34  C   UNL     1       0.900   4.028  19.937  0.00  0.00    +0.000 C 
ENDBRANCH  31  32
ENDBRANCH   6  31
TORSDOF 7
ENDMDL
MODEL 3
REMARK VINA RESULT:      -8.2      5.133     11.673
REMARK  Name = 
REMARK  10 active torsions:
REMARK  status: ('A' for Active; 'I' for Inactive)
REMARK    1  A    between atoms: C_1  and  O_2
REMARK    2  A    between atoms: O_2  and  C_3
REMARK    3  A    between atoms: C_6  and  C_7
REMARK    4  A    between atoms: C_10  and  C_11
REMARK    5  A    between atoms: C_14  and  N_15
REMARK    6  A    between atoms: C_16  and  C_18
REMARK    7  A    between atoms: C_25  and  O_26
REMARK    8  A    between atoms: O_26  and  C_27
REMARK    9  A    between atoms: C_27  and  C_28
REMARK   10  A    between atoms: C_27  and  C_29
REMARK                            x       y       z     vdW  Elec       q    Type
REMARK                         _______ _______ _______ _____ _____    ______ ____
ROOT
ATOM      1  C   UNL     1      -0.056  10.454  20.408  0.00  0.00    +0.000 A 
ATOM      2  C   UNL     1       0.146  10.384  21.805  0.00  0.00    +0.000 A 
ATOM      3  C   UNL     1      -0.632  11.129  22.704  0.00  0.00    +0.000 A 
ATOM      4  C   UNL     1      -1.638  11.983  22.247  0.00  0.00    +0.000 A 
ATOM      5  C   UNL     1      -1.876  12.008  20.867  0.00  0.00    +0.000 A 
ATOM      6  C   UNL     1      -1.130  11.240  19.942  0.00  0.00    +0.000 A 
ENDROOT
BRANCH   1  10
ATOM      7  C   UNL     1       1.990   7.985  18.821  0.00  0.00    +0.000 A 
ATOM      8  C   UNL     1       2.170   8.970  17.872  0.00  0.00    +0.000 A 
ATOM      9  C   UNL     1       1.596  10.150  18.398  0.00  0.00    +0.000 A 
ATOM     10  C   UNL     1       0.909   9.781  19.540  0.00  0.00    +0.000 A 
ATOM     11  O   UNL     1       1.208   8.474  19.836  0.00  0.00    +0.000 OA
BRANCH   7  15
ATOM     12  C   UNL     1       3.562   4.020  19.264  0.00  0.00    +0.000 A 
ATOM     13  C   UNL     1       3.731   4.714  18.065  0.00  0.00    +0.000 A 
ATOM     14  C   UNL     1       3.192   5.999  17.911  0.00  0.00    +0.000 A 
ATOM     15  C   UNL     1       2.463   6.607  18.946  0.00  0.00    +0.000 A 
ATOM     16  C   UNL     1       2.262   5.877  20.123  0.00  0.00    +0.000 A 
ATOM     17  C   UNL     1       2.806   4.596  20.282  0.00  0.00    +0.000 A 
BRANCH  12  19
ATOM     18  C   UNL     1       3.568   1.792  18.480  0.00  0.00    +0.000 C 
ATOM     19  O   UNL     1       4.149   2.786  19.322  0.00  0.00    +0.000 OA
ENDBRANCH  12  19
ENDBRANCH   7  15
ENDBRANCH   1  10
BRANCH   4  20
ATOM     20  N   UNL     1      -2.304  12.826  23.162  0.00  0.00    +0.000 N 
ATOM     21  C   UNL     1      -1.941  14.093  23.575  0.00  0.00    +0.000 C 
ATOM     22  N   UNL     1      -0.710  14.503  23.660  0.00  0.00    +0.000 NA
ATOM     23  H   UNL     1      -3.289  12.606  23.295  0.00  0.00    +0.000 HD
ATOM     24  H   UNL     1      -0.097  13.728  23.390  0.00  0.00    +0.000 HD
BRANCH  21  25
ATOM     25  C   UNL     1      -3.040  15.028  24.004  0.00  0.00    +0.000 A 
ATOM     26  C   UNL     1      -2.760  16.132  24.810  0.00  0.00    +0.000 A 
ATOM     27  C   UNL     1      -3.799  16.992  25.153  0.00  0.00    +0.000 A 
ATOM     28  C   UNL     1      -5.078  16.723  24.685  0.00  0.00    +0.000 A 
ATOM     29  C   UNL     1      -5.271  15.592  23.903  0.00  0.00    +0.000 A 
ATOM     30  N   UNL     1      -4.291  14.724  23.555  0.00  0.00    +0.000 NA
ENDBRANCH  21  25
ENDBRANCH   4  20
BRANCH   6  31
ATOM     31  O   UNL     1      -1.553  11.459  18.658  0.00  0.00    +0.000 OA
BRANCH  31  32
ATOM     32  C   UNL     1      -2.559  10.652  18.044  0.00  0.00    +0.000 C 
ATOM     33  C   UNL     1      -3.694  11.486  17.471  0.00  0.00    +0.000 C 
ATOM     34  C   UNL     1      -1.853   9.846  16.955  0.00  0.00    +0.000 C 
ENDBRANCH  31  32
ENDBRANCH   6  31
TORSDOF 7
ENDMDL
MODEL 4
REMARK VINA RESULT:      -8.0      5.342     11.495
REMARK  Name = 
REMARK  10 active torsions:
REMARK  status: ('A' for Active; 'I' for Inactive)
REMARK    1  A    between atoms: C_1  and  O_2
REMARK    2  A    between atoms: O_2  and  C_3
REMARK    3  A    between atoms: C_6  and  C_7
REMARK    4  A    between atoms: C_10  and  C_11
REMARK    5  A    between atoms: C_14  and  N_15
REMARK    6  A    between atoms: C_16  and  C_18
REMARK    7  A    between atoms: C_25  and  O_26
REMARK    8  A    between atoms: O_26  and  C_27
REMARK    9  A    between atoms: C_27  and  C_28
REMARK   10  A    between atoms: C_27  and  C_29
REMARK                            x       y       z     vdW  Elec       q    Type
REMARK                         _______ _______ _______ _____ _____    ______ ____
ROOT
ATOM      1  C   UNL     1      -0.233  10.727  19.549  0.00  0.00    +0.000 A 
ATOM      2  C   UNL     1      -0.210  11.113  20.908  0.00  0.00    +0.000 A 
ATOM      3  C   UNL     1      -1.143  12.018  21.437  0.00  0.00    +0.000 A 
ATOM      4  C   UNL     1      -2.132  12.584  20.630  0.00  0.00    +0.000 A 
ATOM      5  C   UNL     1      -2.189  12.157  19.297  0.00  0.00    +0.000 A 
ATOM      6  C   UNL     1      -1.283  11.219  18.749  0.00  0.00    +0.000 A 
ENDROOT
BRANCH   1  10
ATOM      7  C   UNL     1       2.047   8.040  18.929  0.00  0.00    +0.000 A 
ATOM      8  C   UNL     1       2.439   8.826  17.864  0.00  0.00    +0.000 A 
ATOM      9  C   UNL     1       1.792  10.072  18.021  0.00  0.00    +0.000 A 
ATOM     10  C   UNL     1       0.877   9.918  19.047  0.00  0.00    +0.000 A 
ATOM     11  O   UNL     1       1.082   8.700  19.646  0.00  0.00    +0.000 OA
BRANCH   7  15
ATOM     12  C   UNL     1       3.105   4.088  20.215  0.00  0.00    +0.000 A 
ATOM     13  C   UNL     1       2.091   4.792  20.866  0.00  0.00    +0.000 A 
ATOM     14  C   UNL     1       1.765   6.095  20.463  0.00  0.00    +0.000 A 
ATOM     15  C   UNL     1       2.456   6.722  19.413  0.00  0.00    +0.000 A 
ATOM     16  C   UNL     1       3.502   6.020  18.804  0.00  0.00    +0.000 A 
ATOM     17  C   UNL     1       3.824   4.715  19.199  0.00  0.00    +0.000 A 
BRANCH  12  19
ATOM     18  C   UNL     1       2.453   2.374  21.702  0.00  0.00    +0.000 C 
ATOM     19  O   UNL     1       3.326   2.816  20.665  0.00  0.00    +0.000 OA
ENDBRANCH  12  19
ENDBRANCH   7  15
ENDBRANCH   1  10
BRANCH   4  20
ATOM     20  N   UNL     1      -2.961  13.597  21.154  0.00  0.00    +0.000 N 
ATOM     21  C   UNL     1      -4.024  13.465  22.026  0.00  0.00    +0.000 C 
ATOM     22  N   UNL     1      -4.794  12.418  22.077  0.00  0.00    +0.000 NA
ATOM     23  H   UNL     1      -2.553  14.530  21.127  0.00  0.00    +0.000 HD
ATOM     24  H   UNL     1      -4.478  11.756  21.364  0.00  0.00    +0.000 HD
BRANCH  21  25
ATOM     25  C   UNL     1      -4.336  14.630  22.927  0.00  0.00    +0.000 A 
ATOM     26  C   UNL     1      -5.658  14.951  23.242  0.00  0.00    +0.000 A 
ATOM     27  C   UNL     1      -5.901  16.013  24.108  0.00  0.00    +0.000 A 
ATOM     28  C   UNL     1      -4.823  16.718  24.628  0.00  0.00    +0.000 A 
ATOM     29  C   UNL     1      -3.542  16.342  24.247  0.00  0.00    +0.000 A 
ATOM     30  N   UNL     1      -3.261  15.324  23.400  0.00  0.00    +0.000 NA
ENDBRANCH  21  25
ENDBRANCH   4  20
BRANCH   6  31
ATOM     31  O   UNL     1      -1.548  10.987  17.425  0.00  0.00    +0.000 OA
BRANCH  31  32
ATOM     32  C   UNL     1      -2.879  10.793  16.942  0.00  0.00    +0.000 C 
ATOM     33  C   UNL     1      -2.945  10.794  15.423  0.00  0.00    +0.000 C 
ATOM     34  C   UNL     1      -3.352   9.461  17.521  0.00  0.00    +0.000 C 
ENDBRANCH  31  32
ENDBRANCH   6  31
TORSDOF 7
ENDMDL
MODEL 5
REMARK VINA RESULT:      -7.9      5.342     11.616
REMARK  Name = 
REMARK  10 active torsions:
REMARK  status: ('A' for Active; 'I' for Inactive)
REMARK    1  A    between atoms: C_1  and  O_2
REMARK    2  A    between atoms: O_2  and  C_3
REMARK    3  A    between atoms: C_6  and  C_7
REMARK    4  A    between atoms: C_10  and  C_11
REMARK    5  A    between atoms: C_14  and  N_15
REMARK    6  A    between atoms: C_16  and  C_18
REMARK    7  A    between atoms: C_25  and  O_26
REMARK    8  A    between atoms: O_26  and  C_27
REMARK    9  A    between atoms: C_27  and  C_28
REMARK   10  A    between atoms: C_27  and  C_29
REMARK                            x       y       z     vdW  Elec       q    Type
REMARK                         _______ _______ _______ _____ _____    ______ ____
ROOT
ATOM      1  C   UNL     1      -0.317  10.926  19.572  0.00  0.00    +0.000 A 
ATOM      2  C   UNL     1      -0.301  11.240  20.950  0.00  0.00    +0.000 A 
ATOM      3  C   UNL     1      -1.236  12.116  21.521  0.00  0.00    +0.000 A 
ATOM      4  C   UNL     1      -2.220  12.724  20.741  0.00  0.00    +0.000 A 
ATOM      5  C   UNL     1      -2.272  12.369  19.387  0.00  0.00    +0.000 A 
ATOM      6  C   UNL     1      -1.364  11.460  18.794  0.00  0.00    +0.000 A 
ENDROOT
BRANCH   1  10
ATOM      7  C   UNL     1       1.934   8.261  18.778  0.00  0.00    +0.000 A 
ATOM      8  C   UNL     1       2.376   9.134  17.805  0.00  0.00    +0.000 A 
ATOM      9  C   UNL     1       1.747  10.374  18.056  0.00  0.00    +0.000 A 
ATOM     10  C   UNL     1       0.795  10.144  19.033  0.00  0.00    +0.000 A 
ATOM     11  O   UNL     1       0.958   8.872  19.523  0.00  0.00    +0.000 OA
BRANCH   7  15
ATOM     12  C   UNL     1       2.832   4.190  19.784  0.00  0.00    +0.000 A 
ATOM     13  C   UNL     1       2.141   5.002  20.685  0.00  0.00    +0.000 A 
ATOM     14  C   UNL     1       1.873   6.340  20.367  0.00  0.00    +0.000 A 
ATOM     15  C   UNL     1       2.303   6.896  19.151  0.00  0.00    +0.000 A 
ATOM     16  C   UNL     1       3.037   6.082  18.281  0.00  0.00    +0.000 A 
ATOM     17  C   UNL     1       3.299   4.741  18.593  0.00  0.00    +0.000 A 
BRANCH  12  19
ATOM     18  C   UNL     1       2.877   1.917  19.147  0.00  0.00    +0.000 C 
ATOM     19  O   UNL     1       3.018   2.893  20.177  0.00  0.00    +0.000 OA
ENDBRANCH  12  19
ENDBRANCH   7  15
ENDBRANCH   1  10
BRANCH   4  20
ATOM     20  N   UNL     1      -3.052  13.710  21.314  0.00  0.00    +0.000 N 
ATOM     21  C   UNL     1      -4.135  13.530  22.152  0.00  0.00    +0.000 C 
ATOM     22  N   UNL     1      -4.916  12.491  22.116  0.00  0.00    +0.000 NA
ATOM     23  H   UNL     1      -2.635  14.637  21.360  0.00  0.00    +0.000 HD
ATOM     24  H   UNL     1      -4.590  11.874  21.366  0.00  0.00    +0.000 HD
BRANCH  21  25
ATOM     25  C   UNL     1      -4.457  14.635  23.123  0.00  0.00    +0.000 A 
ATOM     26  C   UNL     1      -3.449  15.225  23.889  0.00  0.00    +0.000 A 
ATOM     27  C   UNL     1      -3.784  16.269  24.746  0.00  0.00    +0.000 A 
ATOM     28  C   UNL     1      -5.107  16.687  24.813  0.00  0.00    +0.000 A 
ATOM     29  C   UNL     1      -6.047  16.032  24.030  0.00  0.00    +0.000 A 
ATOM     30  N   UNL     1      -5.767  15.006  23.191  0.00  0.00    +0.000 NA
ENDBRANCH  21  25
ENDBRANCH   4  20
BRANCH   6  31
ATOM     31  O   UNL     1      -1.623  11.299  17.459  0.00  0.00    +0.000 OA
BRANCH  31  32
ATOM     32  C   UNL     1      -2.179  10.091  16.936  0.00  0.00    +0.000 C 
ATOM     33  C   UNL     1      -3.284   9.537  17.821  0.00  0.00    +0.000 C 
ATOM     34  C   UNL     1      -2.699  10.431  15.540  0.00  0.00    +0.000 C 
ENDBRANCH  31  32
ENDBRANCH   6  31
TORSDOF 7
ENDMDL
MODEL 6
REMARK VINA RESULT:      -7.8      5.060     11.527
REMARK  Name = 
REMARK  10 active torsions:
REMARK  status: ('A' for Active; 'I' for Inactive)
REMARK    1  A    between atoms: C_1  and  O_2
REMARK    2  A    between atoms: O_2  and  C_3
REMARK    3  A    between atoms: C_6  and  C_7
REMARK    4  A    between atoms: C_10  and  C_11
REMARK    5  A    between atoms: C_14  and  N_15
REMARK    6  A    between atoms: C_16  and  C_18
REMARK    7  A    between atoms: C_25  and  O_26
REMARK    8  A    between atoms: O_26  and  C_27
REMARK    9  A    between atoms: C_27  and  C_28
REMARK   10  A    between atoms: C_27  and  C_29
REMARK                            x       y       z     vdW  Elec       q    Type
REMARK                         _______ _______ _______ _____ _____    ______ ____
ROOT
ATOM      1  C   UNL     1       0.149  10.412  20.218  0.00  0.00    +0.000 A 
ATOM      2  C   UNL     1       0.144  10.143  21.605  0.00  0.00    +0.000 A 
ATOM      3  C   UNL     1      -0.592  10.925  22.508  0.00  0.00    +0.000 A 
ATOM      4  C   UNL     1      -1.346  12.014  22.067  0.00  0.00    +0.000 A 
ATOM      5  C   UNL     1      -1.386  12.244  20.686  0.00  0.00    +0.000 A 
ATOM      6  C   UNL     1      -0.683  11.450  19.751  0.00  0.00    +0.000 A 
ENDROOT
BRANCH   1  10
ATOM      7  C   UNL     1       2.170   7.813  18.815  0.00  0.00    +0.000 A 
ATOM      8  C   UNL     1       2.250   8.671  17.738  0.00  0.00    +0.000 A 
ATOM      9  C   UNL     1       1.671   9.893  18.149  0.00  0.00    +0.000 A 
ATOM     10  C   UNL     1       1.077   9.657  19.376  0.00  0.00    +0.000 A 
ATOM     11  O   UNL     1       1.441   8.408  19.814  0.00  0.00    +0.000 OA
BRANCH   7  15
ATOM     12  C   UNL     1       3.575   3.813  19.456  0.00  0.00    +0.000 A 
ATOM     13  C   UNL     1       2.570   4.343  20.265  0.00  0.00    +0.000 A 
ATOM     14  C   UNL     1       2.131   5.660  20.073  0.00  0.00    +0.000 A 
ATOM     15  C   UNL     1       2.698   6.476  19.080  0.00  0.00    +0.000 A 
ATOM     16  C   UNL     1       3.739   5.943  18.310  0.00  0.00    +0.000 A 
ATOM     17  C   UNL     1       4.173   4.624  18.494  0.00  0.00    +0.000 A 
BRANCH  12  19
ATOM     18  C   UNL     1       3.597   1.588  18.664  0.00  0.00    +0.000 C 
ATOM     19  O   UNL     1       3.911   2.510  19.705  0.00  0.00    +0.000 OA
ENDBRANCH  12  19
ENDBRANCH   7  15
ENDBRANCH   1  10
BRANCH   4  20
ATOM     20  N   UNL     1      -1.956  12.866  23.012  0.00  0.00    +0.000 N 
ATOM     21  C   UNL     1      -1.629  14.172  23.319  0.00  0.00    +0.000 C 
ATOM     22  N   UNL     1      -0.424  14.656  23.243  0.00  0.00    +0.000 NA
ATOM     23  H   UNL     1      -2.904  12.598  23.268  0.00  0.00    +0.000 HD
ATOM     24  H   UNL     1       0.202  13.904  22.941  0.00  0.00    +0.000 HD
BRANCH  21  25
ATOM     25  C   UNL     1      -2.730  15.065  23.827  0.00  0.00    +0.000 A 
ATOM     26  C   UNL     1      -4.050  14.872  23.416  0.00  0.00    +0.000 A 
ATOM     27  C   UNL     1      -5.042  15.696  23.939  0.00  0.00    +0.000 A 
ATOM     28  C   UNL     1      -4.686  16.683  24.850  0.00  0.00    +0.000 A 
ATOM     29  C   UNL     1      -3.347  16.817  25.189  0.00  0.00    +0.000 A 
ATOM     30  N   UNL     1      -2.350  16.045  24.697  0.00  0.00    +0.000 NA
ENDBRANCH  21  25
ENDBRANCH   4  20
BRANCH   6  31
ATOM     31  O   UNL     1      -0.879  11.896  18.471  0.00  0.00    +0.000 OA
BRANCH  31  32
ATOM     32  C   UNL     1      -1.991  11.468  17.682  0.00  0.00    +0.000 C 
ATOM     33  C   UNL     1      -1.858  10.019  17.242  0.00  0.00    +0.000 C 
ATOM     34  C   UNL     1      -3.232  11.677  18.548  0.00  0.00    +0.000 C 
ENDBRANCH  31  32
ENDBRANCH   6  31
TORSDOF 7
ENDMDL
MODEL 7
REMARK VINA RESULT:      -7.7      5.391     11.667
REMARK  Name = 
REMARK  10 active torsions:
REMARK  status: ('A' for Active; 'I' for Inactive)
REMARK    1  A    between atoms: C_1  and  O_2
REMARK    2  A    between atoms: O_2  and  C_3
REMARK    3  A    between atoms: C_6  and  C_7
REMARK    4  A    between atoms: C_10  and  C_11
REMARK    5  A    between atoms: C_14  and  N_15
REMARK    6  A    between atoms: C_16  and  C_18
REMARK    7  A    between atoms: C_25  and  O_26
REMARK    8  A    between atoms: O_26  and  C_27
REMARK    9  A    between atoms: C_27  and  C_28
REMARK   10  A    between atoms: C_27  and  C_29
REMARK                            x       y       z     vdW  Elec       q    Type
REMARK                         _______ _______ _______ _____ _____    ______ ____
ROOT
ATOM      1  C   UNL     1      -0.239  10.617  20.561  0.00  0.00    +0.000 A 
ATOM      2  C   UNL     1      -0.095  10.653  21.967  0.00  0.00    +0.000 A 
ATOM      3  C   UNL     1      -0.866  11.508  22.768  0.00  0.00    +0.000 A 
ATOM      4  C   UNL     1      -1.807  12.370  22.201  0.00  0.00    +0.000 A 
ATOM      5  C   UNL     1      -1.990  12.292  20.815  0.00  0.00    +0.000 A 
ATOM      6  C   UNL     1      -1.251  11.414  19.988  0.00  0.00    +0.000 A 
ENDROOT
BRANCH   1  10
ATOM      7  C   UNL     1       1.816   7.953  19.344  0.00  0.00    +0.000 A 
ATOM      8  C   UNL     1       1.968   8.780  18.250  0.00  0.00    +0.000 A 
ATOM      9  C   UNL     1       1.386  10.020  18.595  0.00  0.00    +0.000 A 
ATOM     10  C   UNL     1       0.722   9.827  19.793  0.00  0.00    +0.000 A 
ATOM     11  O   UNL     1       1.043   8.586  20.284  0.00  0.00    +0.000 OA
BRANCH   7  15
ATOM     12  C   UNL     1       3.118   3.953  20.175  0.00  0.00    +0.000 A 
ATOM     13  C   UNL     1       2.108   4.537  20.940  0.00  0.00    +0.000 A 
ATOM     14  C   UNL     1       1.702   5.854  20.686  0.00  0.00    +0.000 A 
ATOM     15  C   UNL     1       2.309   6.616  19.674  0.00  0.00    +0.000 A 
ATOM     16  C   UNL     1       3.354   6.031  18.950  0.00  0.00    +0.000 A 
ATOM     17  C   UNL     1       3.755   4.712  19.196  0.00  0.00    +0.000 A 
BRANCH  12  19
ATOM     18  C   UNL     1       4.513   2.093  19.760  0.00  0.00    +0.000 C 
ATOM     19  O   UNL     1       3.420   2.655  20.485  0.00  0.00    +0.000 OA
ENDBRANCH  12  19
ENDBRANCH   7  15
ENDBRANCH   1  10
BRANCH   4  20
ATOM     20  N   UNL     1      -2.461  13.318  23.016  0.00  0.00    +0.000 N 
ATOM     21  C   UNL     1      -1.970  14.518  23.493  0.00  0.00    +0.000 C 
ATOM     22  N   UNL     1      -0.717  14.731  23.766  0.00  0.00    +0.000 NA
ATOM     23  H   UNL     1      -3.477  13.257  22.998  0.00  0.00    +0.000 HD
ATOM     24  H   UNL     1      -0.200  13.867  23.582  0.00  0.00    +0.000 HD
BRANCH  21  25
ATOM     25  C   UNL     1      -2.961  15.619  23.763  0.00  0.00    +0.000 A 
ATOM     26  C   UNL     1      -4.261  15.320  24.175  0.00  0.00    +0.000 A 
ATOM     27  C   UNL     1      -5.134  16.369  24.451  0.00  0.00    +0.000 A 
ATOM     28  C   UNL     1      -4.684  17.675  24.304  0.00  0.00    +0.000 A 
ATOM     29  C   UNL     1      -3.381  17.881  23.872  0.00  0.00    +0.000 A 
ATOM     30  N   UNL     1      -2.503  16.891  23.584  0.00  0.00    +0.000 NA
ENDBRANCH  21  25
ENDBRANCH   4  20
BRANCH   6  31
ATOM     31  O   UNL     1      -1.612  11.547  18.674  0.00  0.00    +0.000 OA
BRANCH  31  32
ATOM     32  C   UNL     1      -2.641  10.748  18.087  0.00  0.00    +0.000 C 
ATOM     33  C   UNL     1      -3.826  11.584  17.629  0.00  0.00    +0.000 C 
ATOM     34  C   UNL     1      -1.992  10.011  16.916  0.00  0.00    +0.000 C 
ENDBRANCH  31  32
ENDBRANCH   6  31
TORSDOF 7
ENDMDL
MODEL 8
REMARK VINA RESULT:      -7.7      5.252     11.388
REMARK  Name = 
REMARK  10 active torsions:
REMARK  status: ('A' for Active; 'I' for Inactive)
REMARK    1  A    between atoms: C_1  and  O_2
REMARK    2  A    between atoms: O_2  and  C_3
REMARK    3  A    between atoms: C_6  and  C_7
REMARK    4  A    between atoms: C_10  and  C_11
REMARK    5  A    between atoms: C_14  and  N_15
REMARK    6  A    between atoms: C_16  and  C_18
REMARK    7  A    between atoms: C_25  and  O_26
REMARK    8  A    between atoms: O_26  and  C_27
REMARK    9  A    between atoms: C_27  and  C_28
REMARK   10  A    between atoms: C_27  and  C_29
REMARK                            x       y       z     vdW  Elec       q    Type
REMARK                         _______ _______ _______ _____ _____    ______ ____
ROOT
ATOM      1  C   UNL     1       0.304  10.225  19.656  0.00  0.00    +0.000 A 
ATOM      2  C   UNL     1       0.526  10.556  21.012  0.00  0.00    +0.000 A 
ATOM      3  C   UNL     1      -0.322  11.430  21.709  0.00  0.00    +0.000 A 
ATOM      4  C   UNL     1      -1.421  12.018  21.080  0.00  0.00    +0.000 A 
ATOM      5  C   UNL     1      -1.673  11.645  19.753  0.00  0.00    +0.000 A 
ATOM      6  C   UNL     1      -0.854  10.738  19.040  0.00  0.00    +0.000 A 
ENDROOT
BRANCH   1  10
ATOM      7  C   UNL     1       2.326   7.542  18.422  0.00  0.00    +0.000 A 
ATOM      8  C   UNL     1       2.774   8.498  17.533  0.00  0.00    +0.000 A 
ATOM      9  C   UNL     1       2.245   9.734  17.965  0.00  0.00    +0.000 A 
ATOM     10  C   UNL     1       1.331   9.447  18.963  0.00  0.00    +0.000 A 
ATOM     11  O   UNL     1       1.433   8.118  19.290  0.00  0.00    +0.000 OA
BRANCH   7  15
ATOM     12  C   UNL     1       3.068   3.382  19.150  0.00  0.00    +0.000 A 
ATOM     13  C   UNL     1       3.925   4.352  19.673  0.00  0.00    +0.000 A 
ATOM     14  C   UNL     1       3.698   5.710  19.411  0.00  0.00    +0.000 A 
ATOM     15  C   UNL     1       2.620   6.123  18.610  0.00  0.00    +0.000 A 
ATOM     16  C   UNL     1       1.800   5.134  18.055  0.00  0.00    +0.000 A 
ATOM     17  C   UNL     1       2.020   3.776  18.322  0.00  0.00    +0.000 A 
BRANCH  12  19
ATOM     18  C   UNL     1       3.658   1.225  18.393  0.00  0.00    +0.000 C 
ATOM     19  O   UNL     1       3.361   2.089  19.488  0.00  0.00    +0.000 OA
ENDBRANCH  12  19
ENDBRANCH   7  15
ENDBRANCH   1  10
BRANCH   4  20
ATOM     20  N   UNL     1      -2.168  13.002  21.761  0.00  0.00    +0.000 N 
ATOM     21  C   UNL     1      -2.724  12.930  23.023  0.00  0.00    +0.000 C 
ATOM     22  N   UNL     1      -3.152  11.828  23.566  0.00  0.00    +0.000 NA
ATOM     23  H   UNL     1      -2.026  13.950  21.418  0.00  0.00    +0.000 HD
ATOM     24  H   UNL     1      -3.015  11.069  22.893  0.00  0.00    +0.000 HD
BRANCH  21  25
ATOM     25  C   UNL     1      -2.893  14.217  23.786  0.00  0.00    +0.000 A 
ATOM     26  C   UNL     1      -4.131  14.861  23.828  0.00  0.00    +0.000 A 
ATOM     27  C   UNL     1      -4.254  16.029  24.575  0.00  0.00    +0.000 A 
ATOM     28  C   UNL     1      -3.141  16.516  25.250  0.00  0.00    +0.000 A 
ATOM     29  C   UNL     1      -1.944  15.822  25.138  0.00  0.00    +0.000 A 
ATOM     30  N   UNL     1      -1.779  14.689  24.415  0.00  0.00    +0.000 NA
ENDBRANCH  21  25
ENDBRANCH   4  20
BRANCH   6  31
ATOM     31  O   UNL     1      -1.311  10.557  17.761  0.00  0.00    +0.000 OA
BRANCH  31  32
ATOM     32  C   UNL     1      -2.675  10.785  17.405  0.00  0.00    +0.000 C 
ATOM     33  C   UNL     1      -2.828  11.195  15.949  0.00  0.00    +0.000 C 
ATOM     34  C   UNL     1      -3.415   9.481  17.699  0.00  0.00    +0.000 C 
ENDBRANCH  31  32
ENDBRANCH   6  31
TORSDOF 7
ENDMDL
MODEL 9
REMARK VINA RESULT:      -7.7      3.673      6.136
REMARK  Name = 
REMARK  10 active torsions:
REMARK  status: ('A' for Active; 'I' for Inactive)
REMARK    1  A    between atoms: C_1  and  O_2
REMARK    2  A    between atoms: O_2  and  C_3
REMARK    3  A    between atoms: C_6  and  C_7
REMARK    4  A    between atoms: C_10  and  C_11
REMARK    5  A    between atoms: C_14  and  N_15
REMARK    6  A    between atoms: C_16  and  C_18
REMARK    7  A    between atoms: C_25  and  O_26
REMARK    8  A    between atoms: O_26  and  C_27
REMARK    9  A    between atoms: C_27  and  C_28
REMARK   10  A    between atoms: C_27  and  C_29
REMARK                            x       y       z     vdW  Elec       q    Type
REMARK                         _______ _______ _______ _____ _____    ______ ____
ROOT
ATOM      1  C   UNL     1       0.082  11.757  18.705  0.00  0.00    +0.000 A 
ATOM      2  C   UNL     1       1.495  11.745  18.709  0.00  0.00    +0.000 A 
ATOM      3  C   UNL     1       2.226  10.591  18.391  0.00  0.00    +0.000 A 
ATOM      4  C   UNL     1       1.579   9.398  18.064  0.00  0.00    +0.000 A 
ATOM      5  C   UNL     1       0.180   9.426  18.004  0.00  0.00    +0.000 A 
ATOM      6  C   UNL     1      -0.580  10.586  18.286  0.00  0.00    +0.000 A 
ENDROOT
BRANCH   1  10
ATOM      7  C   UNL     1      -2.016  13.975  20.573  0.00  0.00    +0.000 A 
ATOM      8  C   UNL     1      -1.209  14.950  20.023  0.00  0.00    +0.000 A 
ATOM      9  C   UNL     1      -0.399  14.309  19.059  0.00  0.00    +0.000 A 
ATOM     10  C   UNL     1      -0.596  12.949  19.216  0.00  0.00    +0.000 A 
ATOM     11  O   UNL     1      -1.634  12.748  20.092  0.00  0.00    +0.000 OA
BRANCH   7  15
ATOM     12  C   UNL     1      -5.436  14.166  23.152  0.00  0.00    +0.000 A 
ATOM     13  C   UNL     1      -4.487  15.189  23.166  0.00  0.00    +0.000 A 
ATOM     14  C   UNL     1      -3.354  15.111  22.343  0.00  0.00    +0.000 A 
ATOM     15  C   UNL     1      -3.143  14.006  21.504  0.00  0.00    +0.000 A 
ATOM     16  C   UNL     1      -4.081  12.967  21.539  0.00  0.00    +0.000 A 
ATOM     17  C   UNL     1      -5.218  13.046  22.354  0.00  0.00    +0.000 A 
BRANCH  12  19
ATOM     18  C   UNL     1      -7.391  13.230  24.088  0.00  0.00    +0.000 C 
ATOM     19  O   UNL     1      -6.517  14.350  23.970  0.00  0.00    +0.000 OA
ENDBRANCH  12  19
ENDBRANCH   7  15
ENDBRANCH   1  10
BRANCH   4  20
ATOM     20  N   UNL     1       2.337   8.220  17.892  0.00  0.00    +0.000 N 
ATOM     21  C   UNL     1       2.476   7.159  18.764  0.00  0.00    +0.000 C 
ATOM     22  N   UNL     1       2.427   7.274  20.059  0.00  0.00    +0.000 NA
ATOM     23  H   UNL     1       2.552   7.998  16.922  0.00  0.00    +0.000 HD
ATOM     24  H   UNL     1       2.290   8.263  20.286  0.00  0.00    +0.000 HD
BRANCH  21  25
ATOM     25  C   UNL     1       2.757   5.803  18.174  0.00  0.00    +0.000 A 
ATOM     26  C   UNL     1       1.779   4.807  18.180  0.00  0.00    +0.000 A 
ATOM     27  C   UNL     1       2.068   3.580  17.591  0.00  0.00    +0.000 A 
ATOM     28  C   UNL     1       3.320   3.386  17.020  0.00  0.00    +0.000 A 
ATOM     29  C   UNL     1       4.240   4.424  17.075  0.00  0.00    +0.000 A 
ATOM     30  N   UNL     1       4.003   5.629  17.647  0.00  0.00    +0.000 NA
ENDBRANCH  21  25
ENDBRANCH   4  20
BRANCH   6  31
ATOM     31  O   UNL     1      -1.923  10.341  18.170  0.00  0.00    +0.000 OA
BRANCH  31  32
ATOM     32  C   UNL     1      -2.719  10.953  17.153  0.00  0.00    +0.000 C 
ATOM     33  C   UNL     1      -2.884  10.058  15.936  0.00  0.00    +0.000 C 
ATOM     34  C   UNL     1      -4.066  11.269  17.801  0.00  0.00    +0.000 C 
ENDBRANCH  31  32
ENDBRANCH   6  31
TORSDOF 7
ENDMDL
