MODEL 1
REMARK VINA RESULT:      -7.9      0.000      0.000
REMARK  Name = 
REMARK  4 active torsions:
REMARK  status: ('A' for Active; 'I' for Inactive)
REMARK    1  A    between atoms: C_1  and  N_2
REMARK    2  A    between atoms: N_5  and  C_6
REMARK    3  A    between atoms: C_6  and  C_7
REMARK    4  A    between atoms: C_7  and  C_9
REMARK                            x       y       z     vdW  Elec       q    Type
REMARK                         _______ _______ _______ _____ _____    ______ ____
ROOT
ATOM      1  C   UNL     1       2.846   2.688  21.055  0.00  0.00    +0.000 C 
ATOM      2  N   UNL     1       3.054   3.451  19.823  0.00  0.00    +0.000 N 
ATOM      3  C   UNL     1       3.573   3.065  18.622  0.00  0.00    +0.000 A 
ATOM      4  N   UNL     1       4.025   1.890  18.367  0.00  0.00    +0.000 NA
ATOM      5  N   UNL     1       3.585   4.077  17.711  0.00  0.00    +0.000 N 
ATOM      6  C   UNL     1       3.082   5.141  18.382  0.00  0.00    +0.000 A 
ATOM      7  C   UNL     1       2.900   6.458  17.955  0.00  0.00    +0.000 A 
ATOM      8  C   UNL     1       2.381   7.385  18.879  0.00  0.00    +0.000 A 
ATOM      9  C   UNL     1       2.061   6.986  20.196  0.00  0.00    +0.000 A 
ATOM     10  C   UNL     1       2.251   5.654  20.599  0.00  0.00    +0.000 A 
ATOM     11  C   UNL     1       2.767   4.757  19.661  0.00  0.00    +0.000 A 
ATOM     12  H   UNL     1       4.037   1.129  19.055  0.00  0.00    +0.000 HD
ENDROOT
BRANCH   5  13
ATOM     13  C   UNL     1       4.110   4.044  16.337  0.00  0.00    +0.000 C 
BRANCH  13  14
ATOM     14  C   UNL     1       5.624   4.104  16.263  0.00  0.00    +0.000 C 
ATOM     15  O   UNL     1       6.177   3.345  15.478  0.00  0.00    +0.000 OA
BRANCH  14  16
ATOM     16  C   UNL     1       6.463   5.095  17.010  0.00  0.00    +0.000 A 
ATOM     17  C   UNL     1       7.160   4.755  18.186  0.00  0.00    +0.000 A 
ATOM     18  C   UNL     1       7.908   5.717  18.877  0.00  0.00    +0.000 A 
ATOM     19  C   UNL     1       7.969   7.031  18.407  0.00  0.00    +0.000 A 
ATOM     20  F   UNL     1       8.689   7.964  19.082  0.00  0.00    +0.000 F 
ATOM     21  C   UNL     1       7.285   7.387  17.245  0.00  0.00    +0.000 A 
ATOM     22  C   UNL     1       6.538   6.430  16.551  0.00  0.00    +0.000 A 
ENDBRANCH  14  16
ENDBRANCH  13  14
ENDBRANCH   5  13
TORSDOF 3
ENDMDL
MODEL 2
REMARK VINA RESULT:      -7.8      0.204      1.073
REMARK  Name = 
REMARK  4 active torsions:
REMARK  status: ('A' for Active; 'I' for Inactive)
REMARK    1  A    between atoms: C_1  and  N_2
REMARK    2  A    between atoms: N_5  and  C_6
REMARK    3  A    between atoms: C_6  and  C_7
REMARK    4  A    between atoms: C_7  and  C_9
REMARK                            x       y       z     vdW  Elec       q    Type
REMARK                         _______ _______ _______ _____ _____    ______ ____
ROOT
ATOM      1  C   UNL     1       2.856   2.522  20.978  0.00  0.00    +0.000 C 
ATOM      2  N   UNL     1       3.093   3.346  19.790  0.00  0.00    +0.000 N 
ATOM      3  C   UNL     1       3.665   3.026  18.594  0.00  0.00    +0.000 A 
ATOM      4  N   UNL     1       4.153   1.873  18.303  0.00  0.00    +0.000 NA
ATOM      5  N   UNL     1       3.688   4.079  17.730  0.00  0.00    +0.000 N 
ATOM      6  C   UNL     1       3.136   5.100  18.429  0.00  0.00    +0.000 A 
ATOM      7  C   UNL     1       2.940   6.431  18.055  0.00  0.00    +0.000 A 
ATOM      8  C   UNL     1       2.366   7.303  18.999  0.00  0.00    +0.000 A 
ATOM      9  C   UNL     1       2.006   6.838  20.284  0.00  0.00    +0.000 A 
ATOM     10  C   UNL     1       2.212   5.493  20.633  0.00  0.00    +0.000 A 
ATOM     11  C   UNL     1       2.782   4.652  19.677  0.00  0.00    +0.000 A 
ATOM     12  H   UNL     1       4.156   1.082  18.956  0.00  0.00    +0.000 HD
ENDROOT
BRANCH   5  13
ATOM     13  C   UNL     1       4.265   4.120  16.378  0.00  0.00    +0.000 C 
BRANCH  13  14
ATOM     14  C   UNL     1       5.777   4.242  16.364  0.00  0.00    +0.000 C 
ATOM     15  O   UNL     1       6.396   3.457  15.658  0.00  0.00    +0.000 OA
BRANCH  14  16
ATOM     16  C   UNL     1       6.540   5.316  17.077  0.00  0.00    +0.000 A 
ATOM     17  C   UNL     1       6.525   6.658  16.650  0.00  0.00    +0.000 A 
ATOM     18  C   UNL     1       7.277   7.630  17.322  0.00  0.00    +0.000 A 
ATOM     19  C   UNL     1       8.057   7.277  18.426  0.00  0.00    +0.000 A 
ATOM     20  F   UNL     1       8.791   8.219  19.071  0.00  0.00    +0.000 F 
ATOM     21  C   UNL     1       8.085   5.953  18.862  0.00  0.00    +0.000 A 
ATOM     22  C   UNL     1       7.335   4.979  18.196  0.00  0.00    +0.000 A 
ENDBRANCH  14  16
ENDBRANCH  13  14
ENDBRANCH   5  13
TORSDOF 3
ENDMDL
MODEL 3
REMARK VINA RESULT:      -7.3      1.233      2.785
REMARK  Name = 
REMARK  4 active torsions:
REMARK  status: ('A' for Active; 'I' for Inactive)
REMARK    1  A    between atoms: C_1  and  N_2
REMARK    2  A    between atoms: N_5  and  C_6
REMARK    3  A    between atoms: C_6  and  C_7
REMARK    4  A    between atoms: C_7  and  C_9
REMARK                            x       y       z     vdW  Elec       q    Type
REMARK                         _______ _______ _______ _____ _____    ______ ____
ROOT
ATOM      1  C   UNL     1       1.910   7.405  20.358  0.00  0.00    +0.000 C 
ATOM      2  N   UNL     1       2.339   6.283  19.520  0.00  0.00    +0.000 N 
ATOM      3  C   UNL     1       2.973   6.274  18.313  0.00  0.00    +0.000 A 
ATOM      4  N   UNL     1       3.292   7.326  17.648  0.00  0.00    +0.000 NA
ATOM      5  N   UNL     1       3.216   5.012  17.862  0.00  0.00    +0.000 N 
ATOM      6  C   UNL     1       2.686   4.207  18.814  0.00  0.00    +0.000 A 
ATOM      7  C   UNL     1       2.610   2.812  18.858  0.00  0.00    +0.000 A 
ATOM      8  C   UNL     1       1.967   2.223  19.964  0.00  0.00    +0.000 A 
ATOM      9  C   UNL     1       1.417   3.025  20.989  0.00  0.00    +0.000 A 
ATOM     10  C   UNL     1       1.510   4.425  20.920  0.00  0.00    +0.000 A 
ATOM     11  C   UNL     1       2.153   4.981  19.813  0.00  0.00    +0.000 A 
ATOM     12  H   UNL     1       3.094   8.280  17.973  0.00  0.00    +0.000 HD
ENDROOT
BRANCH   5  13
ATOM     13  C   UNL     1       3.833   4.615  16.587  0.00  0.00    +0.000 C 
BRANCH  13  14
ATOM     14  C   UNL     1       5.337   4.428  16.671  0.00  0.00    +0.000 C 
ATOM     15  O   UNL     1       5.813   3.456  16.100  0.00  0.00    +0.000 OA
BRANCH  14  16
ATOM     16  C   UNL     1       6.270   5.404  17.319  0.00  0.00    +0.000 A 
ATOM     17  C   UNL     1       6.534   6.672  16.766  0.00  0.00    +0.000 A 
ATOM     18  C   UNL     1       7.438   7.546  17.383  0.00  0.00    +0.000 A 
ATOM     19  C   UNL     1       8.095   7.168  18.556  0.00  0.00    +0.000 A 
ATOM     20  F   UNL     1       8.975   8.013  19.148  0.00  0.00    +0.000 F 
ATOM     21  C   UNL     1       7.846   5.915  19.118  0.00  0.00    +0.000 A 
ATOM     22  C   UNL     1       6.943   5.040  18.507  0.00  0.00    +0.000 A 
ENDBRANCH  14  16
ENDBRANCH  13  14
ENDBRANCH   5  13
TORSDOF 3
ENDMDL
MODEL 4
REMARK VINA RESULT:      -7.3      1.370      2.639
REMARK  Name = 
REMARK  4 active torsions:
REMARK  status: ('A' for Active; 'I' for Inactive)
REMARK    1  A    between atoms: C_1  and  N_2
REMARK    2  A    between atoms: N_5  and  C_6
REMARK    3  A    between atoms: C_6  and  C_7
REMARK    4  A    between atoms: C_7  and  C_9
REMARK                            x       y       z     vdW  Elec       q    Type
REMARK                         _______ _______ _______ _____ _____    ______ ____
ROOT
ATOM      1  C   UNL     1       1.640   7.111  20.690  0.00  0.00    +0.000 C 
ATOM      2  N   UNL     1       2.155   6.132  19.730  0.00  0.00    +0.000 N 
ATOM      3  C   UNL     1       2.859   6.313  18.577  0.00  0.00    +0.000 A 
ATOM      4  N   UNL     1       3.182   7.458  18.091  0.00  0.00    +0.000 NA
ATOM      5  N   UNL     1       3.171   5.135  17.967  0.00  0.00    +0.000 N 
ATOM      6  C   UNL     1       2.612   4.189  18.758  0.00  0.00    +0.000 A 
ATOM      7  C   UNL     1       2.580   2.801  18.599  0.00  0.00    +0.000 A 
ATOM      8  C   UNL     1       1.893   2.043  19.566  0.00  0.00    +0.000 A 
ATOM      9  C   UNL     1       1.257   2.675  20.658  0.00  0.00    +0.000 A 
ATOM     10  C   UNL     1       1.306   4.072  20.796  0.00  0.00    +0.000 A 
ATOM     11  C   UNL     1       1.995   4.798  19.822  0.00  0.00    +0.000 A 
ATOM     12  H   UNL     1       2.933   8.349  18.535  0.00  0.00    +0.000 HD
ENDROOT
BRANCH   5  13
ATOM     13  C   UNL     1       3.876   4.943  16.690  0.00  0.00    +0.000 C 
BRANCH  13  14
ATOM     14  C   UNL     1       5.353   4.635  16.851  0.00  0.00    +0.000 C 
ATOM     15  O   UNL     1       5.756   3.570  16.405  0.00  0.00    +0.000 OA
BRANCH  14  16
ATOM     16  C   UNL     1       6.352   5.592  17.426  0.00  0.00    +0.000 A 
ATOM     17  C   UNL     1       7.111   5.287  18.574  0.00  0.00    +0.000 A 
ATOM     18  C   UNL     1       8.012   6.221  19.103  0.00  0.00    +0.000 A 
ATOM     19  C   UNL     1       8.166   7.470  18.499  0.00  0.00    +0.000 A 
ATOM     20  F   UNL     1       9.035   8.375  19.017  0.00  0.00    +0.000 F 
ATOM     21  C   UNL     1       7.423   7.790  17.362  0.00  0.00    +0.000 A 
ATOM     22  C   UNL     1       6.523   6.862  16.829  0.00  0.00    +0.000 A 
ENDBRANCH  14  16
ENDBRANCH  13  14
ENDBRANCH   5  13
TORSDOF 3
ENDMDL
MODEL 5
REMARK VINA RESULT:      -7.2      2.392      5.170
REMARK  Name = 
REMARK  4 active torsions:
REMARK  status: ('A' for Active; 'I' for Inactive)
REMARK    1  A    between atoms: C_1  and  N_2
REMARK    2  A    between atoms: N_5  and  C_6
REMARK    3  A    between atoms: C_6  and  C_7
REMARK    4  A    between atoms: C_7  and  C_9
REMARK                            x       y       z     vdW  Elec       q    Type
REMARK                         _______ _______ _______ _____ _____    ______ ____
ROOT
ATOM      1  C   UNL     1       7.810   5.618  18.702  0.00  0.00    +0.000 C 
ATOM      2  N   UNL     1       6.712   4.907  18.042  0.00  0.00    +0.000 N 
ATOM      3  C   UNL     1       5.642   4.249  18.572  0.00  0.00    +0.000 A 
ATOM      4  N   UNL     1       5.423   4.107  19.830  0.00  0.00    +0.000 NA
ATOM      5  N   UNL     1       4.827   3.725  17.614  0.00  0.00    +0.000 N 
ATOM      6  C   UNL     1       5.431   4.047  16.445  0.00  0.00    +0.000 A 
ATOM      7  C   UNL     1       5.060   3.732  15.136  0.00  0.00    +0.000 A 
ATOM      8  C   UNL     1       5.897   4.169  14.091  0.00  0.00    +0.000 A 
ATOM      9  C   UNL     1       7.074   4.899  14.369  0.00  0.00    +0.000 A 
ATOM     10  C   UNL     1       7.423   5.204  15.696  0.00  0.00    +0.000 A 
ATOM     11  C   UNL     1       6.574   4.758  16.710  0.00  0.00    +0.000 A 
ATOM     12  H   UNL     1       6.044   4.482  20.556  0.00  0.00    +0.000 HD
ENDROOT
BRANCH   5  13
ATOM     13  C   UNL     1       3.614   2.917  17.810  0.00  0.00    +0.000 C 
BRANCH  13  14
ATOM     14  C   UNL     1       2.343   3.740  17.912  0.00  0.00    +0.000 C 
ATOM     15  O   UNL     1       1.335   3.282  17.391  0.00  0.00    +0.000 OA
BRANCH  14  16
ATOM     16  C   UNL     1       2.229   5.015  18.690  0.00  0.00    +0.000 A 
ATOM     17  C   UNL     1       1.749   5.048  20.014  0.00  0.00    +0.000 A 
ATOM     18  C   UNL     1       1.625   6.263  20.699  0.00  0.00    +0.000 A 
ATOM     19  C   UNL     1       1.974   7.462  20.074  0.00  0.00    +0.000 A 
ATOM     20  F   UNL     1       1.847   8.639  20.737  0.00  0.00    +0.000 F 
ATOM     21  C   UNL     1       2.451   7.450  18.763  0.00  0.00    +0.000 A 
ATOM     22  C   UNL     1       2.578   6.239  18.075  0.00  0.00    +0.000 A 
ENDBRANCH  14  16
ENDBRANCH  13  14
ENDBRANCH   5  13
TORSDOF 3
ENDMDL
MODEL 6
REMARK VINA RESULT:      -7.2      2.463      5.430
REMARK  Name = 
REMARK  4 active torsions:
REMARK  status: ('A' for Active; 'I' for Inactive)
REMARK    1  A    between atoms: C_1  and  N_2
REMARK    2  A    between atoms: N_5  and  C_6
REMARK    3  A    between atoms: C_6  and  C_7
REMARK    4  A    between atoms: C_7  and  C_9
REMARK                            x       y       z     vdW  Elec       q    Type
REMARK                         _______ _______ _______ _____ _____    ______ ____
ROOT
ATOM      1  C   UNL     1       7.868   6.491  18.169  0.00  0.00    +0.000 C 
ATOM      2  N   UNL     1       6.843   5.551  17.711  0.00  0.00    +0.000 N 
ATOM      3  C   UNL     1       5.876   4.890  18.410  0.00  0.00    +0.000 A 
ATOM      4  N   UNL     1       5.715   4.966  19.683  0.00  0.00    +0.000 NA
ATOM      5  N   UNL     1       5.099   4.107  17.611  0.00  0.00    +0.000 N 
ATOM      6  C   UNL     1       5.623   4.266  16.372  0.00  0.00    +0.000 A 
ATOM      7  C   UNL     1       5.251   3.669  15.166  0.00  0.00    +0.000 A 
ATOM      8  C   UNL     1       5.997   3.990  14.015  0.00  0.00    +0.000 A 
ATOM      9  C   UNL     1       7.087   4.885  14.089  0.00  0.00    +0.000 A 
ATOM     10  C   UNL     1       7.438   5.473  15.316  0.00  0.00    +0.000 A 
ATOM     11  C   UNL     1       6.681   5.137  16.440  0.00  0.00    +0.000 A 
ATOM     12  H   UNL     1       6.310   5.538  20.293  0.00  0.00    +0.000 HD
ENDROOT
BRANCH   5  13
ATOM     13  C   UNL     1       3.998   3.220  18.018  0.00  0.00    +0.000 C 
BRANCH  13  14
ATOM     14  C   UNL     1       2.639   3.897  18.017  0.00  0.00    +0.000 C 
ATOM     15  O   UNL     1       1.718   3.303  17.474  0.00  0.00    +0.000 OA
BRANCH  14  16
ATOM     16  C   UNL     1       2.343   5.186  18.720  0.00  0.00    +0.000 A 
ATOM     17  C   UNL     1       2.529   6.439  18.104  0.00  0.00    +0.000 A 
ATOM     18  C   UNL     1       2.272   7.625  18.805  0.00  0.00    +0.000 A 
ATOM     19  C   UNL     1       1.832   7.578  20.129  0.00  0.00    +0.000 A 
ATOM     20  F   UNL     1       1.591   8.728  20.808  0.00  0.00    +0.000 F 
ATOM     21  C   UNL     1       1.643   6.347  20.756  0.00  0.00    +0.000 A 
ATOM     22  C   UNL     1       1.896   5.160  20.061  0.00  0.00    +0.000 A 
ENDBRANCH  14  16
ENDBRANCH  13  14
ENDBRANCH   5  13
TORSDOF 3
ENDMDL
MODEL 7
REMARK VINA RESULT:      -6.9      3.494      5.031
REMARK  Name = 
REMARK  4 active torsions:
REMARK  status: ('A' for Active; 'I' for Inactive)
REMARK    1  A    between atoms: C_1  and  N_2
REMARK    2  A    between atoms: N_5  and  C_6
REMARK    3  A    between atoms: C_6  and  C_7
REMARK    4  A    between atoms: C_7  and  C_9
REMARK                            x       y       z     vdW  Elec       q    Type
REMARK                         _______ _______ _______ _____ _____    ______ ____
ROOT
ATOM      1  C   UNL     1       3.034   7.937  17.952  0.00  0.00    +0.000 C 
ATOM      2  N   UNL     1       3.738   6.686  17.666  0.00  0.00    +0.000 N 
ATOM      3  C   UNL     1       5.023   6.467  17.264  0.00  0.00    +0.000 A 
ATOM      4  N   UNL     1       5.879   7.394  17.022  0.00  0.00    +0.000 NA
ATOM      5  N   UNL     1       5.305   5.142  17.118  0.00  0.00    +0.000 N 
ATOM      6  C   UNL     1       4.140   4.516  17.413  0.00  0.00    +0.000 A 
ATOM      7  C   UNL     1       3.832   3.154  17.390  0.00  0.00    +0.000 A 
ATOM      8  C   UNL     1       2.516   2.771  17.714  0.00  0.00    +0.000 A 
ATOM      9  C   UNL     1       1.545   3.742  18.046  0.00  0.00    +0.000 A 
ATOM     10  C   UNL     1       1.882   5.105  18.063  0.00  0.00    +0.000 A 
ATOM     11  C   UNL     1       3.194   5.455  17.739  0.00  0.00    +0.000 A 
ATOM     12  H   UNL     1       5.667   8.394  17.111  0.00  0.00    +0.000 HD
ENDROOT
BRANCH   5  13
ATOM     13  C   UNL     1       6.563   4.536  16.658  0.00  0.00    +0.000 C 
BRANCH  13  14
ATOM     14  C   UNL     1       6.942   4.921  15.239  0.00  0.00    +0.000 C 
ATOM     15  O   UNL     1       7.797   5.785  15.103  0.00  0.00    +0.000 OA
BRANCH  14  16
ATOM     16  C   UNL     1       6.408   4.243  14.015  0.00  0.00    +0.000 A 
ATOM     17  C   UNL     1       7.225   3.938  12.908  0.00  0.00    +0.000 A 
ATOM     18  C   UNL     1       6.684   3.333  11.767  0.00  0.00    +0.000 A 
ATOM     19  C   UNL     1       5.322   3.028  11.710  0.00  0.00    +0.000 A 
ATOM     20  F   UNL     1       4.799   2.448  10.600  0.00  0.00    +0.000 F 
ATOM     21  C   UNL     1       4.498   3.323  12.796  0.00  0.00    +0.000 A 
ATOM     22  C   UNL     1       5.033   3.926  13.939  0.00  0.00    +0.000 A 
ENDBRANCH  14  16
ENDBRANCH  13  14
ENDBRANCH   5  13
TORSDOF 3
ENDMDL
MODEL 8
REMARK VINA RESULT:      -6.9      2.856      4.413
REMARK  Name = 
REMARK  4 active torsions:
REMARK  status: ('A' for Active; 'I' for Inactive)
REMARK    1  A    between atoms: C_1  and  N_2
REMARK    2  A    between atoms: N_5  and  C_6
REMARK    3  A    between atoms: C_6  and  C_7
REMARK    4  A    between atoms: C_7  and  C_9
REMARK                            x       y       z     vdW  Elec       q    Type
REMARK                         _______ _______ _______ _____ _____    ______ ____
ROOT
ATOM      1  C   UNL     1       4.961   1.913  20.697  0.00  0.00    +0.000 C 
ATOM      2  N   UNL     1       4.354   2.745  19.656  0.00  0.00    +0.000 N 
ATOM      3  C   UNL     1       4.925   3.626  18.785  0.00  0.00    +0.000 A 
ATOM      4  N   UNL     1       6.177   3.913  18.754  0.00  0.00    +0.000 NA
ATOM      5  N   UNL     1       4.013   4.198  17.951  0.00  0.00    +0.000 N 
ATOM      6  C   UNL     1       2.826   3.675  18.339  0.00  0.00    +0.000 A 
ATOM      7  C   UNL     1       1.540   3.934  17.861  0.00  0.00    +0.000 A 
ATOM      8  C   UNL     1       0.462   3.267  18.474  0.00  0.00    +0.000 A 
ATOM      9  C   UNL     1       0.684   2.369  19.542  0.00  0.00    +0.000 A 
ATOM     10  C   UNL     1       1.989   2.125  20.003  0.00  0.00    +0.000 A 
ATOM     11  C   UNL     1       3.038   2.799  19.375  0.00  0.00    +0.000 A 
ATOM     12  H   UNL     1       6.866   3.500  19.393  0.00  0.00    +0.000 HD
ENDROOT
BRANCH   5  13
ATOM     13  C   UNL     1       4.254   5.222  16.922  0.00  0.00    +0.000 C 
BRANCH  13  14
ATOM     14  C   UNL     1       4.383   6.627  17.479  0.00  0.00    +0.000 C 
ATOM     15  O   UNL     1       5.446   7.205  17.301  0.00  0.00    +0.000 OA
BRANCH  14  16
ATOM     16  C   UNL     1       3.265   7.375  18.138  0.00  0.00    +0.000 A 
ATOM     17  C   UNL     1       2.611   8.454  17.513  0.00  0.00    +0.000 A 
ATOM     18  C   UNL     1       1.591   9.151  18.174  0.00  0.00    +0.000 A 
ATOM     19  C   UNL     1       1.211   8.785  19.467  0.00  0.00    +0.000 A 
ATOM     20  F   UNL     1       0.228   9.466  20.108  0.00  0.00    +0.000 F 
ATOM     21  C   UNL     1       1.848   7.719  20.103  0.00  0.00    +0.000 A 
ATOM     22  C   UNL     1       2.866   7.019  19.447  0.00  0.00    +0.000 A 
ENDBRANCH  14  16
ENDBRANCH  13  14
ENDBRANCH   5  13
TORSDOF 3
ENDMDL
MODEL 9
REMARK VINA RESULT:      -6.9      3.145      4.550
REMARK  Name = 
REMARK  4 active torsions:
REMARK  status: ('A' for Active; 'I' for Inactive)
REMARK    1  A    between atoms: C_1  and  N_2
REMARK    2  A    between atoms: N_5  and  C_6
REMARK    3  A    between atoms: C_6  and  C_7
REMARK    4  A    between atoms: C_7  and  C_9
REMARK                            x       y       z     vdW  Elec       q    Type
REMARK                         _______ _______ _______ _____ _____    ______ ____
ROOT
ATOM      1  C   UNL     1       2.210   7.227  18.504  0.00  0.00    +0.000 C 
ATOM      2  N   UNL     1       3.167   6.152  18.230  0.00  0.00    +0.000 N 
ATOM      3  C   UNL     1       4.499   6.207  17.947  0.00  0.00    +0.000 A 
ATOM      4  N   UNL     1       5.177   7.293  17.833  0.00  0.00    +0.000 NA
ATOM      5  N   UNL     1       5.045   4.972  17.768  0.00  0.00    +0.000 N 
ATOM      6  C   UNL     1       4.003   4.119  17.919  0.00  0.00    +0.000 A 
ATOM      7  C   UNL     1       3.969   2.727  17.803  0.00  0.00    +0.000 A 
ATOM      8  C   UNL     1       2.730   2.082  17.978  0.00  0.00    +0.000 A 
ATOM      9  C   UNL     1       1.563   2.828  18.258  0.00  0.00    +0.000 A 
ATOM     10  C   UNL     1       1.626   4.227  18.371  0.00  0.00    +0.000 A 
ATOM     11  C   UNL     1       2.868   4.839  18.193  0.00  0.00    +0.000 A 
ATOM     12  H   UNL     1       4.768   8.227  17.946  0.00  0.00    +0.000 HD
ENDROOT
BRANCH   5  13
ATOM     13  C   UNL     1       6.433   4.645  17.406  0.00  0.00    +0.000 C 
BRANCH  13  14
ATOM     14  C   UNL     1       6.915   5.346  16.149  0.00  0.00    +0.000 C 
ATOM     15  O   UNL     1       7.558   6.377  16.294  0.00  0.00    +0.000 OA
BRANCH  14  16
ATOM     16  C   UNL     1       6.737   4.804  14.764  0.00  0.00    +0.000 A 
ATOM     17  C   UNL     1       5.701   3.908  14.435  0.00  0.00    +0.000 A 
ATOM     18  C   UNL     1       5.586   3.395  13.136  0.00  0.00    +0.000 A 
ATOM     19  C   UNL     1       6.503   3.764  12.150  0.00  0.00    +0.000 A 
ATOM     20  F   UNL     1       6.394   3.260  10.895  0.00  0.00    +0.000 F 
ATOM     21  C   UNL     1       7.536   4.649  12.458  0.00  0.00    +0.000 A 
ATOM     22  C   UNL     1       7.655   5.165  13.752  0.00  0.00    +0.000 A 
ENDBRANCH  14  16
ENDBRANCH  13  14
ENDBRANCH   5  13
TORSDOF 3
ENDMDL
