MODEL 1
REMARK VINA RESULT:      -8.8      0.000      0.000
REMARK  Name = 
REMARK  10 active torsions:
REMARK  status: ('A' for Active; 'I' for Inactive)
REMARK    1  A    between atoms: C_1  and  C_2
REMARK    2  A    between atoms: C_2  and  C_3
REMARK    3  A    between atoms: C_8  and  C_9
REMARK    4  A    between atoms: C_9  and  O_11
REMARK    5  A    between atoms: O_11  and  C_12
REMARK    6  A    between atoms: N_13  and  C_14
REMARK    7  A    between atoms: C_14  and  C_15
REMARK    8  A    between atoms: C_17  and  C_18
REMARK    9  A    between atoms: C_21  and  C_22
REMARK   10  A    between atoms: C_26  and  C_27
REMARK                            x       y       z     vdW  Elec       q    Type
REMARK                         _______ _______ _______ _____ _____    ______ ____
ROOT
ATOM      1  C   UNL     1       3.265   4.416  19.454  0.00  0.00    +0.000 A 
ATOM      2  C   UNL     1       3.801   5.489  18.768  0.00  0.00    +0.000 A 
ATOM      3  C   UNL     1       4.619   5.041  17.692  0.00  0.00    +0.000 A 
ATOM      4  C   UNL     1       4.580   3.688  17.542  0.00  0.00    +0.000 A 
ATOM      5  C   UNL     1       5.366   3.338  16.422  0.00  0.00    +0.000 A 
ATOM      6  C   UNL     1       5.899   4.518  15.916  0.00  0.00    +0.000 A 
ATOM      7  N   UNL     1       5.470   5.568  16.730  0.00  0.00    +0.000 N 
ATOM      8  S   UNL     1       3.607   2.898  18.732  0.00  0.00    +0.000 S 
ENDROOT
BRANCH   1  10
ATOM      9  C   UNL     1       0.984   4.248  20.431  0.00  0.00    +0.000 C 
ATOM     10  C   UNL     1       2.462   4.469  20.718  0.00  0.00    +0.000 C 
ENDBRANCH   1  10
BRANCH   6  11
ATOM     11  C   UNL     1       6.748   4.622  14.737  0.00  0.00    +0.000 C 
ATOM     12  O   UNL     1       7.576   5.495  14.521  0.00  0.00    +0.000 OA
BRANCH  11  13
ATOM     13  O   UNL     1       6.479   3.581  13.895  0.00  0.00    +0.000 OA
ATOM     14  C   UNL     1       5.569   3.859  12.833  0.00  0.00    +0.000 C 
ENDBRANCH  11  13
ENDBRANCH   6  11
BRANCH   7  15
ATOM     15  C   UNL     1       5.774   6.997  16.566  0.00  0.00    +0.000 C 
BRANCH  15  16
ATOM     16  C   UNL     1       6.894   7.517  17.416  0.00  0.00    +0.000 A 
ATOM     17  N   UNL     1       7.299   8.848  17.386  0.00  0.00    +0.000 NA
ATOM     18  C   UNL     1       8.306   8.915  18.242  0.00  0.00    +0.000 A 
ATOM     19  O   UNL     1       8.618   7.705  18.808  0.00  0.00    +0.000 OA
ATOM     20  C   UNL     1       7.726   6.824  18.271  0.00  0.00    +0.000 A 
ATOM     21  C   UNL     1       7.849   5.417  18.685  0.00  0.00    +0.000 C 
BRANCH  18  22
ATOM     22  C   UNL     1       9.114  10.060  18.683  0.00  0.00    +0.000 A 
ATOM     23  C   UNL     1       9.763  10.883  17.751  0.00  0.00    +0.000 A 
ATOM     24  C   UNL     1      10.538  11.977  18.169  0.00  0.00    +0.000 A 
ATOM     25  C   UNL     1      10.682  12.274  19.529  0.00  0.00    +0.000 A 
ATOM     26  C   UNL     1      11.528  13.424  19.994  0.00  0.00    +0.000 C 
ATOM     27  C   UNL     1      10.031  11.465  20.464  0.00  0.00    +0.000 A 
ATOM     28  C   UNL     1       9.255  10.376  20.044  0.00  0.00    +0.000 A 
ENDBRANCH  18  22
ENDBRANCH  15  16
ENDBRANCH   7  15
TORSDOF 6
ENDMDL
MODEL 2
REMARK VINA RESULT:      -8.5      1.050      1.425
REMARK  Name = 
REMARK  10 active torsions:
REMARK  status: ('A' for Active; 'I' for Inactive)
REMARK    1  A    between atoms: C_1  and  C_2
REMARK    2  A    between atoms: C_2  and  C_3
REMARK    3  A    between atoms: C_8  and  C_9
REMARK    4  A    between atoms: C_9  and  O_11
REMARK    5  A    between atoms: O_11  and  C_12
REMARK    6  A    between atoms: N_13  and  C_14
REMARK    7  A    between atoms: C_14  and  C_15
REMARK    8  A    between atoms: C_17  and  C_18
REMARK    9  A    between atoms: C_21  and  C_22
REMARK   10  A    between atoms: C_26  and  C_27
REMARK                            x       y       z     vdW  Elec       q    Type
REMARK                         _______ _______ _______ _____ _____    ______ ____
ROOT
ATOM      1  C   UNL     1       2.495   5.783  19.475  0.00  0.00    +0.000 A 
ATOM      2  C   UNL     1       3.313   6.538  18.656  0.00  0.00    +0.000 A 
ATOM      3  C   UNL     1       4.207   5.703  17.929  0.00  0.00    +0.000 A 
ATOM      4  C   UNL     1       3.962   4.380  18.136  0.00  0.00    +0.000 A 
ATOM      5  C   UNL     1       4.849   3.627  17.335  0.00  0.00    +0.000 A 
ATOM      6  C   UNL     1       5.653   4.537  16.657  0.00  0.00    +0.000 A 
ATOM      7  N   UNL     1       5.283   5.822  17.059  0.00  0.00    +0.000 N 
ATOM      8  S   UNL     1       2.685   4.092  19.264  0.00  0.00    +0.000 S 
ENDROOT
BRANCH   1  10
ATOM      9  C   UNL     1       1.633   7.808  20.634  0.00  0.00    +0.000 C 
ATOM     10  C   UNL     1       1.516   6.298  20.487  0.00  0.00    +0.000 C 
ENDBRANCH   1  10
BRANCH   6  11
ATOM     11  C   UNL     1       6.690   4.192  15.693  0.00  0.00    +0.000 C 
ATOM     12  O   UNL     1       7.875   4.476  15.779  0.00  0.00    +0.000 OA
BRANCH  11  13
ATOM     13  O   UNL     1       6.131   3.488  14.665  0.00  0.00    +0.000 OA
ATOM     14  C   UNL     1       5.919   4.217  13.457  0.00  0.00    +0.000 C 
ENDBRANCH  11  13
ENDBRANCH   6  11
BRANCH   7  15
ATOM     15  C   UNL     1       5.851   7.094  16.591  0.00  0.00    +0.000 C 
BRANCH  15  16
ATOM     16  C   UNL     1       6.933   7.671  17.454  0.00  0.00    +0.000 A 
ATOM     17  N   UNL     1       7.341   8.998  17.354  0.00  0.00    +0.000 NA
ATOM     18  C   UNL     1       8.308   9.123  18.248  0.00  0.00    +0.000 A 
ATOM     19  O   UNL     1       8.592   7.953  18.908  0.00  0.00    +0.000 OA
ATOM     20  C   UNL     1       7.723   7.038  18.391  0.00  0.00    +0.000 A 
ATOM     21  C   UNL     1       7.825   5.661  18.902  0.00  0.00    +0.000 C 
BRANCH  18  22
ATOM     22  C   UNL     1       9.097  10.295  18.648  0.00  0.00    +0.000 A 
ATOM     23  C   UNL     1       9.355  10.562  20.000  0.00  0.00    +0.000 A 
ATOM     24  C   UNL     1      10.107  11.684  20.386  0.00  0.00    +0.000 A 
ATOM     25  C   UNL     1      10.619  12.565  19.427  0.00  0.00    +0.000 A 
ATOM     26  C   UNL     1      11.402  13.784  19.823  0.00  0.00    +0.000 C 
ATOM     27  C   UNL     1      10.375  12.303  18.077  0.00  0.00    +0.000 A 
ATOM     28  C   UNL     1       9.627  11.181  17.694  0.00  0.00    +0.000 A 
ENDBRANCH  18  22
ENDBRANCH  15  16
ENDBRANCH   7  15
TORSDOF 6
ENDMDL
MODEL 3
REMARK VINA RESULT:      -8.4      0.668      1.063
REMARK  Name = 
REMARK  10 active torsions:
REMARK  status: ('A' for Active; 'I' for Inactive)
REMARK    1  A    between atoms: C_1  and  C_2
REMARK    2  A    between atoms: C_2  and  C_3
REMARK    3  A    between atoms: C_8  and  C_9
REMARK    4  A    between atoms: C_9  and  O_11
REMARK    5  A    between atoms: O_11  and  C_12
REMARK    6  A    between atoms: N_13  and  C_14
REMARK    7  A    between atoms: C_14  and  C_15
REMARK    8  A    between atoms: C_17  and  C_18
REMARK    9  A    between atoms: C_21  and  C_22
REMARK   10  A    between atoms: C_26  and  C_27
REMARK                            x       y       z     vdW  Elec       q    Type
REMARK                         _______ _______ _______ _____ _____    ______ ____
ROOT
ATOM      1  C   UNL     1       3.107   3.630  19.131  0.00  0.00    +0.000 A 
ATOM      2  C   UNL     1       3.517   4.824  18.569  0.00  0.00    +0.000 A 
ATOM      3  C   UNL     1       4.393   4.591  17.472  0.00  0.00    +0.000 A 
ATOM      4  C   UNL     1       4.520   3.266  17.185  0.00  0.00    +0.000 A 
ATOM      5  C   UNL     1       5.354   3.130  16.053  0.00  0.00    +0.000 A 
ATOM      6  C   UNL     1       5.745   4.411  15.681  0.00  0.00    +0.000 A 
ATOM      7  N   UNL     1       5.184   5.313  16.588  0.00  0.00    +0.000 N 
ATOM      8  S   UNL     1       3.638   2.247  18.266  0.00  0.00    +0.000 S 
ENDROOT
BRANCH   1  10
ATOM      9  C   UNL     1       0.939   4.141  20.238  0.00  0.00    +0.000 C 
ATOM     10  C   UNL     1       2.292   3.456  20.376  0.00  0.00    +0.000 C 
ENDBRANCH   1  10
BRANCH   6  11
ATOM     11  C   UNL     1       6.587   4.737  14.537  0.00  0.00    +0.000 C 
ATOM     12  O   UNL     1       7.672   5.296  14.580  0.00  0.00    +0.000 OA
BRANCH  11  13
ATOM     13  O   UNL     1       5.973   4.316  13.393  0.00  0.00    +0.000 OA
ATOM     14  C   UNL     1       6.816   3.679  12.435  0.00  0.00    +0.000 C 
ENDBRANCH  11  13
ENDBRANCH   6  11
BRANCH   7  15
ATOM     15  C   UNL     1       5.314   6.776  16.576  0.00  0.00    +0.000 C 
BRANCH  15  16
ATOM     16  C   UNL     1       6.500   7.322  17.314  0.00  0.00    +0.000 A 
ATOM     17  N   UNL     1       6.852   8.668  17.272  0.00  0.00    +0.000 NA
ATOM     18  C   UNL     1       7.941   8.756  18.019  0.00  0.00    +0.000 A 
ATOM     19  O   UNL     1       8.354   7.547  18.521  0.00  0.00    +0.000 OA
ATOM     20  C   UNL     1       7.441   6.644  18.062  0.00  0.00    +0.000 A 
ATOM     21  C   UNL     1       7.656   5.235  18.427  0.00  0.00    +0.000 C 
BRANCH  18  22
ATOM     22  C   UNL     1       8.750   9.921  18.398  0.00  0.00    +0.000 A 
ATOM     23  C   UNL     1       9.508   9.917  19.578  0.00  0.00    +0.000 A 
ATOM     24  C   UNL     1      10.282  11.031  19.945  0.00  0.00    +0.000 A 
ATOM     25  C   UNL     1      10.314  12.175  19.140  0.00  0.00    +0.000 A 
ATOM     26  C   UNL     1      11.114  13.385  19.530  0.00  0.00    +0.000 C 
ATOM     27  C   UNL     1       9.569  12.184  17.957  0.00  0.00    +0.000 A 
ATOM     28  C   UNL     1       8.802  11.071  17.592  0.00  0.00    +0.000 A 
ENDBRANCH  18  22
ENDBRANCH  15  16
ENDBRANCH   7  15
TORSDOF 6
ENDMDL
MODEL 4
REMARK VINA RESULT:      -8.1      1.392      1.544
REMARK  Name = 
REMARK  10 active torsions:
REMARK  status: ('A' for Active; 'I' for Inactive)
REMARK    1  A    between atoms: C_1  and  C_2
REMARK    2  A    between atoms: C_2  and  C_3
REMARK    3  A    between atoms: C_8  and  C_9
REMARK    4  A    between atoms: C_9  and  O_11
REMARK    5  A    between atoms: O_11  and  C_12
REMARK    6  A    between atoms: N_13  and  C_14
REMARK    7  A    between atoms: C_14  and  C_15
REMARK    8  A    between atoms: C_17  and  C_18
REMARK    9  A    between atoms: C_21  and  C_22
REMARK   10  A    between atoms: C_26  and  C_27
REMARK                            x       y       z     vdW  Elec       q    Type
REMARK                         _______ _______ _______ _____ _____    ______ ____
ROOT
ATOM      1  C   UNL     1       2.505   6.764  19.490  0.00  0.00    +0.000 A 
ATOM      2  C   UNL     1       3.444   7.251  18.601  0.00  0.00    +0.000 A 
ATOM      3  C   UNL     1       4.035   6.189  17.859  0.00  0.00    +0.000 A 
ATOM      4  C   UNL     1       3.455   4.986  18.129  0.00  0.00    +0.000 A 
ATOM      5  C   UNL     1       4.056   4.004  17.310  0.00  0.00    +0.000 A 
ATOM      6  C   UNL     1       5.032   4.647  16.556  0.00  0.00    +0.000 A 
ATOM      7  N   UNL     1       5.047   5.993  16.929  0.00  0.00    +0.000 N 
ATOM      8  S   UNL     1       2.220   5.080  19.334  0.00  0.00    +0.000 S 
ENDROOT
BRANCH   1  10
ATOM      9  C   UNL     1       1.197   8.830  19.944  0.00  0.00    +0.000 C 
ATOM     10  C   UNL     1       1.766   7.546  20.533  0.00  0.00    +0.000 C 
ENDBRANCH   1  10
BRANCH   6  11
ATOM     11  C   UNL     1       5.876   4.013  15.552  0.00  0.00    +0.000 C 
ATOM     12  O   UNL     1       7.031   3.647  15.711  0.00  0.00    +0.000 OA
BRANCH  11  13
ATOM     13  O   UNL     1       5.171   3.882  14.390  0.00  0.00    +0.000 OA
ATOM     14  C   UNL     1       5.951   3.751  13.203  0.00  0.00    +0.000 C 
ENDBRANCH  11  13
ENDBRANCH   6  11
BRANCH   7  15
ATOM     15  C   UNL     1       5.906   7.052  16.383  0.00  0.00    +0.000 C 
BRANCH  15  16
ATOM     16  C   UNL     1       6.954   7.576  17.319  0.00  0.00    +0.000 A 
ATOM     17  N   UNL     1       7.372   8.903  17.306  0.00  0.00    +0.000 NA
ATOM     18  C   UNL     1       8.303   8.974  18.244  0.00  0.00    +0.000 A 
ATOM     19  O   UNL     1       8.555   7.768  18.851  0.00  0.00    +0.000 OA
ATOM     20  C   UNL     1       7.703   6.888  18.251  0.00  0.00    +0.000 A 
ATOM     21  C   UNL     1       7.778   5.485  18.692  0.00  0.00    +0.000 C 
BRANCH  18  22
ATOM     22  C   UNL     1       9.080  10.118  18.738  0.00  0.00    +0.000 A 
ATOM     23  C   UNL     1       9.716  10.993  17.846  0.00  0.00    +0.000 A 
ATOM     24  C   UNL     1      10.462  12.088  18.314  0.00  0.00    +0.000 A 
ATOM     25  C   UNL     1      10.590  12.331  19.686  0.00  0.00    +0.000 A 
ATOM     26  C   UNL     1      11.406  13.480  20.205  0.00  0.00    +0.000 C 
ATOM     27  C   UNL     1       9.953  11.469  20.582  0.00  0.00    +0.000 A 
ATOM     28  C   UNL     1       9.206  10.380  20.113  0.00  0.00    +0.000 A 
ENDBRANCH  18  22
ENDBRANCH  15  16
ENDBRANCH   7  15
TORSDOF 6
ENDMDL
MODEL 5
REMARK VINA RESULT:      -8.1      4.643      7.430
REMARK  Name = 
REMARK  10 active torsions:
REMARK  status: ('A' for Active; 'I' for Inactive)
REMARK    1  A    between atoms: C_1  and  C_2
REMARK    2  A    between atoms: C_2  and  C_3
REMARK    3  A    between atoms: C_8  and  C_9
REMARK    4  A    between atoms: C_9  and  O_11
REMARK    5  A    between atoms: O_11  and  C_12
REMARK    6  A    between atoms: N_13  and  C_14
REMARK    7  A    between atoms: C_14  and  C_15
REMARK    8  A    between atoms: C_17  and  C_18
REMARK    9  A    between atoms: C_21  and  C_22
REMARK   10  A    between atoms: C_26  and  C_27
REMARK                            x       y       z     vdW  Elec       q    Type
REMARK                         _______ _______ _______ _____ _____    ______ ____
ROOT
ATOM      1  C   UNL     1       7.105   6.314  18.082  0.00  0.00    +0.000 A 
ATOM      2  C   UNL     1       6.040   6.204  18.955  0.00  0.00    +0.000 A 
ATOM      3  C   UNL     1       4.999   5.418  18.384  0.00  0.00    +0.000 A 
ATOM      4  C   UNL     1       5.354   4.886  17.182  0.00  0.00    +0.000 A 
ATOM      5  C   UNL     1       4.294   4.076  16.718  0.00  0.00    +0.000 A 
ATOM      6  C   UNL     1       3.279   4.155  17.666  0.00  0.00    +0.000 A 
ATOM      7  N   UNL     1       3.701   5.021  18.677  0.00  0.00    +0.000 N 
ATOM      8  S   UNL     1       6.931   5.365  16.663  0.00  0.00    +0.000 S 
ENDROOT
BRANCH   1  10
ATOM      9  C   UNL     1       8.062   8.595  17.823  0.00  0.00    +0.000 C 
ATOM     10  C   UNL     1       8.328   7.161  18.260  0.00  0.00    +0.000 C 
ENDBRANCH   1  10
BRANCH   6  11
ATOM     11  C   UNL     1       2.009   3.445  17.603  0.00  0.00    +0.000 C 
ATOM     12  O   UNL     1       0.912   3.949  17.416  0.00  0.00    +0.000 OA
BRANCH  11  13
ATOM     13  O   UNL     1       2.230   2.110  17.783  0.00  0.00    +0.000 OA
ATOM     14  C   UNL     1       3.254   1.770  18.716  0.00  0.00    +0.000 C 
ENDBRANCH  11  13
ENDBRANCH   6  11
BRANCH   7  15
ATOM     15  C   UNL     1       2.961   5.392  19.891  0.00  0.00    +0.000 C 
BRANCH  15  16
ATOM     16  C   UNL     1       2.323   6.748  19.866  0.00  0.00    +0.000 A 
ATOM     17  N   UNL     1       1.528   7.220  20.907  0.00  0.00    +0.000 NA
ATOM     18  C   UNL     1       1.139   8.423  20.517  0.00  0.00    +0.000 A 
ATOM     19  O   UNL     1       1.595   8.763  19.268  0.00  0.00    +0.000 OA
ATOM     20  C   UNL     1       2.335   7.692  18.860  0.00  0.00    +0.000 A 
ATOM     21  C   UNL     1       2.931   7.768  17.516  0.00  0.00    +0.000 C 
BRANCH  18  22
ATOM     22  C   UNL     1       0.327   9.436  21.204  0.00  0.00    +0.000 A 
ATOM     23  C   UNL     1      -0.098   9.241  22.526  0.00  0.00    +0.000 A 
ATOM     24  C   UNL     1      -0.877  10.206  23.186  0.00  0.00    +0.000 A 
ATOM     25  C   UNL     1      -1.249  11.389  22.537  0.00  0.00    +0.000 A 
ATOM     26  C   UNL     1      -2.104  12.419  23.217  0.00  0.00    +0.000 C 
ATOM     27  C   UNL     1      -0.823  11.595  21.222  0.00  0.00    +0.000 A 
ATOM     28  C   UNL     1      -0.043  10.633  20.568  0.00  0.00    +0.000 A 
ENDBRANCH  18  22
ENDBRANCH  15  16
ENDBRANCH   7  15
TORSDOF 6
ENDMDL
MODEL 6
REMARK VINA RESULT:      -8.0      3.438      6.649
REMARK  Name = 
REMARK  10 active torsions:
REMARK  status: ('A' for Active; 'I' for Inactive)
REMARK    1  A    between atoms: C_1  and  C_2
REMARK    2  A    between atoms: C_2  and  C_3
REMARK    3  A    between atoms: C_8  and  C_9
REMARK    4  A    between atoms: C_9  and  O_11
REMARK    5  A    between atoms: O_11  and  C_12
REMARK    6  A    between atoms: N_13  and  C_14
REMARK    7  A    between atoms: C_14  and  C_15
REMARK    8  A    between atoms: C_17  and  C_18
REMARK    9  A    between atoms: C_21  and  C_22
REMARK   10  A    between atoms: C_26  and  C_27
REMARK                            x       y       z     vdW  Elec       q    Type
REMARK                         _______ _______ _______ _____ _____    ______ ____
ROOT
ATOM      1  C   UNL     1       5.600   3.664  12.403  0.00  0.00    +0.000 A 
ATOM      2  C   UNL     1       5.018   3.425  13.633  0.00  0.00    +0.000 A 
ATOM      3  C   UNL     1       5.813   3.969  14.681  0.00  0.00    +0.000 A 
ATOM      4  C   UNL     1       6.877   4.676  14.208  0.00  0.00    +0.000 A 
ATOM      5  C   UNL     1       7.573   5.229  15.306  0.00  0.00    +0.000 A 
ATOM      6  C   UNL     1       6.910   4.814  16.456  0.00  0.00    +0.000 A 
ATOM      7  N   UNL     1       5.845   3.998  16.069  0.00  0.00    +0.000 N 
ATOM      8  S   UNL     1       6.995   4.658  12.485  0.00  0.00    +0.000 S 
ENDROOT
BRANCH   1  10
ATOM      9  C   UNL     1       3.622   3.191  10.970  0.00  0.00    +0.000 C 
ATOM     10  C   UNL     1       5.140   3.141  11.076  0.00  0.00    +0.000 C 
ENDBRANCH   1  10
BRANCH   6  11
ATOM     11  C   UNL     1       7.274   5.183  17.818  0.00  0.00    +0.000 C 
ATOM     12  O   UNL     1       7.790   4.450  18.648  0.00  0.00    +0.000 OA
BRANCH  11  13
ATOM     13  O   UNL     1       6.949   6.492  18.031  0.00  0.00    +0.000 OA
ATOM     14  C   UNL     1       8.039   7.361  18.332  0.00  0.00    +0.000 C 
ENDBRANCH  11  13
ENDBRANCH   6  11
BRANCH   7  15
ATOM     15  C   UNL     1       4.863   3.348  16.948  0.00  0.00    +0.000 C 
BRANCH  15  16
ATOM     16  C   UNL     1       4.143   4.262  17.893  0.00  0.00    +0.000 A 
ATOM     17  N   UNL     1       3.682   5.519  17.513  0.00  0.00    +0.000 NA
ATOM     18  C   UNL     1       3.128   6.021  18.604  0.00  0.00    +0.000 A 
ATOM     19  O   UNL     1       3.225   5.191  19.693  0.00  0.00    +0.000 OA
ATOM     20  C   UNL     1       3.878   4.085  19.235  0.00  0.00    +0.000 A 
ATOM     21  C   UNL     1       4.153   3.021  20.216  0.00  0.00    +0.000 C 
BRANCH  18  22
ATOM     22  C   UNL     1       2.425   7.292  18.824  0.00  0.00    +0.000 A 
ATOM     23  C   UNL     1       2.225   8.194  17.769  0.00  0.00    +0.000 A 
ATOM     24  C   UNL     1       1.556   9.412  17.975  0.00  0.00    +0.000 A 
ATOM     25  C   UNL     1       1.072   9.756  19.242  0.00  0.00    +0.000 A 
ATOM     26  C   UNL     1       0.379  11.065  19.487  0.00  0.00    +0.000 C 
ATOM     27  C   UNL     1       1.260   8.859  20.298  0.00  0.00    +0.000 A 
ATOM     28  C   UNL     1       1.924   7.644  20.088  0.00  0.00    +0.000 A 
ENDBRANCH  18  22
ENDBRANCH  15  16
ENDBRANCH   7  15
TORSDOF 6
ENDMDL
MODEL 7
REMARK VINA RESULT:      -7.9      7.444     10.444
REMARK  Name = 
REMARK  10 active torsions:
REMARK  status: ('A' for Active; 'I' for Inactive)
REMARK    1  A    between atoms: C_1  and  C_2
REMARK    2  A    between atoms: C_2  and  C_3
REMARK    3  A    between atoms: C_8  and  C_9
REMARK    4  A    between atoms: C_9  and  O_11
REMARK    5  A    between atoms: O_11  and  C_12
REMARK    6  A    between atoms: N_13  and  C_14
REMARK    7  A    between atoms: C_14  and  C_15
REMARK    8  A    between atoms: C_17  and  C_18
REMARK    9  A    between atoms: C_21  and  C_22
REMARK   10  A    between atoms: C_26  and  C_27
REMARK                            x       y       z     vdW  Elec       q    Type
REMARK                         _______ _______ _______ _____ _____    ______ ____
ROOT
ATOM      1  C   UNL     1      -2.595  10.324  17.025  0.00  0.00    +0.000 A 
ATOM      2  C   UNL     1      -1.462  10.381  17.813  0.00  0.00    +0.000 A 
ATOM      3  C   UNL     1      -1.652  11.270  18.908  0.00  0.00    +0.000 A 
ATOM      4  C   UNL     1      -2.925  11.751  18.966  0.00  0.00    +0.000 A 
ATOM      5  C   UNL     1      -3.043  12.572  20.110  0.00  0.00    +0.000 A 
ATOM      6  C   UNL     1      -1.796  12.591  20.726  0.00  0.00    +0.000 A 
ATOM      7  N   UNL     1      -0.924  11.818  19.955  0.00  0.00    +0.000 N 
ATOM      8  S   UNL     1      -3.923  11.200  17.668  0.00  0.00    +0.000 S 
ENDROOT
BRANCH   1  10
ATOM      9  C   UNL     1      -3.515  10.459  14.718  0.00  0.00    +0.000 C 
ATOM     10  C   UNL     1      -2.745   9.607  15.717  0.00  0.00    +0.000 C 
ENDBRANCH   1  10
BRANCH   6  11
ATOM     11  C   UNL     1      -1.477  13.292  21.961  0.00  0.00    +0.000 C 
ATOM     12  O   UNL     1      -1.651  12.870  23.094  0.00  0.00    +0.000 OA
BRANCH  11  13
ATOM     13  O   UNL     1      -0.941  14.512  21.660  0.00  0.00    +0.000 OA
ATOM     14  C   UNL     1       0.060  14.989  22.557  0.00  0.00    +0.000 C 
ENDBRANCH  11  13
ENDBRANCH   6  11
BRANCH   7  15
ATOM     15  C   UNL     1       0.492  11.542  20.231  0.00  0.00    +0.000 C 
BRANCH  15  16
ATOM     16  C   UNL     1       0.820  10.113  20.542  0.00  0.00    +0.000 A 
ATOM     17  N   UNL     1       1.411   9.262  19.613  0.00  0.00    +0.000 NA
ATOM     18  C   UNL     1       1.524   8.102  20.240  0.00  0.00    +0.000 A 
ATOM     19  O   UNL     1       1.010   8.121  21.512  0.00  0.00    +0.000 OA
ATOM     20  C   UNL     1       0.559   9.395  21.691  0.00  0.00    +0.000 A 
ATOM     21  C   UNL     1      -0.082   9.699  22.982  0.00  0.00    +0.000 C 
BRANCH  18  22
ATOM     22  C   UNL     1       2.113   6.830  19.801  0.00  0.00    +0.000 A 
ATOM     23  C   UNL     1       2.870   6.757  18.623  0.00  0.00    +0.000 A 
ATOM     24  C   UNL     1       3.433   5.542  18.199  0.00  0.00    +0.000 A 
ATOM     25  C   UNL     1       3.252   4.372  18.945  0.00  0.00    +0.000 A 
ATOM     26  C   UNL     1       3.824   3.058  18.493  0.00  0.00    +0.000 C 
ATOM     27  C   UNL     1       2.507   4.437  20.125  0.00  0.00    +0.000 A 
ATOM     28  C   UNL     1       1.949   5.651  20.547  0.00  0.00    +0.000 A 
ENDBRANCH  18  22
ENDBRANCH  15  16
ENDBRANCH   7  15
TORSDOF 6
ENDMDL
MODEL 8
REMARK VINA RESULT:      -7.9      7.231      9.907
REMARK  Name = 
REMARK  10 active torsions:
REMARK  status: ('A' for Active; 'I' for Inactive)
REMARK    1  A    between atoms: C_1  and  C_2
REMARK    2  A    between atoms: C_2  and  C_3
REMARK    3  A    between atoms: C_8  and  C_9
REMARK    4  A    between atoms: C_9  and  O_11
REMARK    5  A    between atoms: O_11  and  C_12
REMARK    6  A    between atoms: N_13  and  C_14
REMARK    7  A    between atoms: C_14  and  C_15
REMARK    8  A    between atoms: C_17  and  C_18
REMARK    9  A    between atoms: C_21  and  C_22
REMARK   10  A    between atoms: C_26  and  C_27
REMARK                            x       y       z     vdW  Elec       q    Type
REMARK                         _______ _______ _______ _____ _____    ______ ____
ROOT
ATOM      1  C   UNL     1      -3.156  10.405  16.812  0.00  0.00    +0.000 A 
ATOM      2  C   UNL     1      -1.829  10.474  17.187  0.00  0.00    +0.000 A 
ATOM      3  C   UNL     1      -1.668  11.325  18.316  0.00  0.00    +0.000 A 
ATOM      4  C   UNL     1      -2.860  11.765  18.806  0.00  0.00    +0.000 A 
ATOM      5  C   UNL     1      -2.612  12.548  19.955  0.00  0.00    +0.000 A 
ATOM      6  C   UNL     1      -1.233  12.587  20.130  0.00  0.00    +0.000 A 
ATOM      7  N   UNL     1      -0.647  11.865  19.088  0.00  0.00    +0.000 N 
ATOM      8  S   UNL     1      -4.217  11.221  17.885  0.00  0.00    +0.000 S 
ENDROOT
BRANCH   1  10
ATOM      9  C   UNL     1      -2.963  10.150  14.345  0.00  0.00    +0.000 C 
ATOM     10  C   UNL     1      -3.713   9.723  15.599  0.00  0.00    +0.000 C 
ENDBRANCH   1  10
BRANCH   6  11
ATOM     11  C   UNL     1      -0.540  13.262  21.219  0.00  0.00    +0.000 C 
ATOM     12  O   UNL     1       0.085  12.721  22.118  0.00  0.00    +0.000 OA
BRANCH  11  13
ATOM     13  O   UNL     1      -0.691  14.612  21.080  0.00  0.00    +0.000 OA
ATOM     14  C   UNL     1      -0.129  15.182  19.900  0.00  0.00    +0.000 C 
ENDBRANCH  11  13
ENDBRANCH   6  11
BRANCH   7  15
ATOM     15  C   UNL     1       0.787  11.625  18.875  0.00  0.00    +0.000 C 
BRANCH  15  16
ATOM     16  C   UNL     1       1.234  10.204  19.047  0.00  0.00    +0.000 A 
ATOM     17  N   UNL     1       1.958   9.525  18.071  0.00  0.00    +0.000 NA
ATOM     18  C   UNL     1       2.146   8.315  18.571  0.00  0.00    +0.000 A 
ATOM     19  O   UNL     1       1.559   8.137  19.799  0.00  0.00    +0.000 OA
ATOM     20  C   UNL     1       0.976   9.336  20.087  0.00  0.00    +0.000 A 
ATOM     21  C   UNL     1       0.234   9.427  21.355  0.00  0.00    +0.000 C 
BRANCH  18  22
ATOM     22  C   UNL     1       2.882   7.162  18.035  0.00  0.00    +0.000 A 
ATOM     23  C   UNL     1       2.401   5.857  18.213  0.00  0.00    +0.000 A 
ATOM     24  C   UNL     1       3.102   4.751  17.705  0.00  0.00    +0.000 A 
ATOM     25  C   UNL     1       4.302   4.926  17.006  0.00  0.00    +0.000 A 
ATOM     26  C   UNL     1       5.079   3.754  16.479  0.00  0.00    +0.000 C 
ATOM     27  C   UNL     1       4.784   6.224  16.816  0.00  0.00    +0.000 A 
ATOM     28  C   UNL     1       4.081   7.325  17.321  0.00  0.00    +0.000 A 
ENDBRANCH  18  22
ENDBRANCH  15  16
ENDBRANCH   7  15
TORSDOF 6
ENDMDL
MODEL 9
REMARK VINA RESULT:      -7.9      7.690     10.692
REMARK  Name = 
REMARK  10 active torsions:
REMARK  status: ('A' for Active; 'I' for Inactive)
REMARK    1  A    between atoms: C_1  and  C_2
REMARK    2  A    between atoms: C_2  and  C_3
REMARK    3  A    between atoms: C_8  and  C_9
REMARK    4  A    between atoms: C_9  and  O_11
REMARK    5  A    between atoms: O_11  and  C_12
REMARK    6  A    between atoms: N_13  and  C_14
REMARK    7  A    between atoms: C_14  and  C_15
REMARK    8  A    between atoms: C_17  and  C_18
REMARK    9  A    between atoms: C_21  and  C_22
REMARK   10  A    between atoms: C_26  and  C_27
REMARK                            x       y       z     vdW  Elec       q    Type
REMARK                         _______ _______ _______ _____ _____    ______ ____
ROOT
ATOM      1  C   UNL     1      -2.556  10.841  16.953  0.00  0.00    +0.000 A 
ATOM      2  C   UNL     1      -1.505  10.870  17.850  0.00  0.00    +0.000 A 
ATOM      3  C   UNL     1      -1.888  11.528  19.053  0.00  0.00    +0.000 A 
ATOM      4  C   UNL     1      -3.209  11.861  19.062  0.00  0.00    +0.000 A 
ATOM      5  C   UNL     1      -3.515  12.450  20.308  0.00  0.00    +0.000 A 
ATOM      6  C   UNL     1      -2.335  12.484  21.042  0.00  0.00    +0.000 A 
ATOM      7  N   UNL     1      -1.318  11.952  20.246  0.00  0.00    +0.000 N 
ATOM      8  S   UNL     1      -4.024  11.452  17.594  0.00  0.00    +0.000 S 
ENDROOT
BRANCH   1  10
ATOM      9  C   UNL     1      -3.917  10.249  14.956  0.00  0.00    +0.000 C 
ATOM     10  C   UNL     1      -2.513  10.356  15.535  0.00  0.00    +0.000 C 
ENDBRANCH   1  10
BRANCH   6  11
ATOM     11  C   UNL     1      -2.202  12.984  22.403  0.00  0.00    +0.000 C 
ATOM     12  O   UNL     1      -1.675  14.035  22.735  0.00  0.00    +0.000 OA
BRANCH  11  13
ATOM     13  O   UNL     1      -2.765  12.090  23.268  0.00  0.00    +0.000 OA
ATOM     14  C   UNL     1      -3.816  12.597  24.088  0.00  0.00    +0.000 C 
ENDBRANCH  11  13
ENDBRANCH   6  11
BRANCH   7  15
ATOM     15  C   UNL     1       0.094  11.774  20.614  0.00  0.00    +0.000 C 
BRANCH  15  16
ATOM     16  C   UNL     1       0.540  10.353  20.785  0.00  0.00    +0.000 A 
ATOM     17  N   UNL     1       1.155   9.635  19.763  0.00  0.00    +0.000 NA
ATOM     18  C   UNL     1       1.379   8.438  20.280  0.00  0.00    +0.000 A 
ATOM     19  O   UNL     1       0.917   8.305  21.565  0.00  0.00    +0.000 OA
ATOM     20  C   UNL     1       0.379   9.520  21.872  0.00  0.00    +0.000 A 
ATOM     21  C   UNL     1      -0.231   9.660  23.205  0.00  0.00    +0.000 C 
BRANCH  18  22
ATOM     22  C   UNL     1       2.045   7.259  19.710  0.00  0.00    +0.000 A 
ATOM     23  C   UNL     1       2.011   6.024  20.373  0.00  0.00    +0.000 A 
ATOM     24  C   UNL     1       2.648   4.894  19.832  0.00  0.00    +0.000 A 
ATOM     25  C   UNL     1       3.334   4.975  18.615  0.00  0.00    +0.000 A 
ATOM     26  C   UNL     1       4.044   3.785  18.035  0.00  0.00    +0.000 C 
ATOM     27  C   UNL     1       3.365   6.200  17.942  0.00  0.00    +0.000 A 
ATOM     28  C   UNL     1       2.726   7.323  18.482  0.00  0.00    +0.000 A 
ENDBRANCH  18  22
ENDBRANCH  15  16
ENDBRANCH   7  15
TORSDOF 6
ENDMDL
