MODEL 1
REMARK VINA RESULT:      -7.8      0.000      0.000
REMARK  Name = 
REMARK  9 active torsions:
REMARK  status: ('A' for Active; 'I' for Inactive)
REMARK    1  A    between atoms: C_1  and  O_2
REMARK    2  A    between atoms: O_2  and  C_3
REMARK    3  A    between atoms: C_5  and  C_6
REMARK    4  A    between atoms: C_7  and  C_8
REMARK    5  A    between atoms: C_10  and  S_11
REMARK    6  A    between atoms: S_11  and  N_14
REMARK    7  A    between atoms: N_14  and  C_15
REMARK    8  A    between atoms: N_14  and  C_16
REMARK    9  A    between atoms: C_16  and  C_17
REMARK                            x       y       z     vdW  Elec       q    Type
REMARK                         _______ _______ _______ _____ _____    ______ ____
ROOT
ATOM      1  S   UNL     1       2.149   3.048  18.018  0.00  0.00    +0.000 S 
ATOM      2  O   UNL     1       1.241   2.061  18.577  0.00  0.00    +0.000 OA
ATOM      3  O   UNL     1       2.131   3.312  16.584  0.00  0.00    +0.000 OA
ENDROOT
BRANCH   1  11
ATOM      4  C   UNL     1       1.552   4.646  20.201  0.00  0.00    +0.000 A 
ATOM      5  C   UNL     1       1.523   5.901  20.829  0.00  0.00    +0.000 A 
ATOM      6  C   UNL     1       1.798   7.091  20.131  0.00  0.00    +0.000 A 
ATOM      7  C   UNL     1       1.727   8.397  20.880  0.00  0.00    +0.000 C 
ATOM      8  C   UNL     1       2.140   7.027  18.772  0.00  0.00    +0.000 A 
ATOM      9  C   UNL     1       2.516   8.235  17.955  0.00  0.00    +0.000 C 
ATOM     10  C   UNL     1       2.184   5.772  18.138  0.00  0.00    +0.000 A 
ATOM     11  C   UNL     1       1.896   4.591  18.841  0.00  0.00    +0.000 A 
BRANCH   4  13
ATOM     12  C   UNL     1       2.280   3.046  21.801  0.00  0.00    +0.000 C 
ATOM     13  O   UNL     1       1.296   3.476  20.860  0.00  0.00    +0.000 OA
ENDBRANCH   4  13
ENDBRANCH   1  11
BRANCH   1  14
ATOM     14  N   UNL     1       3.728   2.557  18.438  0.00  0.00    +0.000 NA
ATOM     15  C   UNL     1       3.902   1.114  18.734  0.00  0.00    +0.000 C 
BRANCH  14  16
ATOM     16  C   UNL     1       4.778   3.075  17.518  0.00  0.00    +0.000 C 
BRANCH  16  17
ATOM     17  C   UNL     1       5.504   4.294  18.078  0.00  0.00    +0.000 C 
ATOM     18  O   UNL     1       5.568   4.486  19.294  0.00  0.00    +0.000 OA
ATOM     19  N   UNL     1       6.057   5.115  17.125  0.00  0.00    +0.000 N 
ATOM     20  C   UNL     1       6.847   6.193  17.453  0.00  0.00    +0.000 A 
ATOM     21  C   UNL     1       7.793   6.286  18.497  0.00  0.00    +0.000 A 
ATOM     22  C   UNL     1       8.255   7.570  18.419  0.00  0.00    +0.000 A 
ATOM     23  O   UNL     1       7.656   8.204  17.382  0.00  0.00    +0.000 OA
ATOM     24  N   UNL     1       6.815   7.316  16.728  0.00  0.00    +0.000 NA
ATOM     25  H   UNL     1       5.749   5.078  16.162  0.00  0.00    +0.000 HD
ENDBRANCH  16  17
ENDBRANCH  14  16
ENDBRANCH   1  14
TORSDOF 5
ENDMDL
MODEL 2
REMARK VINA RESULT:      -7.3      3.256      6.123
REMARK  Name = 
REMARK  9 active torsions:
REMARK  status: ('A' for Active; 'I' for Inactive)
REMARK    1  A    between atoms: C_1  and  O_2
REMARK    2  A    between atoms: O_2  and  C_3
REMARK    3  A    between atoms: C_5  and  C_6
REMARK    4  A    between atoms: C_7  and  C_8
REMARK    5  A    between atoms: C_10  and  S_11
REMARK    6  A    between atoms: S_11  and  N_14
REMARK    7  A    between atoms: N_14  and  C_15
REMARK    8  A    between atoms: N_14  and  C_16
REMARK    9  A    between atoms: C_16  and  C_17
REMARK                            x       y       z     vdW  Elec       q    Type
REMARK                         _______ _______ _______ _____ _____    ______ ____
ROOT
ATOM      1  S   UNL     1       4.280   3.515  18.283  0.00  0.00    +0.000 S 
ATOM      2  O   UNL     1       3.715   2.232  17.901  0.00  0.00    +0.000 OA
ATOM      3  O   UNL     1       5.057   3.623  19.511  0.00  0.00    +0.000 OA
ENDROOT
BRANCH   1  11
ATOM      4  C   UNL     1       6.575   4.634  17.205  0.00  0.00    +0.000 A 
ATOM      5  C   UNL     1       7.386   4.940  16.101  0.00  0.00    +0.000 A 
ATOM      6  C   UNL     1       6.943   4.765  14.778  0.00  0.00    +0.000 A 
ATOM      7  C   UNL     1       7.874   5.136  13.653  0.00  0.00    +0.000 C 
ATOM      8  C   UNL     1       5.662   4.242  14.546  0.00  0.00    +0.000 A 
ATOM      9  C   UNL     1       5.121   3.956  13.170  0.00  0.00    +0.000 C 
ATOM     10  C   UNL     1       4.847   3.920  15.646  0.00  0.00    +0.000 A 
ATOM     11  C   UNL     1       5.295   4.110  16.963  0.00  0.00    +0.000 A 
BRANCH   4  13
ATOM     12  C   UNL     1       7.656   6.010  18.812  0.00  0.00    +0.000 C 
ATOM     13  O   UNL     1       6.986   4.789  18.499  0.00  0.00    +0.000 OA
ENDBRANCH   4  13
ENDBRANCH   1  11
BRANCH   1  14
ATOM     14  N   UNL     1       2.979   4.612  18.391  0.00  0.00    +0.000 NA
ATOM     15  C   UNL     1       1.711   4.181  17.752  0.00  0.00    +0.000 C 
BRANCH  14  16
ATOM     16  C   UNL     1       2.765   5.150  19.763  0.00  0.00    +0.000 C 
BRANCH  16  17
ATOM     17  C   UNL     1       2.468   6.646  19.771  0.00  0.00    +0.000 C 
ATOM     18  O   UNL     1       2.781   7.357  18.812  0.00  0.00    +0.000 OA
ATOM     19  N   UNL     1       1.841   7.097  20.907  0.00  0.00    +0.000 N 
ATOM     20  C   UNL     1       1.394   8.392  21.035  0.00  0.00    +0.000 A 
ATOM     21  C   UNL     1       0.809   9.207  20.042  0.00  0.00    +0.000 A 
ATOM     22  C   UNL     1       0.599  10.403  20.669  0.00  0.00    +0.000 A 
ATOM     23  O   UNL     1       0.997  10.312  21.961  0.00  0.00    +0.000 OA
ATOM     24  N   UNL     1       1.439   9.022  22.213  0.00  0.00    +0.000 NA
ATOM     25  H   UNL     1       1.859   6.555  21.761  0.00  0.00    +0.000 HD
ENDBRANCH  16  17
ENDBRANCH  14  16
ENDBRANCH   1  14
TORSDOF 5
ENDMDL
MODEL 3
REMARK VINA RESULT:      -7.2      1.137      1.170
REMARK  Name = 
REMARK  9 active torsions:
REMARK  status: ('A' for Active; 'I' for Inactive)
REMARK    1  A    between atoms: C_1  and  O_2
REMARK    2  A    between atoms: O_2  and  C_3
REMARK    3  A    between atoms: C_5  and  C_6
REMARK    4  A    between atoms: C_7  and  C_8
REMARK    5  A    between atoms: C_10  and  S_11
REMARK    6  A    between atoms: S_11  and  N_14
REMARK    7  A    between atoms: N_14  and  C_15
REMARK    8  A    between atoms: N_14  and  C_16
REMARK    9  A    between atoms: C_16  and  C_17
REMARK                            x       y       z     vdW  Elec       q    Type
REMARK                         _______ _______ _______ _____ _____    ______ ____
ROOT
ATOM      1  S   UNL     1       2.230   3.186  17.918  0.00  0.00    +0.000 S 
ATOM      2  O   UNL     1       1.415   2.155  18.536  0.00  0.00    +0.000 OA
ATOM      3  O   UNL     1       2.101   3.447  16.490  0.00  0.00    +0.000 OA
ENDROOT
BRANCH   1  11
ATOM      4  C   UNL     1       1.561   4.748  20.107  0.00  0.00    +0.000 A 
ATOM      5  C   UNL     1       1.515   5.991  20.756  0.00  0.00    +0.000 A 
ATOM      6  C   UNL     1       1.825   7.192  20.092  0.00  0.00    +0.000 A 
ATOM      7  C   UNL     1       1.733   8.484  20.862  0.00  0.00    +0.000 C 
ATOM      8  C   UNL     1       2.218   7.151  18.746  0.00  0.00    +0.000 A 
ATOM      9  C   UNL     1       2.633   8.371  17.967  0.00  0.00    +0.000 C 
ATOM     10  C   UNL     1       2.279   5.908  18.091  0.00  0.00    +0.000 A 
ATOM     11  C   UNL     1       1.956   4.716  18.761  0.00  0.00    +0.000 A 
BRANCH   4  13
ATOM     12  C   UNL     1       2.119   3.200  21.821  0.00  0.00    +0.000 C 
ATOM     13  O   UNL     1       1.271   3.568  20.734  0.00  0.00    +0.000 OA
ENDBRANCH   4  13
ENDBRANCH   1  11
BRANCH   1  14
ATOM     14  N   UNL     1       3.857   2.777  18.228  0.00  0.00    +0.000 NA
ATOM     15  C   UNL     1       4.075   1.600  19.104  0.00  0.00    +0.000 C 
BRANCH  14  16
ATOM     16  C   UNL     1       4.705   2.736  17.005  0.00  0.00    +0.000 C 
BRANCH  16  17
ATOM     17  C   UNL     1       5.554   3.991  16.832  0.00  0.00    +0.000 C 
ATOM     18  O   UNL     1       5.733   4.482  15.714  0.00  0.00    +0.000 OA
ATOM     19  N   UNL     1       6.071   4.494  18.001  0.00  0.00    +0.000 N 
ATOM     20  C   UNL     1       6.761   5.684  18.046  0.00  0.00    +0.000 A 
ATOM     21  C   UNL     1       6.500   6.863  17.316  0.00  0.00    +0.000 A 
ATOM     22  C   UNL     1       7.499   7.719  17.689  0.00  0.00    +0.000 A 
ATOM     23  O   UNL     1       8.293   7.114  18.605  0.00  0.00    +0.000 OA
ATOM     24  N   UNL     1       7.790   5.851  18.882  0.00  0.00    +0.000 NA
ATOM     25  H   UNL     1       6.137   3.921  18.831  0.00  0.00    +0.000 HD
ENDBRANCH  16  17
ENDBRANCH  14  16
ENDBRANCH   1  14
TORSDOF 5
ENDMDL
MODEL 4
REMARK VINA RESULT:      -7.0      2.858      3.593
REMARK  Name = 
REMARK  9 active torsions:
REMARK  status: ('A' for Active; 'I' for Inactive)
REMARK    1  A    between atoms: C_1  and  O_2
REMARK    2  A    between atoms: O_2  and  C_3
REMARK    3  A    between atoms: C_5  and  C_6
REMARK    4  A    between atoms: C_7  and  C_8
REMARK    5  A    between atoms: C_10  and  S_11
REMARK    6  A    between atoms: S_11  and  N_14
REMARK    7  A    between atoms: N_14  and  C_15
REMARK    8  A    between atoms: N_14  and  C_16
REMARK    9  A    between atoms: C_16  and  C_17
REMARK                            x       y       z     vdW  Elec       q    Type
REMARK                         _______ _______ _______ _____ _____    ______ ____
ROOT
ATOM      1  S   UNL     1       4.122   5.832  17.476  0.00  0.00    +0.000 S 
ATOM      2  O   UNL     1       3.632   4.465  17.451  0.00  0.00    +0.000 OA
ATOM      3  O   UNL     1       4.384   6.527  16.221  0.00  0.00    +0.000 OA
ENDROOT
BRANCH   1  11
ATOM      4  C   UNL     1       2.543   6.430  19.673  0.00  0.00    +0.000 A 
ATOM      5  C   UNL     1       1.778   7.340  20.420  0.00  0.00    +0.000 A 
ATOM      6  C   UNL     1       1.436   8.611  19.925  0.00  0.00    +0.000 A 
ATOM      7  C   UNL     1       0.598   9.518  20.789  0.00  0.00    +0.000 C 
ATOM      8  C   UNL     1       1.893   9.001  18.657  0.00  0.00    +0.000 A 
ATOM      9  C   UNL     1       1.637  10.362  18.067  0.00  0.00    +0.000 C 
ATOM     10  C   UNL     1       2.670   8.100  17.906  0.00  0.00    +0.000 A 
ATOM     11  C   UNL     1       2.996   6.829  18.405  0.00  0.00    +0.000 A 
BRANCH   4  13
ATOM     12  C   UNL     1       1.962   4.552  21.006  0.00  0.00    +0.000 C 
ATOM     13  O   UNL     1       2.893   5.193  20.136  0.00  0.00    +0.000 OA
ENDBRANCH   4  13
ENDBRANCH   1  11
BRANCH   1  14
ATOM     14  N   UNL     1       5.571   5.817  18.376  0.00  0.00    +0.000 NA
ATOM     15  C   UNL     1       5.739   4.682  19.317  0.00  0.00    +0.000 C 
BRANCH  14  16
ATOM     16  C   UNL     1       6.788   6.052  17.551  0.00  0.00    +0.000 C 
BRANCH  16  17
ATOM     17  C   UNL     1       6.891   5.099  16.365  0.00  0.00    +0.000 C 
ATOM     18  O   UNL     1       6.868   3.877  16.534  0.00  0.00    +0.000 OA
ATOM     19  N   UNL     1       7.004   5.718  15.144  0.00  0.00    +0.000 N 
ATOM     20  C   UNL     1       6.989   5.017  13.960  0.00  0.00    +0.000 A 
ATOM     21  C   UNL     1       6.212   3.883  13.637  0.00  0.00    +0.000 A 
ATOM     22  C   UNL     1       6.612   3.552  12.372  0.00  0.00    +0.000 A 
ATOM     23  O   UNL     1       7.542   4.439  11.944  0.00  0.00    +0.000 OA
ATOM     24  N   UNL     1       7.734   5.405  12.920  0.00  0.00    +0.000 NA
ATOM     25  H   UNL     1       7.298   6.684  15.075  0.00  0.00    +0.000 HD
ENDBRANCH  16  17
ENDBRANCH  14  16
ENDBRANCH   1  14
TORSDOF 5
ENDMDL
MODEL 5
REMARK VINA RESULT:      -6.9      3.173      6.116
REMARK  Name = 
REMARK  9 active torsions:
REMARK  status: ('A' for Active; 'I' for Inactive)
REMARK    1  A    between atoms: C_1  and  O_2
REMARK    2  A    between atoms: O_2  and  C_3
REMARK    3  A    between atoms: C_5  and  C_6
REMARK    4  A    between atoms: C_7  and  C_8
REMARK    5  A    between atoms: C_10  and  S_11
REMARK    6  A    between atoms: S_11  and  N_14
REMARK    7  A    between atoms: N_14  and  C_15
REMARK    8  A    between atoms: N_14  and  C_16
REMARK    9  A    between atoms: C_16  and  C_17
REMARK                            x       y       z     vdW  Elec       q    Type
REMARK                         _______ _______ _______ _____ _____    ______ ____
ROOT
ATOM      1  S   UNL     1       4.474   3.704  18.042  0.00  0.00    +0.000 S 
ATOM      2  O   UNL     1       3.802   2.475  17.660  0.00  0.00    +0.000 OA
ATOM      3  O   UNL     1       5.353   3.713  19.204  0.00  0.00    +0.000 OA
ENDROOT
BRANCH   1  11
ATOM      4  C   UNL     1       6.515   5.147  16.847  0.00  0.00    +0.000 A 
ATOM      5  C   UNL     1       7.308   5.452  15.729  0.00  0.00    +0.000 A 
ATOM      6  C   UNL     1       7.011   4.956  14.446  0.00  0.00    +0.000 A 
ATOM      7  C   UNL     1       7.907   5.348  13.299  0.00  0.00    +0.000 C 
ATOM      8  C   UNL     1       5.906   4.109  14.275  0.00  0.00    +0.000 A 
ATOM      9  C   UNL     1       5.545   3.475  12.959  0.00  0.00    +0.000 C 
ATOM     10  C   UNL     1       5.114   3.788  15.392  0.00  0.00    +0.000 A 
ATOM     11  C   UNL     1       5.412   4.298  16.666  0.00  0.00    +0.000 A 
BRANCH   4  13
ATOM     12  C   UNL     1       7.689   6.714  18.193  0.00  0.00    +0.000 C 
ATOM     13  O   UNL     1       6.787   5.611  18.103  0.00  0.00    +0.000 OA
ENDBRANCH   4  13
ENDBRANCH   1  11
BRANCH   1  14
ATOM     14  N   UNL     1       3.255   4.869  18.302  0.00  0.00    +0.000 NA
ATOM     15  C   UNL     1       1.861   4.414  18.072  0.00  0.00    +0.000 C 
BRANCH  14  16
ATOM     16  C   UNL     1       3.402   5.610  19.585  0.00  0.00    +0.000 C 
BRANCH  16  17
ATOM     17  C   UNL     1       2.319   6.665  19.786  0.00  0.00    +0.000 C 
ATOM     18  O   UNL     1       1.491   6.554  20.693  0.00  0.00    +0.000 OA
ATOM     19  N   UNL     1       2.364   7.705  18.889  0.00  0.00    +0.000 N 
ATOM     20  C   UNL     1       1.538   8.802  18.994  0.00  0.00    +0.000 A 
ATOM     21  C   UNL     1       1.114   9.454  20.171  0.00  0.00    +0.000 A 
ATOM     22  C   UNL     1       0.274  10.438  19.726  0.00  0.00    +0.000 A 
ATOM     23  O   UNL     1       0.218  10.406  18.373  0.00  0.00    +0.000 OA
ATOM     24  N   UNL     1       1.068   9.415  17.904  0.00  0.00    +0.000 NA
ATOM     25  H   UNL     1       2.862   7.617  18.014  0.00  0.00    +0.000 HD
ENDBRANCH  16  17
ENDBRANCH  14  16
ENDBRANCH   1  14
TORSDOF 5
ENDMDL
MODEL 6
REMARK VINA RESULT:      -6.9      2.364      4.748
REMARK  Name = 
REMARK  9 active torsions:
REMARK  status: ('A' for Active; 'I' for Inactive)
REMARK    1  A    between atoms: C_1  and  O_2
REMARK    2  A    between atoms: O_2  and  C_3
REMARK    3  A    between atoms: C_5  and  C_6
REMARK    4  A    between atoms: C_7  and  C_8
REMARK    5  A    between atoms: C_10  and  S_11
REMARK    6  A    between atoms: S_11  and  N_14
REMARK    7  A    between atoms: N_14  and  C_15
REMARK    8  A    between atoms: N_14  and  C_16
REMARK    9  A    between atoms: C_16  and  C_17
REMARK                            x       y       z     vdW  Elec       q    Type
REMARK                         _______ _______ _______ _____ _____    ______ ____
ROOT
ATOM      1  S   UNL     1       3.842   2.420  19.741  0.00  0.00    +0.000 S 
ATOM      2  O   UNL     1       3.293   1.366  18.906  0.00  0.00    +0.000 OA
ATOM      3  O   UNL     1       4.817   2.089  20.772  0.00  0.00    +0.000 OA
ENDROOT
BRANCH   1  11
ATOM      4  C   UNL     1       3.916   4.120  17.554  0.00  0.00    +0.000 A 
ATOM      5  C   UNL     1       4.477   5.208  16.866  0.00  0.00    +0.000 A 
ATOM      6  C   UNL     1       5.678   5.813  17.279  0.00  0.00    +0.000 A 
ATOM      7  C   UNL     1       6.218   6.965  16.471  0.00  0.00    +0.000 C 
ATOM      8  C   UNL     1       6.327   5.338  18.428  0.00  0.00    +0.000 A 
ATOM      9  C   UNL     1       7.579   5.958  18.988  0.00  0.00    +0.000 C 
ATOM     10  C   UNL     1       5.765   4.256  19.131  0.00  0.00    +0.000 A 
ATOM     11  C   UNL     1       4.572   3.652  18.703  0.00  0.00    +0.000 A 
BRANCH   4  13
ATOM     12  C   UNL     1       1.546   4.245  17.442  0.00  0.00    +0.000 C 
ATOM     13  O   UNL     1       2.747   3.522  17.176  0.00  0.00    +0.000 OA
ENDBRANCH   4  13
ENDBRANCH   1  11
BRANCH   1  14
ATOM     14  N   UNL     1       2.520   3.185  20.499  0.00  0.00    +0.000 NA
ATOM     15  C   UNL     1       1.700   2.330  21.393  0.00  0.00    +0.000 C 
BRANCH  14  16
ATOM     16  C   UNL     1       2.866   4.490  21.129  0.00  0.00    +0.000 C 
BRANCH  16  17
ATOM     17  C   UNL     1       2.078   5.656  20.541  0.00  0.00    +0.000 C 
ATOM     18  O   UNL     1       0.868   5.769  20.751  0.00  0.00    +0.000 OA
ATOM     19  N   UNL     1       2.828   6.529  19.790  0.00  0.00    +0.000 N 
ATOM     20  C   UNL     1       2.306   7.698  19.284  0.00  0.00    +0.000 A 
ATOM     21  C   UNL     1       1.379   8.568  19.898  0.00  0.00    +0.000 A 
ATOM     22  C   UNL     1       1.157   9.538  18.960  0.00  0.00    +0.000 A 
ATOM     23  O   UNL     1       1.918   9.292  17.867  0.00  0.00    +0.000 OA
ATOM     24  N   UNL     1       2.695   8.167  18.094  0.00  0.00    +0.000 NA
ATOM     25  H   UNL     1       3.727   6.256  19.418  0.00  0.00    +0.000 HD
ENDBRANCH  16  17
ENDBRANCH  14  16
ENDBRANCH   1  14
TORSDOF 5
ENDMDL
MODEL 7
REMARK VINA RESULT:      -6.9      2.854      3.788
REMARK  Name = 
REMARK  9 active torsions:
REMARK  status: ('A' for Active; 'I' for Inactive)
REMARK    1  A    between atoms: C_1  and  O_2
REMARK    2  A    between atoms: O_2  and  C_3
REMARK    3  A    between atoms: C_5  and  C_6
REMARK    4  A    between atoms: C_7  and  C_8
REMARK    5  A    between atoms: C_10  and  S_11
REMARK    6  A    between atoms: S_11  and  N_14
REMARK    7  A    between atoms: N_14  and  C_15
REMARK    8  A    between atoms: N_14  and  C_16
REMARK    9  A    between atoms: C_16  and  C_17
REMARK                            x       y       z     vdW  Elec       q    Type
REMARK                         _______ _______ _______ _____ _____    ______ ____
ROOT
ATOM      1  S   UNL     1       4.753   4.067  18.408  0.00  0.00    +0.000 S 
ATOM      2  O   UNL     1       5.158   3.212  19.510  0.00  0.00    +0.000 OA
ATOM      3  O   UNL     1       4.241   3.468  17.181  0.00  0.00    +0.000 OA
ENDROOT
BRANCH   1  11
ATOM      4  C   UNL     1       2.831   4.985  20.181  0.00  0.00    +0.000 A 
ATOM      5  C   UNL     1       1.995   6.005  20.660  0.00  0.00    +0.000 A 
ATOM      6  C   UNL     1       1.824   7.217  19.967  0.00  0.00    +0.000 A 
ATOM      7  C   UNL     1       0.893   8.251  20.546  0.00  0.00    +0.000 C 
ATOM      8  C   UNL     1       2.528   7.432  18.773  0.00  0.00    +0.000 A 
ATOM      9  C   UNL     1       2.464   8.718  17.994  0.00  0.00    +0.000 C 
ATOM     10  C   UNL     1       3.378   6.420  18.292  0.00  0.00    +0.000 A 
ATOM     11  C   UNL     1       3.533   5.208  18.986  0.00  0.00    +0.000 A 
BRANCH   4  13
ATOM     12  C   UNL     1       1.851   3.022  21.092  0.00  0.00    +0.000 C 
ATOM     13  O   UNL     1       3.019   3.803  20.840  0.00  0.00    +0.000 OA
ENDBRANCH   4  13
ENDBRANCH   1  11
BRANCH   1  14
ATOM     14  N   UNL     1       6.110   5.015  17.998  0.00  0.00    +0.000 NA
ATOM     15  C   UNL     1       6.714   5.798  19.105  0.00  0.00    +0.000 C 
BRANCH  14  16
ATOM     16  C   UNL     1       7.133   4.281  17.202  0.00  0.00    +0.000 C 
BRANCH  16  17
ATOM     17  C   UNL     1       7.030   4.561  15.707  0.00  0.00    +0.000 C 
ATOM     18  O   UNL     1       7.637   5.507  15.199  0.00  0.00    +0.000 OA
ATOM     19  N   UNL     1       6.227   3.684  15.017  0.00  0.00    +0.000 N 
ATOM     20  C   UNL     1       6.114   3.715  13.646  0.00  0.00    +0.000 A 
ATOM     21  C   UNL     1       7.127   3.983  12.701  0.00  0.00    +0.000 A 
ATOM     22  C   UNL     1       6.483   3.942  11.495  0.00  0.00    +0.000 A 
ATOM     23  O   UNL     1       5.177   3.640  11.692  0.00  0.00    +0.000 OA
ATOM     24  N   UNL     1       4.954   3.431  13.045  0.00  0.00    +0.000 NA
ATOM     25  H   UNL     1       5.543   3.115  15.498  0.00  0.00    +0.000 HD
ENDBRANCH  16  17
ENDBRANCH  14  16
ENDBRANCH   1  14
TORSDOF 5
ENDMDL
MODEL 8
REMARK VINA RESULT:      -6.8      1.685      1.769
REMARK  Name = 
REMARK  9 active torsions:
REMARK  status: ('A' for Active; 'I' for Inactive)
REMARK    1  A    between atoms: C_1  and  O_2
REMARK    2  A    between atoms: O_2  and  C_3
REMARK    3  A    between atoms: C_5  and  C_6
REMARK    4  A    between atoms: C_7  and  C_8
REMARK    5  A    between atoms: C_10  and  S_11
REMARK    6  A    between atoms: S_11  and  N_14
REMARK    7  A    between atoms: N_14  and  C_15
REMARK    8  A    between atoms: N_14  and  C_16
REMARK    9  A    between atoms: C_16  and  C_17
REMARK                            x       y       z     vdW  Elec       q    Type
REMARK                         _______ _______ _______ _____ _____    ______ ____
ROOT
ATOM      1  S   UNL     1       2.033   3.065  18.211  0.00  0.00    +0.000 S 
ATOM      2  O   UNL     1       0.971   2.164  18.622  0.00  0.00    +0.000 OA
ATOM      3  O   UNL     1       2.261   3.311  16.793  0.00  0.00    +0.000 OA
ENDROOT
BRANCH   1  11
ATOM      4  C   UNL     1       1.387   4.734  20.327  0.00  0.00    +0.000 A 
ATOM      5  C   UNL     1       1.363   6.005  20.921  0.00  0.00    +0.000 A 
ATOM      6  C   UNL     1       1.695   7.170  20.205  0.00  0.00    +0.000 A 
ATOM      7  C   UNL     1       1.625   8.496  20.917  0.00  0.00    +0.000 C 
ATOM      8  C   UNL     1       2.090   7.062  18.863  0.00  0.00    +0.000 A 
ATOM      9  C   UNL     1       2.528   8.239  18.032  0.00  0.00    +0.000 C 
ATOM     10  C   UNL     1       2.130   5.790  18.264  0.00  0.00    +0.000 A 
ATOM     11  C   UNL     1       1.785   4.635  18.985  0.00  0.00    +0.000 A 
BRANCH   4  13
ATOM     12  C   UNL     1       2.020   3.150  21.982  0.00  0.00    +0.000 C 
ATOM     13  O   UNL     1       1.076   3.588  21.005  0.00  0.00    +0.000 OA
ENDBRANCH   4  13
ENDBRANCH   1  11
BRANCH   1  14
ATOM     14  N   UNL     1       3.481   2.452  18.874  0.00  0.00    +0.000 NA
ATOM     15  C   UNL     1       4.202   1.454  18.046  0.00  0.00    +0.000 C 
BRANCH  14  16
ATOM     16  C   UNL     1       4.388   3.508  19.403  0.00  0.00    +0.000 C 
BRANCH  16  17
ATOM     17  C   UNL     1       5.402   3.988  18.370  0.00  0.00    +0.000 C 
ATOM     18  O   UNL     1       6.608   4.000  18.629  0.00  0.00    +0.000 OA
ATOM     19  N   UNL     1       4.853   4.384  17.175  0.00  0.00    +0.000 N 
ATOM     20  C   UNL     1       5.626   4.734  16.091  0.00  0.00    +0.000 A 
ATOM     21  C   UNL     1       6.840   4.150  15.671  0.00  0.00    +0.000 A 
ATOM     22  C   UNL     1       7.216   4.895  14.588  0.00  0.00    +0.000 A 
ATOM     23  O   UNL     1       6.281   5.846  14.348  0.00  0.00    +0.000 OA
ATOM     24  N   UNL     1       5.242   5.705  15.256  0.00  0.00    +0.000 NA
ATOM     25  H   UNL     1       3.873   4.622  17.105  0.00  0.00    +0.000 HD
ENDBRANCH  16  17
ENDBRANCH  14  16
ENDBRANCH   1  14
TORSDOF 5
ENDMDL
MODEL 9
REMARK VINA RESULT:      -6.7      1.350      1.566
REMARK  Name = 
REMARK  9 active torsions:
REMARK  status: ('A' for Active; 'I' for Inactive)
REMARK    1  A    between atoms: C_1  and  O_2
REMARK    2  A    between atoms: O_2  and  C_3
REMARK    3  A    between atoms: C_5  and  C_6
REMARK    4  A    between atoms: C_7  and  C_8
REMARK    5  A    between atoms: C_10  and  S_11
REMARK    6  A    between atoms: S_11  and  N_14
REMARK    7  A    between atoms: N_14  and  C_15
REMARK    8  A    between atoms: N_14  and  C_16
REMARK    9  A    between atoms: C_16  and  C_17
REMARK                            x       y       z     vdW  Elec       q    Type
REMARK                         _______ _______ _______ _____ _____    ______ ____
ROOT
ATOM      1  S   UNL     1       3.513   4.443  17.652  0.00  0.00    +0.000 S 
ATOM      2  O   UNL     1       2.567   3.375  17.382  0.00  0.00    +0.000 OA
ATOM      3  O   UNL     1       4.225   5.073  16.547  0.00  0.00    +0.000 OA
ENDROOT
BRANCH   1  11
ATOM      4  C   UNL     1       2.251   5.531  19.866  0.00  0.00    +0.000 A 
ATOM      5  C   UNL     1       1.749   6.637  20.570  0.00  0.00    +0.000 A 
ATOM      6  C   UNL     1       1.651   7.912  19.984  0.00  0.00    +0.000 A 
ATOM      7  C   UNL     1       1.085   9.040  20.807  0.00  0.00    +0.000 C 
ATOM      8  C   UNL     1       2.092   8.098  18.665  0.00  0.00    +0.000 A 
ATOM      9  C   UNL     1       2.090   9.435  17.973  0.00  0.00    +0.000 C 
ATOM     10  C   UNL     1       2.607   6.998  17.957  0.00  0.00    +0.000 A 
ATOM     11  C   UNL     1       2.690   5.726  18.547  0.00  0.00    +0.000 A 
BRANCH   4  13
ATOM     12  C   UNL     1       1.142   3.586  20.663  0.00  0.00    +0.000 C 
ATOM     13  O   UNL     1       2.362   4.285  20.417  0.00  0.00    +0.000 OA
ENDBRANCH   4  13
ENDBRANCH   1  11
BRANCH   1  14
ATOM     14  N   UNL     1       4.676   3.808  18.727  0.00  0.00    +0.000 NA
ATOM     15  C   UNL     1       4.429   2.427  19.208  0.00  0.00    +0.000 C 
BRANCH  14  16
ATOM     16  C   UNL     1       6.080   4.005  18.271  0.00  0.00    +0.000 C 
BRANCH  16  17
ATOM     17  C   UNL     1       6.656   5.352  18.697  0.00  0.00    +0.000 C 
ATOM     18  O   UNL     1       6.918   5.579  19.881  0.00  0.00    +0.000 OA
ATOM     19  N   UNL     1       6.844   6.242  17.668  0.00  0.00    +0.000 N 
ATOM     20  C   UNL     1       7.463   7.458  17.852  0.00  0.00    +0.000 A 
ATOM     21  C   UNL     1       8.559   7.751  18.691  0.00  0.00    +0.000 A 
ATOM     22  C   UNL     1       8.743   9.098  18.546  0.00  0.00    +0.000 A 
ATOM     23  O   UNL     1       7.843   9.584  17.657  0.00  0.00    +0.000 OA
ATOM     24  N   UNL     1       7.075   8.538  17.167  0.00  0.00    +0.000 NA
ATOM     25  H   UNL     1       6.366   6.126  16.785  0.00  0.00    +0.000 HD
ENDBRANCH  16  17
ENDBRANCH  14  16
ENDBRANCH   1  14
TORSDOF 5
ENDMDL
