MODEL 1
REMARK VINA RESULT:      -9.0      0.000      0.000
REMARK  Name = 
REMARK  7 active torsions:
REMARK  status: ('A' for Active; 'I' for Inactive)
REMARK    1  A    between atoms: C_1  and  C_2
REMARK    2  A    between atoms: C_2  and  O_3
REMARK    3  A    between atoms: C_2  and  C_25
REMARK    4  A    between atoms: O_3  and  C_4
REMARK    5  A    between atoms: N_27  and  C_28
REMARK    6  A    between atoms: C_28  and  C_29
REMARK    7  A    between atoms: C_29  and  N_30
REMARK                            x       y       z     vdW  Elec       q    Type
REMARK                         _______ _______ _______ _____ _____    ______ ____
ROOT
ATOM      1  C   UNL     1       2.082   6.424  20.214  0.00  0.00    +0.000 A 
ATOM      2  C   UNL     1       2.499   7.028  19.029  0.00  0.00    +0.000 A 
ATOM      3  C   UNL     1       2.224   8.386  18.766  0.00  0.00    +0.000 A 
ATOM      4  C   UNL     1       1.465   9.098  19.715  0.00  0.00    +0.000 A 
ATOM      5  C   UNL     1       1.061   8.497  20.910  0.00  0.00    +0.000 A 
ATOM      6  C   UNL     1       1.450   7.189  21.174  0.00  0.00    +0.000 A 
ATOM      7  C   UNL     1       0.275   9.404  21.655  0.00  0.00    +0.000 A 
ATOM      8  C   UNL     1      -0.438   9.359  22.857  0.00  0.00    +0.000 A 
ATOM      9  C   UNL     1      -1.097  10.529  23.211  0.00  0.00    +0.000 A 
ATOM     10  N   UNL     1      -1.089  11.681  22.491  0.00  0.00    +0.000 NA
ATOM     11  C   UNL     1      -0.400  11.708  21.324  0.00  0.00    +0.000 A 
ATOM     12  C   UNL     1      -0.306  12.879  20.459  0.00  0.00    +0.000 A 
ATOM     13  C   UNL     1      -0.914  14.099  20.778  0.00  0.00    +0.000 A 
ATOM     14  C   UNL     1      -0.787  15.198  19.926  0.00  0.00    +0.000 A 
ATOM     15  C   UNL     1      -0.053  15.095  18.742  0.00  0.00    +0.000 A 
ATOM     16  C   UNL     1       0.561  13.892  18.397  0.00  0.00    +0.000 A 
ATOM     17  C   UNL     1       0.438  12.789  19.247  0.00  0.00    +0.000 A 
ATOM     18  C   UNL     1       1.098  11.488  18.889  0.00  0.00    +0.000 A 
ATOM     19  O   UNL     1       1.746  11.344  17.840  0.00  0.00    +0.000 OA
ATOM     20  N   UNL     1       0.986  10.399  19.763  0.00  0.00    +0.000 N 
ATOM     21  C   UNL     1       0.258  10.563  20.923  0.00  0.00    +0.000 A 
ENDROOT
BRANCH   1  22
ATOM     22  O   UNL     1       2.365   5.107  20.452  0.00  0.00    +0.000 OA
BRANCH  22  24
ATOM     23  C   UNL     1       1.062   3.019  21.036  0.00  0.00    +0.000 C 
ATOM     24  C   UNL     1       1.323   4.180  20.064  0.00  0.00    +0.000 C 
BRANCH  24  25
ATOM     25  C   UNL     1       1.813   3.573  18.761  0.00  0.00    +0.000 C 
ATOM     26  O   UNL     1       1.063   3.433  17.792  0.00  0.00    +0.000 OA
ATOM     27  N   UNL     1       3.131   3.124  18.753  0.00  0.00    +0.000 N 
ATOM     28  H   UNL     1       3.767   3.526  19.435  0.00  0.00    +0.000 HD
BRANCH  27  29
ATOM     29  C   UNL     1       3.582   2.609  17.481  0.00  0.00    +0.000 C 
BRANCH  29  30
ATOM     30  C   UNL     1       4.545   3.472  16.664  0.00  0.00    +0.000 C 
BRANCH  30  31
ATOM     31  N   UNL     1       4.958   4.740  17.311  0.00  0.00    +0.000 NA
ATOM     32  C   UNL     1       5.213   5.801  16.314  0.00  0.00    +0.000 C 
ATOM     33  C   UNL     1       6.535   5.592  15.559  0.00  0.00    +0.000 C 
ATOM     34  O   UNL     1       7.646   5.617  16.463  0.00  0.00    +0.000 OA
ATOM     35  C   UNL     1       7.518   4.615  17.484  0.00  0.00    +0.000 C 
ATOM     36  C   UNL     1       6.147   4.679  18.197  0.00  0.00    +0.000 C 
ENDBRANCH  30  31
ENDBRANCH  29  30
ENDBRANCH  27  29
ENDBRANCH  24  25
ENDBRANCH  22  24
ENDBRANCH   1  22
TORSDOF 6
ENDMDL
MODEL 2
REMARK VINA RESULT:      -8.9      1.207      1.332
REMARK  Name = 
REMARK  7 active torsions:
REMARK  status: ('A' for Active; 'I' for Inactive)
REMARK    1  A    between atoms: C_1  and  C_2
REMARK    2  A    between atoms: C_2  and  O_3
REMARK    3  A    between atoms: C_2  and  C_25
REMARK    4  A    between atoms: O_3  and  C_4
REMARK    5  A    between atoms: N_27  and  C_28
REMARK    6  A    between atoms: C_28  and  C_29
REMARK    7  A    between atoms: C_29  and  N_30
REMARK                            x       y       z     vdW  Elec       q    Type
REMARK                         _______ _______ _______ _____ _____    ______ ____
ROOT
ATOM      1  C   UNL     1       1.895   6.020  19.874  0.00  0.00    +0.000 A 
ATOM      2  C   UNL     1       2.382   6.637  18.723  0.00  0.00    +0.000 A 
ATOM      3  C   UNL     1       2.284   8.033  18.547  0.00  0.00    +0.000 A 
ATOM      4  C   UNL     1       1.628   8.777  19.546  0.00  0.00    +0.000 A 
ATOM      5  C   UNL     1       1.155   8.160  20.708  0.00  0.00    +0.000 A 
ATOM      6  C   UNL     1       1.372   6.798  20.886  0.00  0.00    +0.000 A 
ATOM      7  C   UNL     1       0.496   9.113  21.516  0.00  0.00    +0.000 A 
ATOM      8  C   UNL     1      -0.211   9.086  22.723  0.00  0.00    +0.000 A 
ATOM      9  C   UNL     1      -0.711  10.307  23.155  0.00  0.00    +0.000 A 
ATOM     10  N   UNL     1      -0.557  11.491  22.506  0.00  0.00    +0.000 NA
ATOM     11  C   UNL     1       0.124  11.501  21.336  0.00  0.00    +0.000 A 
ATOM     12  C   UNL     1       0.366  12.701  20.542  0.00  0.00    +0.000 A 
ATOM     13  C   UNL     1      -0.077  13.967  20.943  0.00  0.00    +0.000 A 
ATOM     14  C   UNL     1       0.188  15.091  20.157  0.00  0.00    +0.000 A 
ATOM     15  C   UNL     1       0.897  14.968  18.960  0.00  0.00    +0.000 A 
ATOM     16  C   UNL     1       1.348  13.720  18.536  0.00  0.00    +0.000 A 
ATOM     17  C   UNL     1       1.087  12.592  19.318  0.00  0.00    +0.000 A 
ATOM     18  C   UNL     1       1.571  11.241  18.873  0.00  0.00    +0.000 A 
ATOM     19  O   UNL     1       2.190  11.080  17.810  0.00  0.00    +0.000 OA
ATOM     20  N   UNL     1       1.322  10.123  19.680  0.00  0.00    +0.000 N 
ATOM     21  C   UNL     1       0.627  10.308  20.857  0.00  0.00    +0.000 A 
ENDROOT
BRANCH   1  22
ATOM     22  O   UNL     1       2.006   4.665  20.027  0.00  0.00    +0.000 OA
BRANCH  22  24
ATOM     23  C   UNL     1       0.990   2.583  19.013  0.00  0.00    +0.000 C 
ATOM     24  C   UNL     1       1.769   3.893  18.826  0.00  0.00    +0.000 C 
BRANCH  24  25
ATOM     25  C   UNL     1       3.154   3.525  18.325  0.00  0.00    +0.000 C 
ATOM     26  O   UNL     1       3.928   2.851  19.007  0.00  0.00    +0.000 OA
ATOM     27  N   UNL     1       3.516   4.050  17.088  0.00  0.00    +0.000 N 
ATOM     28  H   UNL     1       2.769   4.324  16.457  0.00  0.00    +0.000 HD
BRANCH  27  29
ATOM     29  C   UNL     1       4.816   3.630  16.614  0.00  0.00    +0.000 C 
BRANCH  29  30
ATOM     30  C   UNL     1       6.009   4.543  16.906  0.00  0.00    +0.000 C 
BRANCH  30  31
ATOM     31  N   UNL     1       5.756   5.608  17.904  0.00  0.00    +0.000 NA
ATOM     32  C   UNL     1       6.104   6.944  17.372  0.00  0.00    +0.000 C 
ATOM     33  C   UNL     1       7.622   7.171  17.303  0.00  0.00    +0.000 C 
ATOM     34  O   UNL     1       8.207   7.096  18.610  0.00  0.00    +0.000 OA
ATOM     35  C   UNL     1       7.944   5.830  19.233  0.00  0.00    +0.000 C 
ATOM     36  C   UNL     1       6.440   5.469  19.214  0.00  0.00    +0.000 C 
ENDBRANCH  30  31
ENDBRANCH  29  30
ENDBRANCH  27  29
ENDBRANCH  24  25
ENDBRANCH  22  24
ENDBRANCH   1  22
TORSDOF 6
ENDMDL
MODEL 3
REMARK VINA RESULT:      -8.6      0.941      1.082
REMARK  Name = 
REMARK  7 active torsions:
REMARK  status: ('A' for Active; 'I' for Inactive)
REMARK    1  A    between atoms: C_1  and  C_2
REMARK    2  A    between atoms: C_2  and  O_3
REMARK    3  A    between atoms: C_2  and  C_25
REMARK    4  A    between atoms: O_3  and  C_4
REMARK    5  A    between atoms: N_27  and  C_28
REMARK    6  A    between atoms: C_28  and  C_29
REMARK    7  A    between atoms: C_29  and  N_30
REMARK                            x       y       z     vdW  Elec       q    Type
REMARK                         _______ _______ _______ _____ _____    ______ ____
ROOT
ATOM      1  C   UNL     1       2.002   7.303  19.789  0.00  0.00    +0.000 A 
ATOM      2  C   UNL     1       2.319   8.053  18.658  0.00  0.00    +0.000 A 
ATOM      3  C   UNL     1       1.940   9.407  18.551  0.00  0.00    +0.000 A 
ATOM      4  C   UNL     1       1.181   9.961  19.600  0.00  0.00    +0.000 A 
ATOM      5  C   UNL     1       0.879   9.214  20.742  0.00  0.00    +0.000 A 
ATOM      6  C   UNL     1       1.368   7.917  20.850  0.00  0.00    +0.000 A 
ATOM      7  C   UNL     1       0.070   9.980  21.610  0.00  0.00    +0.000 A 
ATOM      8  C   UNL     1      -0.579   9.762  22.830  0.00  0.00    +0.000 A 
ATOM      9  C   UNL     1      -1.297  10.839  23.331  0.00  0.00    +0.000 A 
ATOM     10  N   UNL     1      -1.402  12.055  22.737  0.00  0.00    +0.000 NA
ATOM     11  C   UNL     1      -0.775  12.252  21.552  0.00  0.00    +0.000 A 
ATOM     12  C   UNL     1      -0.802  13.508  20.811  0.00  0.00    +0.000 A 
ATOM     13  C   UNL     1      -1.475  14.642  21.283  0.00  0.00    +0.000 A 
ATOM     14  C   UNL     1      -1.464  15.828  20.546  0.00  0.00    +0.000 A 
ATOM     15  C   UNL     1      -0.784  15.900  19.328  0.00  0.00    +0.000 A 
ATOM     16  C   UNL     1      -0.108  14.787  18.834  0.00  0.00    +0.000 A 
ATOM     17  C   UNL     1      -0.114  13.597  19.567  0.00  0.00    +0.000 A 
ATOM     18  C   UNL     1       0.614  12.390  19.047  0.00  0.00    +0.000 A 
ATOM     19  O   UNL     1       1.219  12.401  17.963  0.00  0.00    +0.000 OA
ATOM     20  N   UNL     1       0.618  11.212  19.805  0.00  0.00    +0.000 N 
ATOM     21  C   UNL     1      -0.061  11.204  21.006  0.00  0.00    +0.000 A 
ENDROOT
BRANCH   1  22
ATOM     22  O   UNL     1       2.385   5.991  19.875  0.00  0.00    +0.000 OA
BRANCH  22  24
ATOM     23  C   UNL     1       1.081   3.978  20.678  0.00  0.00    +0.000 C 
ATOM     24  C   UNL     1       1.340   5.031  19.589  0.00  0.00    +0.000 C 
BRANCH  24  25
ATOM     25  C   UNL     1       1.823   4.291  18.355  0.00  0.00    +0.000 C 
ATOM     26  O   UNL     1       1.082   4.092  17.390  0.00  0.00    +0.000 OA
ATOM     27  N   UNL     1       3.124   3.797  18.409  0.00  0.00    +0.000 N 
ATOM     28  H   UNL     1       3.766   4.235  19.062  0.00  0.00    +0.000 HD
BRANCH  27  29
ATOM     29  C   UNL     1       3.572   3.152  17.196  0.00  0.00    +0.000 C 
BRANCH  29  30
ATOM     30  C   UNL     1       4.930   3.569  16.627  0.00  0.00    +0.000 C 
BRANCH  30  31
ATOM     31  N   UNL     1       4.921   4.818  15.830  0.00  0.00    +0.000 NA
ATOM     32  C   UNL     1       5.870   4.746  14.697  0.00  0.00    +0.000 C 
ATOM     33  C   UNL     1       7.333   4.877  15.148  0.00  0.00    +0.000 C 
ATOM     34  O   UNL     1       7.559   6.143  15.780  0.00  0.00    +0.000 OA
ATOM     35  C   UNL     1       6.695   6.330  16.912  0.00  0.00    +0.000 C 
ATOM     36  C   UNL     1       5.209   6.077  16.561  0.00  0.00    +0.000 C 
ENDBRANCH  30  31
ENDBRANCH  29  30
ENDBRANCH  27  29
ENDBRANCH  24  25
ENDBRANCH  22  24
ENDBRANCH   1  22
TORSDOF 6
ENDMDL
MODEL 4
REMARK VINA RESULT:      -8.3      0.880      1.212
REMARK  Name = 
REMARK  7 active torsions:
REMARK  status: ('A' for Active; 'I' for Inactive)
REMARK    1  A    between atoms: C_1  and  C_2
REMARK    2  A    between atoms: C_2  and  O_3
REMARK    3  A    between atoms: C_2  and  C_25
REMARK    4  A    between atoms: O_3  and  C_4
REMARK    5  A    between atoms: N_27  and  C_28
REMARK    6  A    between atoms: C_28  and  C_29
REMARK    7  A    between atoms: C_29  and  N_30
REMARK                            x       y       z     vdW  Elec       q    Type
REMARK                         _______ _______ _______ _____ _____    ______ ____
ROOT
ATOM      1  C   UNL     1       2.100   6.676  20.006  0.00  0.00    +0.000 A 
ATOM      2  C   UNL     1       2.477   7.354  18.848  0.00  0.00    +0.000 A 
ATOM      3  C   UNL     1       2.160   8.716  18.664  0.00  0.00    +0.000 A 
ATOM      4  C   UNL     1       1.400   9.354  19.664  0.00  0.00    +0.000 A 
ATOM      5  C   UNL     1       1.038   8.679  20.833  0.00  0.00    +0.000 A 
ATOM      6  C   UNL     1       1.467   7.370  21.018  0.00  0.00    +0.000 A 
ATOM      7  C   UNL     1       0.242   9.522  21.640  0.00  0.00    +0.000 A 
ATOM      8  C   UNL     1      -0.445   9.393  22.851  0.00  0.00    +0.000 A 
ATOM      9  C   UNL     1      -1.129  10.524  23.279  0.00  0.00    +0.000 A 
ATOM     10  N   UNL     1      -1.166  11.712  22.622  0.00  0.00    +0.000 NA
ATOM     11  C   UNL     1      -0.502  11.821  21.447  0.00  0.00    +0.000 A 
ATOM     12  C   UNL     1      -0.457  13.038  20.644  0.00  0.00    +0.000 A 
ATOM     13  C   UNL     1      -1.092  14.222  21.041  0.00  0.00    +0.000 A 
ATOM     14  C   UNL     1      -1.011  15.368  20.246  0.00  0.00    +0.000 A 
ATOM     15  C   UNL     1      -0.299  15.349  19.045  0.00  0.00    +0.000 A 
ATOM     16  C   UNL     1       0.341  14.185  18.625  0.00  0.00    +0.000 A 
ATOM     17  C   UNL     1       0.265  13.035  19.416  0.00  0.00    +0.000 A 
ATOM     18  C   UNL     1       0.953  11.774  18.976  0.00  0.00    +0.000 A 
ATOM     19  O   UNL     1       1.583  11.704  17.909  0.00  0.00    +0.000 OA
ATOM     20  N   UNL     1       0.887  10.637  19.791  0.00  0.00    +0.000 N 
ATOM     21  C   UNL     1       0.179  10.718  20.972  0.00  0.00    +0.000 A 
ENDROOT
BRANCH   1  22
ATOM     22  O   UNL     1       2.423   5.356  20.167  0.00  0.00    +0.000 OA
BRANCH  22  24
ATOM     23  C   UNL     1       0.792   3.439  20.411  0.00  0.00    +0.000 C 
ATOM     24  C   UNL     1       1.538   4.426  19.500  0.00  0.00    +0.000 C 
BRANCH  24  25
ATOM     25  C   UNL     1       2.446   3.608  18.600  0.00  0.00    +0.000 C 
ATOM     26  O   UNL     1       2.697   2.425  18.839  0.00  0.00    +0.000 OA
ATOM     27  N   UNL     1       3.026   4.291  17.534  0.00  0.00    +0.000 N 
ATOM     28  H   UNL     1       2.566   5.137  17.212  0.00  0.00    +0.000 HD
BRANCH  27  29
ATOM     29  C   UNL     1       3.835   3.469  16.663  0.00  0.00    +0.000 C 
BRANCH  29  30
ATOM     30  C   UNL     1       5.349   3.470  16.886  0.00  0.00    +0.000 C 
BRANCH  30  31
ATOM     31  N   UNL     1       6.135   4.207  15.868  0.00  0.00    +0.000 NA
ATOM     32  C   UNL     1       7.374   4.774  16.444  0.00  0.00    +0.000 C 
ATOM     33  C   UNL     1       7.102   6.000  17.328  0.00  0.00    +0.000 C 
ATOM     34  O   UNL     1       6.497   7.052  16.566  0.00  0.00    +0.000 OA
ATOM     35  C   UNL     1       5.269   6.624  15.958  0.00  0.00    +0.000 C 
ATOM     36  C   UNL     1       5.439   5.310  15.160  0.00  0.00    +0.000 C 
ENDBRANCH  30  31
ENDBRANCH  29  30
ENDBRANCH  27  29
ENDBRANCH  24  25
ENDBRANCH  22  24
ENDBRANCH   1  22
TORSDOF 6
ENDMDL
MODEL 5
REMARK VINA RESULT:      -8.2      1.069      1.492
REMARK  Name = 
REMARK  7 active torsions:
REMARK  status: ('A' for Active; 'I' for Inactive)
REMARK    1  A    between atoms: C_1  and  C_2
REMARK    2  A    between atoms: C_2  and  O_3
REMARK    3  A    between atoms: C_2  and  C_25
REMARK    4  A    between atoms: O_3  and  C_4
REMARK    5  A    between atoms: N_27  and  C_28
REMARK    6  A    between atoms: C_28  and  C_29
REMARK    7  A    between atoms: C_29  and  N_30
REMARK                            x       y       z     vdW  Elec       q    Type
REMARK                         _______ _______ _______ _____ _____    ______ ____
ROOT
ATOM      1  C   UNL     1       2.055   6.180  19.837  0.00  0.00    +0.000 A 
ATOM      2  C   UNL     1       2.499   6.839  18.692  0.00  0.00    +0.000 A 
ATOM      3  C   UNL     1       2.308   8.227  18.529  0.00  0.00    +0.000 A 
ATOM      4  C   UNL     1       1.604   8.915  19.535  0.00  0.00    +0.000 A 
ATOM      5  C   UNL     1       1.174   8.258  20.691  0.00  0.00    +0.000 A 
ATOM      6  C   UNL     1       1.481   6.912  20.857  0.00  0.00    +0.000 A 
ATOM      7  C   UNL     1       0.454   9.157  21.508  0.00  0.00    +0.000 A 
ATOM      8  C   UNL     1      -0.250   9.072  22.714  0.00  0.00    +0.000 A 
ATOM      9  C   UNL     1      -0.830  10.253  23.158  0.00  0.00    +0.000 A 
ATOM     10  N   UNL     1      -0.755  11.450  22.520  0.00  0.00    +0.000 NA
ATOM     11  C   UNL     1      -0.077  11.517  21.350  0.00  0.00    +0.000 A 
ATOM     12  C   UNL     1       0.084  12.737  20.567  0.00  0.00    +0.000 A 
ATOM     13  C   UNL     1      -0.443  13.967  20.980  0.00  0.00    +0.000 A 
ATOM     14  C   UNL     1      -0.253  15.114  20.205  0.00  0.00    +0.000 A 
ATOM     15  C   UNL     1       0.462  15.050  19.007  0.00  0.00    +0.000 A 
ATOM     16  C   UNL     1       0.995  13.838  18.571  0.00  0.00    +0.000 A 
ATOM     17  C   UNL     1       0.810  12.688  19.342  0.00  0.00    +0.000 A 
ATOM     18  C   UNL     1       1.383  11.377  18.885  0.00  0.00    +0.000 A 
ATOM     19  O   UNL     1       2.011  11.267  17.820  0.00  0.00    +0.000 OA
ATOM     20  N   UNL     1       1.209  10.237  19.682  0.00  0.00    +0.000 N 
ATOM     21  C   UNL     1       0.504  10.364  20.860  0.00  0.00    +0.000 A 
ENDROOT
BRANCH   1  22
ATOM     22  O   UNL     1       2.255   4.834  19.978  0.00  0.00    +0.000 OA
BRANCH  22  24
ATOM     23  C   UNL     1       1.008   2.856  19.015  0.00  0.00    +0.000 C 
ATOM     24  C   UNL     1       1.956   4.046  18.802  0.00  0.00    +0.000 C 
BRANCH  24  25
ATOM     25  C   UNL     1       3.295   3.480  18.365  0.00  0.00    +0.000 C 
ATOM     26  O   UNL     1       3.415   2.305  18.011  0.00  0.00    +0.000 OA
ATOM     27  N   UNL     1       4.382   4.346  18.454  0.00  0.00    +0.000 N 
ATOM     28  H   UNL     1       4.190   5.343  18.451  0.00  0.00    +0.000 HD
BRANCH  27  29
ATOM     29  C   UNL     1       5.629   3.795  17.973  0.00  0.00    +0.000 C 
BRANCH  29  30
ATOM     30  C   UNL     1       6.909   4.591  18.241  0.00  0.00    +0.000 C 
BRANCH  30  31
ATOM     31  N   UNL     1       7.469   5.295  17.064  0.00  0.00    +0.000 NA
ATOM     32  C   UNL     1       7.292   6.760  17.173  0.00  0.00    +0.000 C 
ATOM     33  C   UNL     1       5.841   7.196  16.921  0.00  0.00    +0.000 C 
ATOM     34  O   UNL     1       5.426   6.839  15.596  0.00  0.00    +0.000 OA
ATOM     35  C   UNL     1       5.544   5.427  15.368  0.00  0.00    +0.000 C 
ATOM     36  C   UNL     1       6.948   4.890  15.734  0.00  0.00    +0.000 C 
ENDBRANCH  30  31
ENDBRANCH  29  30
ENDBRANCH  27  29
ENDBRANCH  24  25
ENDBRANCH  22  24
ENDBRANCH   1  22
TORSDOF 6
ENDMDL
MODEL 6
REMARK VINA RESULT:      -8.2      1.596      3.551
REMARK  Name = 
REMARK  7 active torsions:
REMARK  status: ('A' for Active; 'I' for Inactive)
REMARK    1  A    between atoms: C_1  and  C_2
REMARK    2  A    between atoms: C_2  and  O_3
REMARK    3  A    between atoms: C_2  and  C_25
REMARK    4  A    between atoms: O_3  and  C_4
REMARK    5  A    between atoms: N_27  and  C_28
REMARK    6  A    between atoms: C_28  and  C_29
REMARK    7  A    between atoms: C_29  and  N_30
REMARK                            x       y       z     vdW  Elec       q    Type
REMARK                         _______ _______ _______ _____ _____    ______ ____
ROOT
ATOM      1  C   UNL     1       2.359   7.911  18.345  0.00  0.00    +0.000 A 
ATOM      2  C   UNL     1       2.317   9.003  17.481  0.00  0.00    +0.000 A 
ATOM      3  C   UNL     1       1.763  10.235  17.887  0.00  0.00    +0.000 A 
ATOM      4  C   UNL     1       1.202  10.308  19.177  0.00  0.00    +0.000 A 
ATOM      5  C   UNL     1       1.260   9.218  20.050  0.00  0.00    +0.000 A 
ATOM      6  C   UNL     1       1.913   8.060  19.643  0.00  0.00    +0.000 A 
ATOM      7  C   UNL     1       0.584   9.534  21.249  0.00  0.00    +0.000 A 
ATOM      8  C   UNL     1       0.261   8.853  22.427  0.00  0.00    +0.000 A 
ATOM      9  C   UNL     1      -0.449   9.584  23.371  0.00  0.00    +0.000 A 
ATOM     10  N   UNL     1      -0.832  10.879  23.231  0.00  0.00    +0.000 NA
ATOM     11  C   UNL     1      -0.520  11.525  22.082  0.00  0.00    +0.000 A 
ATOM     12  C   UNL     1      -0.867  12.915  21.805  0.00  0.00    +0.000 A 
ATOM     13  C   UNL     1      -1.547  13.716  22.731  0.00  0.00    +0.000 A 
ATOM     14  C   UNL     1      -1.848  15.046  22.429  0.00  0.00    +0.000 A 
ATOM     15  C   UNL     1      -1.477  15.595  21.199  0.00  0.00    +0.000 A 
ATOM     16  C   UNL     1      -0.801  14.820  20.258  0.00  0.00    +0.000 A 
ATOM     17  C   UNL     1      -0.497  13.489  20.555  0.00  0.00    +0.000 A 
ATOM     18  C   UNL     1       0.234  12.643  19.551  0.00  0.00    +0.000 A 
ATOM     19  O   UNL     1       0.570  13.082  18.440  0.00  0.00    +0.000 OA
ATOM     20  N   UNL     1       0.553  11.318  19.874  0.00  0.00    +0.000 N 
ATOM     21  C   UNL     1       0.172  10.834  21.108  0.00  0.00    +0.000 A 
ENDROOT
BRANCH   1  22
ATOM     22  O   UNL     1       2.906   6.727  17.932  0.00  0.00    +0.000 OA
BRANCH  22  24
ATOM     23  C   UNL     1       5.014   6.553  16.544  0.00  0.00    +0.000 C 
ATOM     24  C   UNL     1       4.353   6.693  17.924  0.00  0.00    +0.000 C 
BRANCH  24  25
ATOM     25  C   UNL     1       4.714   5.454  18.723  0.00  0.00    +0.000 C 
ATOM     26  O   UNL     1       5.592   5.476  19.588  0.00  0.00    +0.000 OA
ATOM     27  N   UNL     1       4.045   4.284  18.372  0.00  0.00    +0.000 N 
ATOM     28  H   UNL     1       3.154   4.378  17.894  0.00  0.00    +0.000 HD
BRANCH  27  29
ATOM     29  C   UNL     1       4.368   3.138  19.192  0.00  0.00    +0.000 C 
BRANCH  29  30
ATOM     30  C   UNL     1       3.435   1.928  19.124  0.00  0.00    +0.000 C 
BRANCH  30  31
ATOM     31  N   UNL     1       2.370   1.896  20.154  0.00  0.00    +0.000 NA
ATOM     32  C   UNL     1       1.050   2.236  19.580  0.00  0.00    +0.000 C 
ATOM     33  C   UNL     1       0.909   3.735  19.279  0.00  0.00    +0.000 C 
ATOM     34  O   UNL     1       1.036   4.509  20.478  0.00  0.00    +0.000 OA
ATOM     35  C   UNL     1       2.293   4.272  21.129  0.00  0.00    +0.000 C 
ATOM     36  C   UNL     1       2.566   2.763  21.342  0.00  0.00    +0.000 C 
ENDBRANCH  30  31
ENDBRANCH  29  30
ENDBRANCH  27  29
ENDBRANCH  24  25
ENDBRANCH  22  24
ENDBRANCH   1  22
TORSDOF 6
ENDMDL
MODEL 7
REMARK VINA RESULT:      -8.1      4.018      5.029
REMARK  Name = 
REMARK  7 active torsions:
REMARK  status: ('A' for Active; 'I' for Inactive)
REMARK    1  A    between atoms: C_1  and  C_2
REMARK    2  A    between atoms: C_2  and  O_3
REMARK    3  A    between atoms: C_2  and  C_25
REMARK    4  A    between atoms: O_3  and  C_4
REMARK    5  A    between atoms: N_27  and  C_28
REMARK    6  A    between atoms: C_28  and  C_29
REMARK    7  A    between atoms: C_29  and  N_30
REMARK                            x       y       z     vdW  Elec       q    Type
REMARK                         _______ _______ _______ _____ _____    ______ ____
ROOT
ATOM      1  C   UNL     1       0.681   9.628  19.000  0.00  0.00    +0.000 A 
ATOM      2  C   UNL     1       0.331  10.344  20.142  0.00  0.00    +0.000 A 
ATOM      3  C   UNL     1      -0.910  11.007  20.236  0.00  0.00    +0.000 A 
ATOM      4  C   UNL     1      -1.761  10.969  19.114  0.00  0.00    +0.000 A 
ATOM      5  C   UNL     1      -1.417  10.236  17.975  0.00  0.00    +0.000 A 
ATOM      6  C   UNL     1      -0.232   9.509  17.971  0.00  0.00    +0.000 A 
ATOM      7  C   UNL     1      -2.409  10.406  16.984  0.00  0.00    +0.000 A 
ATOM      8  C   UNL     1      -2.586   9.991  15.660  0.00  0.00    +0.000 A 
ATOM      9  C   UNL     1      -3.755  10.417  15.046  0.00  0.00    +0.000 A 
ATOM     10  N   UNL     1      -4.713  11.182  15.630  0.00  0.00    +0.000 NA
ATOM     11  C   UNL     1      -4.527  11.583  16.910  0.00  0.00    +0.000 A 
ATOM     12  C   UNL     1      -5.477  12.401  17.657  0.00  0.00    +0.000 A 
ATOM     13  C   UNL     1      -6.691  12.830  17.107  0.00  0.00    +0.000 A 
ATOM     14  C   UNL     1      -7.577  13.602  17.862  0.00  0.00    +0.000 A 
ATOM     15  C   UNL     1      -7.263  13.958  19.176  0.00  0.00    +0.000 A 
ATOM     16  C   UNL     1      -6.061  13.548  19.748  0.00  0.00    +0.000 A 
ATOM     17  C   UNL     1      -5.171  12.774  18.997  0.00  0.00    +0.000 A 
ATOM     18  C   UNL     1      -3.873  12.322  19.603  0.00  0.00    +0.000 A 
ATOM     19  O   UNL     1      -3.543  12.628  20.760  0.00  0.00    +0.000 OA
ATOM     20  N   UNL     1      -3.003  11.527  18.846  0.00  0.00    +0.000 N 
ATOM     21  C   UNL     1      -3.371  11.197  17.558  0.00  0.00    +0.000 A 
ENDROOT
BRANCH   1  22
ATOM     22  O   UNL     1       1.888   8.987  18.932  0.00  0.00    +0.000 OA
BRANCH  22  24
ATOM     23  C   UNL     1       2.051   6.985  20.469  0.00  0.00    +0.000 C 
ATOM     24  C   UNL     1       1.822   7.546  19.057  0.00  0.00    +0.000 C 
BRANCH  24  25
ATOM     25  C   UNL     1       2.949   7.031  18.181  0.00  0.00    +0.000 C 
ATOM     26  O   UNL     1       3.767   7.796  17.665  0.00  0.00    +0.000 OA
ATOM     27  N   UNL     1       2.961   5.659  17.944  0.00  0.00    +0.000 N 
ATOM     28  H   UNL     1       2.479   5.063  18.611  0.00  0.00    +0.000 HD
BRANCH  27  29
ATOM     29  C   UNL     1       4.081   5.194  17.157  0.00  0.00    +0.000 C 
BRANCH  29  30
ATOM     30  C   UNL     1       5.321   4.701  17.906  0.00  0.00    +0.000 C 
BRANCH  30  31
ATOM     31  N   UNL     1       6.608   4.931  17.210  0.00  0.00    +0.000 NA
ATOM     32  C   UNL     1       7.761   4.680  18.103  0.00  0.00    +0.000 C 
ATOM     33  C   UNL     1       7.956   5.799  19.137  0.00  0.00    +0.000 C 
ATOM     34  O   UNL     1       8.217   7.051  18.488  0.00  0.00    +0.000 OA
ATOM     35  C   UNL     1       7.156   7.412  17.593  0.00  0.00    +0.000 C 
ATOM     36  C   UNL     1       6.809   6.272  16.606  0.00  0.00    +0.000 C 
ENDBRANCH  30  31
ENDBRANCH  29  30
ENDBRANCH  27  29
ENDBRANCH  24  25
ENDBRANCH  22  24
ENDBRANCH   1  22
TORSDOF 6
ENDMDL
MODEL 8
REMARK VINA RESULT:      -8.0      1.014      1.392
REMARK  Name = 
REMARK  7 active torsions:
REMARK  status: ('A' for Active; 'I' for Inactive)
REMARK    1  A    between atoms: C_1  and  C_2
REMARK    2  A    between atoms: C_2  and  O_3
REMARK    3  A    between atoms: C_2  and  C_25
REMARK    4  A    between atoms: O_3  and  C_4
REMARK    5  A    between atoms: N_27  and  C_28
REMARK    6  A    between atoms: C_28  and  C_29
REMARK    7  A    between atoms: C_29  and  N_30
REMARK                            x       y       z     vdW  Elec       q    Type
REMARK                         _______ _______ _______ _____ _____    ______ ____
ROOT
ATOM      1  C   UNL     1       1.667   6.468  20.427  0.00  0.00    +0.000 A 
ATOM      2  C   UNL     1       2.229   7.014  19.274  0.00  0.00    +0.000 A 
ATOM      3  C   UNL     1       2.128   8.393  18.997  0.00  0.00    +0.000 A 
ATOM      4  C   UNL     1       1.391   9.191  19.893  0.00  0.00    +0.000 A 
ATOM      5  C   UNL     1       0.842   8.646  21.057  0.00  0.00    +0.000 A 
ATOM      6  C   UNL     1       1.062   7.303  21.343  0.00  0.00    +0.000 A 
ATOM      7  C   UNL     1       0.115   9.639  21.749  0.00  0.00    +0.000 A 
ATOM      8  C   UNL     1      -0.679   9.682  22.900  0.00  0.00    +0.000 A 
ATOM      9  C   UNL     1      -1.224  10.921  23.211  0.00  0.00    +0.000 A 
ATOM     10  N   UNL     1      -1.036  12.060  22.496  0.00  0.00    +0.000 NA
ATOM     11  C   UNL     1      -0.271  12.004  21.379  0.00  0.00    +0.000 A 
ATOM     12  C   UNL     1       0.013  13.151  20.525  0.00  0.00    +0.000 A 
ATOM     13  C   UNL     1      -0.473  14.434  20.806  0.00  0.00    +0.000 A 
ATOM     14  C   UNL     1      -0.165  15.507  19.966  0.00  0.00    +0.000 A 
ATOM     15  C   UNL     1       0.632  15.316  18.835  0.00  0.00    +0.000 A 
ATOM     16  C   UNL     1       1.128  14.050  18.530  0.00  0.00    +0.000 A 
ATOM     17  C   UNL     1       0.823  12.972  19.366  0.00  0.00    +0.000 A 
ATOM     18  C   UNL     1       1.355  11.603  19.051  0.00  0.00    +0.000 A 
ATOM     19  O   UNL     1       2.052  11.381  18.049  0.00  0.00    +0.000 OA
ATOM     20  N   UNL     1       1.060  10.538  19.913  0.00  0.00    +0.000 N 
ATOM     21  C   UNL     1       0.279  10.789  21.021  0.00  0.00    +0.000 A 
ENDROOT
BRANCH   1  22
ATOM     22  O   UNL     1       1.782   5.128  20.680  0.00  0.00    +0.000 OA
BRANCH  22  24
ATOM     23  C   UNL     1       0.924   2.888  19.875  0.00  0.00    +0.000 C 
ATOM     24  C   UNL     1       1.517   4.267  19.546  0.00  0.00    +0.000 C 
BRANCH  24  25
ATOM     25  C   UNL     1       2.876   4.033  18.914  0.00  0.00    +0.000 C 
ATOM     26  O   UNL     1       3.876   3.803  19.598  0.00  0.00    +0.000 OA
ATOM     27  N   UNL     1       2.936   4.161  17.529  0.00  0.00    +0.000 N 
ATOM     28  H   UNL     1       2.071   4.047  17.009  0.00  0.00    +0.000 HD
BRANCH  27  29
ATOM     29  C   UNL     1       4.231   3.872  16.954  0.00  0.00    +0.000 C 
BRANCH  29  30
ATOM     30  C   UNL     1       5.035   5.043  16.386  0.00  0.00    +0.000 C 
BRANCH  30  31
ATOM     31  N   UNL     1       6.506   4.919  16.520  0.00  0.00    +0.000 NA
ATOM     32  C   UNL     1       6.888   4.418  17.859  0.00  0.00    +0.000 C 
ATOM     33  C   UNL     1       6.735   5.487  18.951  0.00  0.00    +0.000 C 
ATOM     34  O   UNL     1       7.586   6.610  18.686  0.00  0.00    +0.000 OA
ATOM     35  C   UNL     1       7.303   7.195  17.406  0.00  0.00    +0.000 C 
ATOM     36  C   UNL     1       7.303   6.145  16.270  0.00  0.00    +0.000 C 
ENDBRANCH  30  31
ENDBRANCH  29  30
ENDBRANCH  27  29
ENDBRANCH  24  25
ENDBRANCH  22  24
ENDBRANCH   1  22
TORSDOF 6
ENDMDL
MODEL 9
REMARK VINA RESULT:      -7.8      2.158      3.041
REMARK  Name = 
REMARK  7 active torsions:
REMARK  status: ('A' for Active; 'I' for Inactive)
REMARK    1  A    between atoms: C_1  and  C_2
REMARK    2  A    between atoms: C_2  and  O_3
REMARK    3  A    between atoms: C_2  and  C_25
REMARK    4  A    between atoms: O_3  and  C_4
REMARK    5  A    between atoms: N_27  and  C_28
REMARK    6  A    between atoms: C_28  and  C_29
REMARK    7  A    between atoms: C_29  and  N_30
REMARK                            x       y       z     vdW  Elec       q    Type
REMARK                         _______ _______ _______ _____ _____    ______ ____
ROOT
ATOM      1  C   UNL     1       1.697   7.720  20.324  0.00  0.00    +0.000 A 
ATOM      2  C   UNL     1       1.755   8.122  21.657  0.00  0.00    +0.000 A 
ATOM      3  C   UNL     1       0.948   9.173  22.138  0.00  0.00    +0.000 A 
ATOM      4  C   UNL     1       0.122   9.842  21.214  0.00  0.00    +0.000 A 
ATOM      5  C   UNL     1       0.050   9.428  19.881  0.00  0.00    +0.000 A 
ATOM      6  C   UNL     1       0.783   8.316  19.479  0.00  0.00    +0.000 A 
ATOM      7  C   UNL     1      -0.803  10.292  19.161  0.00  0.00    +0.000 A 
ATOM      8  C   UNL     1      -1.205  10.422  17.827  0.00  0.00    +0.000 A 
ATOM      9  C   UNL     1      -2.085  11.462  17.561  0.00  0.00    +0.000 A 
ATOM     10  N   UNL     1      -2.572  12.331  18.485  0.00  0.00    +0.000 NA
ATOM     11  C   UNL     1      -2.170  12.198  19.771  0.00  0.00    +0.000 A 
ATOM     12  C   UNL     1      -2.619  13.059  20.861  0.00  0.00    +0.000 A 
ATOM     13  C   UNL     1      -3.535  14.099  20.665  0.00  0.00    +0.000 A 
ATOM     14  C   UNL     1      -3.947  14.891  21.740  0.00  0.00    +0.000 A 
ATOM     15  C   UNL     1      -3.450  14.657  23.024  0.00  0.00    +0.000 A 
ATOM     16  C   UNL     1      -2.535  13.630  23.247  0.00  0.00    +0.000 A 
ATOM     17  C   UNL     1      -2.120  12.834  22.176  0.00  0.00    +0.000 A 
ATOM     18  C   UNL     1      -1.137  11.721  22.404  0.00  0.00    +0.000 A 
ATOM     19  O   UNL     1      -0.655  11.486  23.523  0.00  0.00    +0.000 OA
ATOM     20  N   UNL     1      -0.748  10.917  21.324  0.00  0.00    +0.000 N 
ATOM     21  C   UNL     1      -1.282  11.188  20.081  0.00  0.00    +0.000 A 
ENDROOT
BRANCH   1  22
ATOM     22  O   UNL     1       2.485   6.693  19.880  0.00  0.00    +0.000 OA
BRANCH  22  24
ATOM     23  C   UNL     1       2.476   4.505  21.148  0.00  0.00    +0.000 C 
ATOM     24  C   UNL     1       1.904   5.374  20.018  0.00  0.00    +0.000 C 
BRANCH  24  25
ATOM     25  C   UNL     1       2.220   4.674  18.709  0.00  0.00    +0.000 C 
ATOM     26  O   UNL     1       1.521   4.834  17.706  0.00  0.00    +0.000 OA
ATOM     27  N   UNL     1       3.300   3.795  18.731  0.00  0.00    +0.000 N 
ATOM     28  H   UNL     1       4.000   3.929  19.455  0.00  0.00    +0.000 HD
BRANCH  27  29
ATOM     29  C   UNL     1       3.611   3.193  17.454  0.00  0.00    +0.000 C 
BRANCH  29  30
ATOM     30  C   UNL     1       4.906   3.621  16.762  0.00  0.00    +0.000 C 
BRANCH  30  31
ATOM     31  N   UNL     1       4.901   4.998  16.214  0.00  0.00    +0.000 NA
ATOM     32  C   UNL     1       5.533   5.053  14.877  0.00  0.00    +0.000 C 
ATOM     33  C   UNL     1       7.063   4.934  14.946  0.00  0.00    +0.000 C 
ATOM     34  O   UNL     1       7.624   6.017  15.699  0.00  0.00    +0.000 OA
ATOM     35  C   UNL     1       7.092   6.065  17.031  0.00  0.00    +0.000 C 
ATOM     36  C   UNL     1       5.544   6.048  17.043  0.00  0.00    +0.000 C 
ENDBRANCH  30  31
ENDBRANCH  29  30
ENDBRANCH  27  29
ENDBRANCH  24  25
ENDBRANCH  22  24
ENDBRANCH   1  22
TORSDOF 6
ENDMDL
