MODEL 1
REMARK VINA RESULT:      -9.0      0.000      0.000
REMARK  Name = 
REMARK  5 active torsions:
REMARK  status: ('A' for Active; 'I' for Inactive)
REMARK    1  A    between atoms: C_2  and  O_3
REMARK    2  A    between atoms: C_2  and  C_4
REMARK    3  A    between atoms: C_9  and  N_10
REMARK    4  A    between atoms: N_10  and  C_11
REMARK    5  A    between atoms: C_15  and  C_16
REMARK                            x       y       z     vdW  Elec       q    Type
REMARK                         _______ _______ _______ _____ _____    ______ ____
ROOT
ATOM      1  C   UNL     1       5.110   4.983  18.250  0.00  0.00    +0.000 A 
ATOM      2  C   UNL     1       6.466   5.289  18.008  0.00  0.00    +0.000 A 
ATOM      3 CL   UNL     1       7.531   5.698  19.314  0.00  0.00    +0.000 Cl
ATOM      4  C   UNL     1       7.010   5.261  16.715  0.00  0.00    +0.000 A 
ATOM      5  C   UNL     1       6.217   4.913  15.618  0.00  0.00    +0.000 A 
ATOM      6  C   UNL     1       4.875   4.600  15.841  0.00  0.00    +0.000 A 
ATOM      7  C   UNL     1       4.335   4.598  17.134  0.00  0.00    +0.000 A 
ATOM      8 CL   UNL     1       2.715   3.992  17.254  0.00  0.00    +0.000 Cl
ENDROOT
BRANCH   5   9
ATOM      9  C   UNL     1       6.790   4.788  14.281  0.00  0.00    +0.000 A 
ATOM     10  C   UNL     1       6.472   3.954  13.225  0.00  0.00    +0.000 A 
ATOM     11  C   UNL     1       7.305   4.358  12.165  0.00  0.00    +0.000 A 
ATOM     12  N   UNL     1       8.119   5.354  12.515  0.00  0.00    +0.000 NA
ATOM     13  N   UNL     1       7.796   5.591  13.795  0.00  0.00    +0.000 N 
ATOM     14  H   UNL     1       8.296   6.325  14.283  0.00  0.00    +0.000 HD
ENDBRANCH   5   9
BRANCH   1  15
ATOM     15  N   UNL     1       4.654   4.872  19.606  0.00  0.00    +0.000 N 
ATOM     16  H   UNL     1       5.434   4.458  20.130  0.00  0.00    +0.000 HD
BRANCH  15  22
ATOM     17  C   UNL     1       3.267   2.918  20.251  0.00  0.00    +0.000 A 
ATOM     18  C   UNL     1       2.003   2.379  20.535  0.00  0.00    +0.000 A 
ATOM     19  C   UNL     1       0.896   3.215  20.671  0.00  0.00    +0.000 A 
ATOM     20  C   UNL     1       1.055   4.593  20.570  0.00  0.00    +0.000 A 
ATOM     21  C   UNL     1       2.310   5.133  20.281  0.00  0.00    +0.000 A 
ATOM     22  C   UNL     1       3.416   4.303  20.027  0.00  0.00    +0.000 A 
BRANCH  17  24
ATOM     23  O   UNL     1       5.221   1.793  21.018  0.00  0.00    +0.000 OA
ATOM     24  C   UNL     1       4.392   1.960  20.141  0.00  0.00    +0.000 C 
BRANCH  24  25
ATOM     25  O   UNL     1       4.422   1.307  18.955  0.00  0.00    +0.000 OA
ATOM     26  H   UNL     1       5.213   1.511  18.411  0.00  0.00    +0.000 HD
ENDBRANCH  24  25
ENDBRANCH  17  24
ENDBRANCH  15  22
ENDBRANCH   1  15
TORSDOF 5
ENDMDL
MODEL 2
REMARK VINA RESULT:      -8.9      1.494      2.727
REMARK  Name = 
REMARK  5 active torsions:
REMARK  status: ('A' for Active; 'I' for Inactive)
REMARK    1  A    between atoms: C_2  and  O_3
REMARK    2  A    between atoms: C_2  and  C_4
REMARK    3  A    between atoms: C_9  and  N_10
REMARK    4  A    between atoms: N_10  and  C_11
REMARK    5  A    between atoms: C_15  and  C_16
REMARK                            x       y       z     vdW  Elec       q    Type
REMARK                         _______ _______ _______ _____ _____    ______ ____
ROOT
ATOM      1  C   UNL     1       4.938   4.068  18.223  0.00  0.00    +0.000 A 
ATOM      2  C   UNL     1       4.308   3.646  17.032  0.00  0.00    +0.000 A 
ATOM      3 CL   UNL     1       2.716   2.960  17.063  0.00  0.00    +0.000 Cl
ATOM      4  C   UNL     1       4.931   3.778  15.782  0.00  0.00    +0.000 A 
ATOM      5  C   UNL     1       6.203   4.347  15.678  0.00  0.00    +0.000 A 
ATOM      6  C   UNL     1       6.837   4.776  16.846  0.00  0.00    +0.000 A 
ATOM      7  C   UNL     1       6.207   4.674  18.093  0.00  0.00    +0.000 A 
ATOM      8 CL   UNL     1       7.045   5.435  19.406  0.00  0.00    +0.000 Cl
ENDROOT
BRANCH   5   9
ATOM      9  C   UNL     1       6.825   4.577  14.377  0.00  0.00    +0.000 A 
ATOM     10  C   UNL     1       6.574   4.025  13.134  0.00  0.00    +0.000 A 
ATOM     11  C   UNL     1       7.425   4.705  12.244  0.00  0.00    +0.000 A 
ATOM     12  N   UNL     1       8.188   5.605  12.865  0.00  0.00    +0.000 NA
ATOM     13  N   UNL     1       7.815   5.505  14.149  0.00  0.00    +0.000 N 
ATOM     14  H   UNL     1       8.270   6.108  14.825  0.00  0.00    +0.000 HD
ENDBRANCH   5   9
BRANCH   1  15
ATOM     15  N   UNL     1       4.188   4.056  19.447  0.00  0.00    +0.000 N 
ATOM     16  H   UNL     1       3.779   3.117  19.516  0.00  0.00    +0.000 HD
BRANCH  15  22
ATOM     17  C   UNL     1       2.173   4.735  20.725  0.00  0.00    +0.000 A 
ATOM     18  C   UNL     1       1.187   5.696  20.999  0.00  0.00    +0.000 A 
ATOM     19  C   UNL     1       1.292   6.982  20.473  0.00  0.00    +0.000 A 
ATOM     20  C   UNL     1       2.404   7.327  19.712  0.00  0.00    +0.000 A 
ATOM     21  C   UNL     1       3.384   6.373  19.431  0.00  0.00    +0.000 A 
ATOM     22  C   UNL     1       3.241   5.040  19.856  0.00  0.00    +0.000 A 
BRANCH  17  24
ATOM     23  O   UNL     1       2.856   2.835  21.988  0.00  0.00    +0.000 OA
ATOM     24  C   UNL     1       1.993   3.399  21.339  0.00  0.00    +0.000 C 
BRANCH  24  25
ATOM     25  O   UNL     1       0.779   2.854  21.084  0.00  0.00    +0.000 OA
ATOM     26  H   UNL     1       0.207   3.413  20.515  0.00  0.00    +0.000 HD
ENDBRANCH  24  25
ENDBRANCH  17  24
ENDBRANCH  15  22
ENDBRANCH   1  15
TORSDOF 5
ENDMDL
MODEL 3
REMARK VINA RESULT:      -8.8      0.198      1.916
REMARK  Name = 
REMARK  5 active torsions:
REMARK  status: ('A' for Active; 'I' for Inactive)
REMARK    1  A    between atoms: C_2  and  O_3
REMARK    2  A    between atoms: C_2  and  C_4
REMARK    3  A    between atoms: C_9  and  N_10
REMARK    4  A    between atoms: N_10  and  C_11
REMARK    5  A    between atoms: C_15  and  C_16
REMARK                            x       y       z     vdW  Elec       q    Type
REMARK                         _______ _______ _______ _____ _____    ______ ____
ROOT
ATOM      1  C   UNL     1       5.292   4.681  18.303  0.00  0.00    +0.000 A 
ATOM      2  C   UNL     1       4.466   4.408  17.191  0.00  0.00    +0.000 A 
ATOM      3 CL   UNL     1       2.767   4.127  17.395  0.00  0.00    +0.000 Cl
ATOM      4  C   UNL     1       4.975   4.367  15.885  0.00  0.00    +0.000 A 
ATOM      5  C   UNL     1       6.330   4.611  15.642  0.00  0.00    +0.000 A 
ATOM      6  C   UNL     1       7.160   4.890  16.731  0.00  0.00    +0.000 A 
ATOM      7  C   UNL     1       6.650   4.961  18.034  0.00  0.00    +0.000 A 
ATOM      8 CL   UNL     1       7.771   5.514  19.234  0.00  0.00    +0.000 Cl
ENDROOT
BRANCH   5   9
ATOM      9  C   UNL     1       6.857   4.666  14.282  0.00  0.00    +0.000 A 
ATOM     10  C   UNL     1       6.497   3.984  13.135  0.00  0.00    +0.000 A 
ATOM     11  C   UNL     1       7.297   4.525  12.111  0.00  0.00    +0.000 A 
ATOM     12  N   UNL     1       8.131   5.461  12.565  0.00  0.00    +0.000 NA
ATOM     13  N   UNL     1       7.853   5.523  13.876  0.00  0.00    +0.000 N 
ATOM     14  H   UNL     1       8.376   6.182  14.441  0.00  0.00    +0.000 HD
ENDBRANCH   5   9
BRANCH   1  15
ATOM     15  N   UNL     1       4.685   4.868  19.590  0.00  0.00    +0.000 N 
ATOM     16  H   UNL     1       5.424   4.680  20.277  0.00  0.00    +0.000 HD
BRANCH  15  22
ATOM     17  C   UNL     1       3.307   2.919  20.265  0.00  0.00    +0.000 A 
ATOM     18  C   UNL     1       2.045   2.379  20.560  0.00  0.00    +0.000 A 
ATOM     19  C   UNL     1       0.935   3.213  20.685  0.00  0.00    +0.000 A 
ATOM     20  C   UNL     1       1.089   4.590  20.565  0.00  0.00    +0.000 A 
ATOM     21  C   UNL     1       2.342   5.131  20.266  0.00  0.00    +0.000 A 
ATOM     22  C   UNL     1       3.451   4.301  20.022  0.00  0.00    +0.000 A 
BRANCH  17  24
ATOM     23  O   UNL     1       5.253   1.796  21.055  0.00  0.00    +0.000 OA
ATOM     24  C   UNL     1       4.435   1.964  20.168  0.00  0.00    +0.000 C 
BRANCH  24  25
ATOM     25  O   UNL     1       4.482   1.313  18.981  0.00  0.00    +0.000 OA
ATOM     26  H   UNL     1       4.313   0.349  19.052  0.00  0.00    +0.000 HD
ENDBRANCH  24  25
ENDBRANCH  17  24
ENDBRANCH  15  22
ENDBRANCH   1  15
TORSDOF 5
ENDMDL
MODEL 4
REMARK VINA RESULT:      -8.5      1.805      2.364
REMARK  Name = 
REMARK  5 active torsions:
REMARK  status: ('A' for Active; 'I' for Inactive)
REMARK    1  A    between atoms: C_2  and  O_3
REMARK    2  A    between atoms: C_2  and  C_4
REMARK    3  A    between atoms: C_9  and  N_10
REMARK    4  A    between atoms: N_10  and  C_11
REMARK    5  A    between atoms: C_15  and  C_16
REMARK                            x       y       z     vdW  Elec       q    Type
REMARK                         _______ _______ _______ _____ _____    ______ ____
ROOT
ATOM      1  C   UNL     1       5.165   4.685  18.156  0.00  0.00    +0.000 A 
ATOM      2  C   UNL     1       6.456   5.198  17.908  0.00  0.00    +0.000 A 
ATOM      3 CL   UNL     1       7.453   5.764  19.209  0.00  0.00    +0.000 Cl
ATOM      4  C   UNL     1       6.990   5.256  16.612  0.00  0.00    +0.000 A 
ATOM      5  C   UNL     1       6.255   4.792  15.518  0.00  0.00    +0.000 A 
ATOM      6  C   UNL     1       4.979   4.275  15.748  0.00  0.00    +0.000 A 
ATOM      7  C   UNL     1       4.452   4.187  17.043  0.00  0.00    +0.000 A 
ATOM      8 CL   UNL     1       2.946   3.338  17.170  0.00  0.00    +0.000 Cl
ENDROOT
BRANCH   5   9
ATOM      9  C   UNL     1       6.833   4.759  14.178  0.00  0.00    +0.000 A 
ATOM     10  C   UNL     1       6.511   4.008  13.062  0.00  0.00    +0.000 A 
ATOM     11  C   UNL     1       7.354   4.480  12.039  0.00  0.00    +0.000 A 
ATOM     12  N   UNL     1       8.177   5.438  12.464  0.00  0.00    +0.000 NA
ATOM     13  N   UNL     1       7.850   5.584  13.757  0.00  0.00    +0.000 N 
ATOM     14  H   UNL     1       8.356   6.275  14.300  0.00  0.00    +0.000 HD
ENDBRANCH   5   9
BRANCH   1  15
ATOM     15  N   UNL     1       4.739   4.503  19.515  0.00  0.00    +0.000 N 
ATOM     16  H   UNL     1       5.469   3.937  19.963  0.00  0.00    +0.000 HD
BRANCH  15  22
ATOM     17  C   UNL     1       2.351   4.953  20.012  0.00  0.00    +0.000 A 
ATOM     18  C   UNL     1       1.130   4.521  20.555  0.00  0.00    +0.000 A 
ATOM     19  C   UNL     1       0.968   3.195  20.955  0.00  0.00    +0.000 A 
ATOM     20  C   UNL     1       2.006   2.287  20.771  0.00  0.00    +0.000 A 
ATOM     21  C   UNL     1       3.224   2.715  20.237  0.00  0.00    +0.000 A 
ATOM     22  C   UNL     1       3.448   4.069  19.934  0.00  0.00    +0.000 A 
BRANCH  17  24
ATOM     23  O   UNL     1       2.637   6.727  18.449  0.00  0.00    +0.000 OA
ATOM     24  C   UNL     1       2.431   6.372  19.596  0.00  0.00    +0.000 C 
BRANCH  24  25
ATOM     25  O   UNL     1       2.279   7.239  20.626  0.00  0.00    +0.000 OA
ATOM     26  H   UNL     1       2.780   8.076  20.515  0.00  0.00    +0.000 HD
ENDBRANCH  24  25
ENDBRANCH  17  24
ENDBRANCH  15  22
ENDBRANCH   1  15
TORSDOF 5
ENDMDL
MODEL 5
REMARK VINA RESULT:      -8.5      3.046      7.087
REMARK  Name = 
REMARK  5 active torsions:
REMARK  status: ('A' for Active; 'I' for Inactive)
REMARK    1  A    between atoms: C_2  and  O_3
REMARK    2  A    between atoms: C_2  and  C_4
REMARK    3  A    between atoms: C_9  and  N_10
REMARK    4  A    between atoms: N_10  and  C_11
REMARK    5  A    between atoms: C_15  and  C_16
REMARK                            x       y       z     vdW  Elec       q    Type
REMARK                         _______ _______ _______ _____ _____    ______ ____
ROOT
ATOM      1  C   UNL     1       2.921   5.395  18.535  0.00  0.00    +0.000 A 
ATOM      2  C   UNL     1       2.955   6.789  18.314  0.00  0.00    +0.000 A 
ATOM      3 CL   UNL     1       3.674   7.443  16.878  0.00  0.00    +0.000 Cl
ATOM      4  C   UNL     1       2.401   7.695  19.230  0.00  0.00    +0.000 A 
ATOM      5  C   UNL     1       1.780   7.238  20.396  0.00  0.00    +0.000 A 
ATOM      6  C   UNL     1       1.731   5.862  20.626  0.00  0.00    +0.000 A 
ATOM      7  C   UNL     1       2.257   4.951  19.700  0.00  0.00    +0.000 A 
ATOM      8 CL   UNL     1       1.933   3.283  20.043  0.00  0.00    +0.000 Cl
ENDROOT
BRANCH   5   9
ATOM      9  C   UNL     1       1.116   8.162  21.311  0.00  0.00    +0.000 A 
ATOM     10  C   UNL     1      -0.219   8.476  21.483  0.00  0.00    +0.000 A 
ATOM     11  C   UNL     1      -0.257   9.360  22.577  0.00  0.00    +0.000 A 
ATOM     12  N   UNL     1       0.959   9.623  23.056  0.00  0.00    +0.000 NA
ATOM     13  N   UNL     1       1.771   8.896  22.273  0.00  0.00    +0.000 N 
ATOM     14  H   UNL     1       2.767   8.938  22.454  0.00  0.00    +0.000 HD
ENDBRANCH   5   9
BRANCH   1  15
ATOM     15  N   UNL     1       3.358   4.515  17.489  0.00  0.00    +0.000 N 
ATOM     16  H   UNL     1       3.130   3.566  17.809  0.00  0.00    +0.000 HD
BRANCH  15  22
ATOM     17  C   UNL     1       5.836   4.491  17.609  0.00  0.00    +0.000 A 
ATOM     18  C   UNL     1       7.075   4.645  16.967  0.00  0.00    +0.000 A 
ATOM     19  C   UNL     1       7.138   4.768  15.580  0.00  0.00    +0.000 A 
ATOM     20  C   UNL     1       5.972   4.691  14.826  0.00  0.00    +0.000 A 
ATOM     21  C   UNL     1       4.736   4.545  15.461  0.00  0.00    +0.000 A 
ATOM     22  C   UNL     1       4.639   4.533  16.863  0.00  0.00    +0.000 A 
BRANCH  17  24
ATOM     23  O   UNL     1       6.301   5.200  19.834  0.00  0.00    +0.000 OA
ATOM     24  C   UNL     1       5.861   4.348  19.083  0.00  0.00    +0.000 C 
BRANCH  24  25
ATOM     25  O   UNL     1       5.368   3.162  19.512  0.00  0.00    +0.000 OA
ATOM     26  H   UNL     1       4.392   3.087  19.432  0.00  0.00    +0.000 HD
ENDBRANCH  24  25
ENDBRANCH  17  24
ENDBRANCH  15  22
ENDBRANCH   1  15
TORSDOF 5
ENDMDL
MODEL 6
REMARK VINA RESULT:      -8.4      1.901      3.099
REMARK  Name = 
REMARK  5 active torsions:
REMARK  status: ('A' for Active; 'I' for Inactive)
REMARK    1  A    between atoms: C_2  and  O_3
REMARK    2  A    between atoms: C_2  and  C_4
REMARK    3  A    between atoms: C_9  and  N_10
REMARK    4  A    between atoms: N_10  and  C_11
REMARK    5  A    between atoms: C_15  and  C_16
REMARK                            x       y       z     vdW  Elec       q    Type
REMARK                         _______ _______ _______ _____ _____    ______ ____
ROOT
ATOM      1  C   UNL     1       5.288   4.766  18.204  0.00  0.00    +0.000 A 
ATOM      2  C   UNL     1       4.462   4.479  17.095  0.00  0.00    +0.000 A 
ATOM      3 CL   UNL     1       2.760   4.220  17.299  0.00  0.00    +0.000 Cl
ATOM      4  C   UNL     1       4.975   4.408  15.792  0.00  0.00    +0.000 A 
ATOM      5  C   UNL     1       6.333   4.634  15.548  0.00  0.00    +0.000 A 
ATOM      6  C   UNL     1       7.162   4.926  16.633  0.00  0.00    +0.000 A 
ATOM      7  C   UNL     1       6.649   5.027  17.933  0.00  0.00    +0.000 A 
ATOM      8 CL   UNL     1       7.773   5.593  19.126  0.00  0.00    +0.000 Cl
ENDROOT
BRANCH   5   9
ATOM      9  C   UNL     1       6.864   4.657  14.189  0.00  0.00    +0.000 A 
ATOM     10  C   UNL     1       6.537   3.916  13.068  0.00  0.00    +0.000 A 
ATOM     11  C   UNL     1       7.320   4.449  12.027  0.00  0.00    +0.000 A 
ATOM     12  N   UNL     1       8.113   5.435  12.446  0.00  0.00    +0.000 NA
ATOM     13  N   UNL     1       7.826   5.537  13.752  0.00  0.00    +0.000 N 
ATOM     14  H   UNL     1       8.319   6.239  14.293  0.00  0.00    +0.000 HD
ENDBRANCH   5   9
BRANCH   1  15
ATOM     15  N   UNL     1       4.680   4.984  19.486  0.00  0.00    +0.000 N 
ATOM     16  H   UNL     1       5.431   4.866  20.175  0.00  0.00    +0.000 HD
BRANCH  15  22
ATOM     17  C   UNL     1       2.316   5.132  20.222  0.00  0.00    +0.000 A 
ATOM     18  C   UNL     1       1.195   4.521  20.806  0.00  0.00    +0.000 A 
ATOM     19  C   UNL     1       1.192   3.150  21.059  0.00  0.00    +0.000 A 
ATOM     20  C   UNL     1       2.287   2.378  20.687  0.00  0.00    +0.000 A 
ATOM     21  C   UNL     1       3.407   2.983  20.112  0.00  0.00    +0.000 A 
ATOM     22  C   UNL     1       3.477   4.378  19.953  0.00  0.00    +0.000 A 
BRANCH  17  24
ATOM     23  O   UNL     1       2.628   7.122  18.952  0.00  0.00    +0.000 OA
ATOM     24  C   UNL     1       2.227   6.589  19.972  0.00  0.00    +0.000 C 
BRANCH  24  25
ATOM     25  O   UNL     1       1.678   7.275  21.002  0.00  0.00    +0.000 OA
ATOM     26  H   UNL     1       1.255   8.120  20.734  0.00  0.00    +0.000 HD
ENDBRANCH  24  25
ENDBRANCH  17  24
ENDBRANCH  15  22
ENDBRANCH   1  15
TORSDOF 5
ENDMDL
MODEL 7
REMARK VINA RESULT:      -8.3      2.982      7.103
REMARK  Name = 
REMARK  5 active torsions:
REMARK  status: ('A' for Active; 'I' for Inactive)
REMARK    1  A    between atoms: C_2  and  O_3
REMARK    2  A    between atoms: C_2  and  C_4
REMARK    3  A    between atoms: C_9  and  N_10
REMARK    4  A    between atoms: N_10  and  C_11
REMARK    5  A    between atoms: C_15  and  C_16
REMARK                            x       y       z     vdW  Elec       q    Type
REMARK                         _______ _______ _______ _____ _____    ______ ____
ROOT
ATOM      1  C   UNL     1       2.773   5.232  18.374  0.00  0.00    +0.000 A 
ATOM      2  C   UNL     1       2.067   4.815  19.523  0.00  0.00    +0.000 A 
ATOM      3 CL   UNL     1       1.860   3.130  19.876  0.00  0.00    +0.000 Cl
ATOM      4  C   UNL     1       1.519   5.737  20.427  0.00  0.00    +0.000 A 
ATOM      5  C   UNL     1       1.670   7.111  20.221  0.00  0.00    +0.000 A 
ATOM      6  C   UNL     1       2.373   7.540  19.094  0.00  0.00    +0.000 A 
ATOM      7  C   UNL     1       2.947   6.623  18.203  0.00  0.00    +0.000 A 
ATOM      8 CL   UNL     1       3.951   7.320  16.974  0.00  0.00    +0.000 Cl
ENDROOT
BRANCH   5   9
ATOM      9  C   UNL     1       1.189   8.080  21.202  0.00  0.00    +0.000 A 
ATOM     10  C   UNL     1      -0.088   8.504  21.516  0.00  0.00    +0.000 A 
ATOM     11  C   UNL     1       0.066   9.379  22.607  0.00  0.00    +0.000 A 
ATOM     12  N   UNL     1       1.345   9.534  22.953  0.00  0.00    +0.000 NA
ATOM     13  N   UNL     1       2.003   8.748  22.087  0.00  0.00    +0.000 N 
ATOM     14  H   UNL     1       3.013   8.703  22.160  0.00  0.00    +0.000 HD
ENDBRANCH   5   9
BRANCH   1  15
ATOM     15  N   UNL     1       3.445   4.246  17.576  0.00  0.00    +0.000 N 
ATOM     16  H   UNL     1       3.412   3.376  18.119  0.00  0.00    +0.000 HD
BRANCH  15  22
ATOM     17  C   UNL     1       5.913   4.460  17.716  0.00  0.00    +0.000 A 
ATOM     18  C   UNL     1       7.136   4.743  17.088  0.00  0.00    +0.000 A 
ATOM     19  C   UNL     1       7.197   4.896  15.704  0.00  0.00    +0.000 A 
ATOM     20  C   UNL     1       6.049   4.719  14.939  0.00  0.00    +0.000 A 
ATOM     21  C   UNL     1       4.829   4.443  15.560  0.00  0.00    +0.000 A 
ATOM     22  C   UNL     1       4.722   4.399  16.962  0.00  0.00    +0.000 A 
BRANCH  17  24
ATOM     23  O   UNL     1       5.366   3.397  19.776  0.00  0.00    +0.000 OA
ATOM     24  C   UNL     1       5.941   4.296  19.188  0.00  0.00    +0.000 C 
BRANCH  24  25
ATOM     25  O   UNL     1       6.650   5.262  19.819  0.00  0.00    +0.000 OA
ATOM     26  H   UNL     1       6.096   5.993  20.170  0.00  0.00    +0.000 HD
ENDBRANCH  24  25
ENDBRANCH  17  24
ENDBRANCH  15  22
ENDBRANCH   1  15
TORSDOF 5
ENDMDL
MODEL 8
REMARK VINA RESULT:      -8.1      1.523      2.695
REMARK  Name = 
REMARK  5 active torsions:
REMARK  status: ('A' for Active; 'I' for Inactive)
REMARK    1  A    between atoms: C_2  and  O_3
REMARK    2  A    between atoms: C_2  and  C_4
REMARK    3  A    between atoms: C_9  and  N_10
REMARK    4  A    between atoms: N_10  and  C_11
REMARK    5  A    between atoms: C_15  and  C_16
REMARK                            x       y       z     vdW  Elec       q    Type
REMARK                         _______ _______ _______ _____ _____    ______ ____
ROOT
ATOM      1  C   UNL     1       5.331   4.084  18.148  0.00  0.00    +0.000 A 
ATOM      2  C   UNL     1       4.532   3.553  17.112  0.00  0.00    +0.000 A 
ATOM      3 CL   UNL     1       2.975   2.870  17.452  0.00  0.00    +0.000 Cl
ATOM      4  C   UNL     1       4.953   3.568  15.774  0.00  0.00    +0.000 A 
ATOM      5  C   UNL     1       6.185   4.127  15.422  0.00  0.00    +0.000 A 
ATOM      6  C   UNL     1       6.983   4.665  16.434  0.00  0.00    +0.000 A 
ATOM      7  C   UNL     1       6.554   4.678  17.768  0.00  0.00    +0.000 A 
ATOM      8 CL   UNL     1       7.573   5.559  18.859  0.00  0.00    +0.000 Cl
ENDROOT
BRANCH   5   9
ATOM      9  C   UNL     1       6.595   4.236  14.025  0.00  0.00    +0.000 A 
ATOM     10  C   UNL     1       7.456   5.112  13.391  0.00  0.00    +0.000 A 
ATOM     11  C   UNL     1       7.526   4.667  12.058  0.00  0.00    +0.000 A 
ATOM     12  N   UNL     1       6.749   3.607  11.838  0.00  0.00    +0.000 NA
ATOM     13  N   UNL     1       6.192   3.370  13.035  0.00  0.00    +0.000 N 
ATOM     14  H   UNL     1       5.548   2.591  13.113  0.00  0.00    +0.000 HD
ENDBRANCH   5   9
BRANCH   1  15
ATOM     15  N   UNL     1       4.778   4.186  19.469  0.00  0.00    +0.000 N 
ATOM     16  H   UNL     1       4.686   3.221  19.808  0.00  0.00    +0.000 HD
BRANCH  15  22
ATOM     17  C   UNL     1       2.614   4.427  20.658  0.00  0.00    +0.000 A 
ATOM     18  C   UNL     1       1.443   5.165  20.892  0.00  0.00    +0.000 A 
ATOM     19  C   UNL     1       1.309   6.453  20.377  0.00  0.00    +0.000 A 
ATOM     20  C   UNL     1       2.360   7.027  19.669  0.00  0.00    +0.000 A 
ATOM     21  C   UNL     1       3.524   6.293  19.429  0.00  0.00    +0.000 A 
ATOM     22  C   UNL     1       3.635   4.953  19.839  0.00  0.00    +0.000 A 
BRANCH  17  24
ATOM     23  O   UNL     1       3.594   2.293  21.053  0.00  0.00    +0.000 OA
ATOM     24  C   UNL     1       2.681   3.073  21.256  0.00  0.00    +0.000 C 
BRANCH  24  25
ATOM     25  O   UNL     1       1.611   2.780  22.033  0.00  0.00    +0.000 OA
ATOM     26  H   UNL     1       0.828   3.346  21.857  0.00  0.00    +0.000 HD
ENDBRANCH  24  25
ENDBRANCH  17  24
ENDBRANCH  15  22
ENDBRANCH   1  15
TORSDOF 5
ENDMDL
MODEL 9
REMARK VINA RESULT:      -8.1      1.343      1.716
REMARK  Name = 
REMARK  5 active torsions:
REMARK  status: ('A' for Active; 'I' for Inactive)
REMARK    1  A    between atoms: C_2  and  O_3
REMARK    2  A    between atoms: C_2  and  C_4
REMARK    3  A    between atoms: C_9  and  N_10
REMARK    4  A    between atoms: N_10  and  C_11
REMARK    5  A    between atoms: C_15  and  C_16
REMARK                            x       y       z     vdW  Elec       q    Type
REMARK                         _______ _______ _______ _____ _____    ______ ____
ROOT
ATOM      1  C   UNL     1       5.235   4.647  17.761  0.00  0.00    +0.000 A 
ATOM      2  C   UNL     1       6.541   5.010  17.367  0.00  0.00    +0.000 A 
ATOM      3 CL   UNL     1       7.690   5.592  18.528  0.00  0.00    +0.000 Cl
ATOM      4  C   UNL     1       6.967   4.902  16.035  0.00  0.00    +0.000 A 
ATOM      5  C   UNL     1       6.103   4.414  15.049  0.00  0.00    +0.000 A 
ATOM      6  C   UNL     1       4.810   4.044  15.424  0.00  0.00    +0.000 A 
ATOM      7  C   UNL     1       4.390   4.122  16.759  0.00  0.00    +0.000 A 
ATOM      8 CL   UNL     1       2.831   3.436  17.081  0.00  0.00    +0.000 Cl
ENDROOT
BRANCH   5   9
ATOM      9  C   UNL     1       6.560   4.207  13.679  0.00  0.00    +0.000 A 
ATOM     10  C   UNL     1       7.401   4.953  12.873  0.00  0.00    +0.000 A 
ATOM     11  C   UNL     1       7.544   4.206  11.689  0.00  0.00    +0.000 A 
ATOM     12  N   UNL     1       6.830   3.080  11.714  0.00  0.00    +0.000 NA
ATOM     13  N   UNL     1       6.240   3.106  12.918  0.00  0.00    +0.000 N 
ATOM     14  H   UNL     1       5.633   2.333  13.166  0.00  0.00    +0.000 HD
ENDBRANCH   5   9
BRANCH   1  15
ATOM     15  N   UNL     1       4.911   4.627  19.159  0.00  0.00    +0.000 N 
ATOM     16  H   UNL     1       5.139   3.681  19.486  0.00  0.00    +0.000 HD
BRANCH  15  22
ATOM     17  C   UNL     1       2.866   4.213  20.500  0.00  0.00    +0.000 A 
ATOM     18  C   UNL     1       1.607   4.647  20.943  0.00  0.00    +0.000 A 
ATOM     19  C   UNL     1       1.186   5.953  20.697  0.00  0.00    +0.000 A 
ATOM     20  C   UNL     1       2.038   6.842  20.052  0.00  0.00    +0.000 A 
ATOM     21  C   UNL     1       3.290   6.413  19.604  0.00  0.00    +0.000 A 
ATOM     22  C   UNL     1       3.687   5.071  19.739  0.00  0.00    +0.000 A 
BRANCH  17  24
ATOM     23  O   UNL     1       3.889   2.105  20.072  0.00  0.00    +0.000 OA
ATOM     24  C   UNL     1       3.241   2.816  20.820  0.00  0.00    +0.000 C 
BRANCH  24  25
ATOM     25  O   UNL     1       2.768   2.398  22.018  0.00  0.00    +0.000 OA
ATOM     26  H   UNL     1       2.922   1.444  22.193  0.00  0.00    +0.000 HD
ENDBRANCH  24  25
ENDBRANCH  17  24
ENDBRANCH  15  22
ENDBRANCH   1  15
TORSDOF 5
ENDMDL
