MODEL 1
REMARK VINA RESULT:      -7.8      0.000      0.000
REMARK  Name = 
REMARK  8 active torsions:
REMARK  status: ('A' for Active; 'I' for Inactive)
REMARK    1  A    between atoms: C_2  and  C_3
REMARK    2  A    between atoms: C_2  and  C_7
REMARK    3  A    between atoms: C_3  and  C_4
REMARK    4  A    between atoms: C_4  and  C_5
REMARK    5  A    between atoms: C_5  and  C_6
REMARK    6  A    between atoms: C_7  and  N_8
REMARK    7  A    between atoms: C_7  and  C_17
REMARK    8  A    between atoms: C_9  and  C_11
REMARK                            x       y       z     vdW  Elec       q    Type
REMARK                         _______ _______ _______ _____ _____    ______ ____
ROOT
ATOM      1  C   UNL     1       3.590   5.832  17.612  0.00  0.00    +0.000 C 
ENDROOT
BRANCH   1   2
ATOM      2  C   UNL     1       5.080   5.944  17.933  0.00  0.00    +0.000 A 
ATOM      3  C   UNL     1       5.905   6.709  17.088  0.00  0.00    +0.000 A 
ATOM      4  C   UNL     1       7.251   6.927  17.396  0.00  0.00    +0.000 A 
ATOM      5  C   UNL     1       7.799   6.380  18.555  0.00  0.00    +0.000 A 
ATOM      6  C   UNL     1       7.003   5.614  19.398  0.00  0.00    +0.000 A 
ATOM      7  C   UNL     1       5.653   5.403  19.097  0.00  0.00    +0.000 A 
ENDBRANCH   1   2
BRANCH   1   8
ATOM      8  N   UNL     1       2.857   6.649  18.562  0.00  0.00    +0.000 N 
ATOM      9  C   UNL     1       2.431   7.930  18.296  0.00  0.00    +0.000 C 
ATOM     10  O   UNL     1       2.642   8.524  17.249  0.00  0.00    +0.000 OA
ATOM     11  H   UNL     1       2.636   6.221  19.444  0.00  0.00    +0.000 HD
BRANCH   9  12
ATOM     12  C   UNL     1       1.612   8.557  19.371  0.00  0.00    +0.000 A 
ATOM     13  C   UNL     1       1.551   8.021  20.666  0.00  0.00    +0.000 A 
ATOM     14  C   UNL     1       0.692   8.579  21.614  0.00  0.00    +0.000 A 
ATOM     15  C   UNL     1      -0.096   9.679  21.281  0.00  0.00    +0.000 A 
ATOM     16  C   UNL     1      -0.007  10.244  20.007  0.00  0.00    +0.000 A 
ATOM     17  C   UNL     1       0.852   9.689  19.055  0.00  0.00    +0.000 A 
ENDBRANCH   9  12
ENDBRANCH   1   8
BRANCH   1  19
ATOM     18  C   UNL     1       3.713   3.278  17.417  0.00  0.00    +0.000 C 
ATOM     19  C   UNL     1       3.009   4.409  17.636  0.00  0.00    +0.000 C 
BRANCH  19  20
ATOM     20  C   UNL     1       1.527   4.302  17.964  0.00  0.00    +0.000 C 
BRANCH  20  21
ATOM     21  C   UNL     1       1.185   3.390  19.156  0.00  0.00    +0.000 C 
BRANCH  21  22
ATOM     22  C   UNL     1       1.327   4.079  20.513  0.00  0.00    +0.000 C 
ATOM     23  C   UNL     1       2.155   3.238  21.476  0.00  0.00    +0.000 C 
ENDBRANCH  21  22
ENDBRANCH  20  21
ENDBRANCH  19  20
ENDBRANCH   1  19
TORSDOF 7
ENDMDL
MODEL 2
REMARK VINA RESULT:      -7.8      0.428      1.146
REMARK  Name = 
REMARK  8 active torsions:
REMARK  status: ('A' for Active; 'I' for Inactive)
REMARK    1  A    between atoms: C_2  and  C_3
REMARK    2  A    between atoms: C_2  and  C_7
REMARK    3  A    between atoms: C_3  and  C_4
REMARK    4  A    between atoms: C_4  and  C_5
REMARK    5  A    between atoms: C_5  and  C_6
REMARK    6  A    between atoms: C_7  and  N_8
REMARK    7  A    between atoms: C_7  and  C_17
REMARK    8  A    between atoms: C_9  and  C_11
REMARK                            x       y       z     vdW  Elec       q    Type
REMARK                         _______ _______ _______ _____ _____    ______ ____
ROOT
ATOM      1  C   UNL     1       3.612   5.857  17.529  0.00  0.00    +0.000 C 
ENDROOT
BRANCH   1   2
ATOM      2  C   UNL     1       5.092   5.962  17.897  0.00  0.00    +0.000 A 
ATOM      3  C   UNL     1       5.934   6.774  17.116  0.00  0.00    +0.000 A 
ATOM      4  C   UNL     1       7.269   6.985  17.472  0.00  0.00    +0.000 A 
ATOM      5  C   UNL     1       7.789   6.384  18.616  0.00  0.00    +0.000 A 
ATOM      6  C   UNL     1       6.976   5.570  19.397  0.00  0.00    +0.000 A 
ATOM      7  C   UNL     1       5.637   5.367  19.048  0.00  0.00    +0.000 A 
ENDBRANCH   1   2
BRANCH   1   8
ATOM      8  N   UNL     1       2.851   6.658  18.471  0.00  0.00    +0.000 N 
ATOM      9  C   UNL     1       2.450   7.950  18.222  0.00  0.00    +0.000 C 
ATOM     10  O   UNL     1       2.710   8.569  17.202  0.00  0.00    +0.000 OA
ATOM     11  H   UNL     1       2.590   6.209  19.332  0.00  0.00    +0.000 HD
BRANCH   9  12
ATOM     12  C   UNL     1       1.596   8.558  19.281  0.00  0.00    +0.000 A 
ATOM     13  C   UNL     1       0.795   9.683  19.034  0.00  0.00    +0.000 A 
ATOM     14  C   UNL     1       0.090  10.283  20.079  0.00  0.00    +0.000 A 
ATOM     15  C   UNL     1       0.168   9.755  21.367  0.00  0.00    +0.000 A 
ATOM     16  C   UNL     1       0.927   8.609  21.610  0.00  0.00    +0.000 A 
ATOM     17  C   UNL     1       1.634   8.006  20.567  0.00  0.00    +0.000 A 
ENDBRANCH   9  12
ENDBRANCH   1   8
BRANCH   1  19
ATOM     18  C   UNL     1       3.714   3.319  17.175  0.00  0.00    +0.000 C 
ATOM     19  C   UNL     1       3.031   4.434  17.509  0.00  0.00    +0.000 C 
BRANCH  19  20
ATOM     20  C   UNL     1       1.575   4.306  17.934  0.00  0.00    +0.000 C 
BRANCH  20  21
ATOM     21  C   UNL     1       1.181   2.937  18.515  0.00  0.00    +0.000 C 
BRANCH  21  22
ATOM     22  C   UNL     1       1.041   2.935  20.038  0.00  0.00    +0.000 C 
ATOM     23  C   UNL     1       1.155   4.344  20.605  0.00  0.00    +0.000 C 
ENDBRANCH  21  22
ENDBRANCH  20  21
ENDBRANCH  19  20
ENDBRANCH   1  19
TORSDOF 7
ENDMDL
MODEL 3
REMARK VINA RESULT:      -7.7      3.038      6.254
REMARK  Name = 
REMARK  8 active torsions:
REMARK  status: ('A' for Active; 'I' for Inactive)
REMARK    1  A    between atoms: C_2  and  C_3
REMARK    2  A    between atoms: C_2  and  C_7
REMARK    3  A    between atoms: C_3  and  C_4
REMARK    4  A    between atoms: C_4  and  C_5
REMARK    5  A    between atoms: C_5  and  C_6
REMARK    6  A    between atoms: C_7  and  N_8
REMARK    7  A    between atoms: C_7  and  C_17
REMARK    8  A    between atoms: C_9  and  C_11
REMARK                            x       y       z     vdW  Elec       q    Type
REMARK                         _______ _______ _______ _____ _____    ______ ____
ROOT
ATOM      1  C   UNL     1       4.706   4.522  18.190  0.00  0.00    +0.000 C 
ENDROOT
BRANCH   1   2
ATOM      2  C   UNL     1       3.873   5.768  18.488  0.00  0.00    +0.000 A 
ATOM      3  C   UNL     1       3.794   6.785  17.519  0.00  0.00    +0.000 A 
ATOM      4  C   UNL     1       2.963   7.895  17.700  0.00  0.00    +0.000 A 
ATOM      5  C   UNL     1       2.198   8.010  18.858  0.00  0.00    +0.000 A 
ATOM      6  C   UNL     1       2.269   7.021  19.833  0.00  0.00    +0.000 A 
ATOM      7  C   UNL     1       3.091   5.906  19.648  0.00  0.00    +0.000 A 
ENDBRANCH   1   2
BRANCH   1   8
ATOM      8  N   UNL     1       5.054   4.535  16.780  0.00  0.00    +0.000 N 
ATOM      9  C   UNL     1       6.348   4.504  16.315  0.00  0.00    +0.000 C 
ATOM     10  O   UNL     1       7.339   4.489  17.030  0.00  0.00    +0.000 OA
ATOM     11  H   UNL     1       4.288   4.535  16.130  0.00  0.00    +0.000 HD
BRANCH   9  12
ATOM     12  C   UNL     1       6.482   4.425  14.833  0.00  0.00    +0.000 A 
ATOM     13  C   UNL     1       5.625   3.636  14.052  0.00  0.00    +0.000 A 
ATOM     14  C   UNL     1       5.849   3.510  12.679  0.00  0.00    +0.000 A 
ATOM     15  C   UNL     1       6.916   4.179  12.081  0.00  0.00    +0.000 A 
ATOM     16  C   UNL     1       7.745   5.001  12.847  0.00  0.00    +0.000 A 
ATOM     17  C   UNL     1       7.524   5.131  14.220  0.00  0.00    +0.000 A 
ENDBRANCH   9  12
ENDBRANCH   1   8
BRANCH   1  19
ATOM     18  C   UNL     1       4.452   2.312  19.467  0.00  0.00    +0.000 C 
ATOM     19  C   UNL     1       4.035   3.179  18.520  0.00  0.00    +0.000 C 
BRANCH  19  20
ATOM     20  C   UNL     1       2.788   2.845  17.714  0.00  0.00    +0.000 C 
BRANCH  20  21
ATOM     21  C   UNL     1       1.657   2.169  18.509  0.00  0.00    +0.000 C 
BRANCH  21  22
ATOM     22  C   UNL     1       0.837   3.143  19.356  0.00  0.00    +0.000 C 
ATOM     23  C   UNL     1       1.128   2.967  20.840  0.00  0.00    +0.000 C 
ENDBRANCH  21  22
ENDBRANCH  20  21
ENDBRANCH  19  20
ENDBRANCH   1  19
TORSDOF 7
ENDMDL
MODEL 4
REMARK VINA RESULT:      -7.7      0.433      1.539
REMARK  Name = 
REMARK  8 active torsions:
REMARK  status: ('A' for Active; 'I' for Inactive)
REMARK    1  A    between atoms: C_2  and  C_3
REMARK    2  A    between atoms: C_2  and  C_7
REMARK    3  A    between atoms: C_3  and  C_4
REMARK    4  A    between atoms: C_4  and  C_5
REMARK    5  A    between atoms: C_5  and  C_6
REMARK    6  A    between atoms: C_7  and  N_8
REMARK    7  A    between atoms: C_7  and  C_17
REMARK    8  A    between atoms: C_9  and  C_11
REMARK                            x       y       z     vdW  Elec       q    Type
REMARK                         _______ _______ _______ _____ _____    ______ ____
ROOT
ATOM      1  C   UNL     1       3.618   6.044  17.563  0.00  0.00    +0.000 C 
ENDROOT
BRANCH   1   2
ATOM      2  C   UNL     1       5.093   6.176  17.943  0.00  0.00    +0.000 A 
ATOM      3  C   UNL     1       5.569   5.492  19.077  0.00  0.00    +0.000 A 
ATOM      4  C   UNL     1       6.927   5.497  19.408  0.00  0.00    +0.000 A 
ATOM      5  C   UNL     1       7.836   6.190  18.611  0.00  0.00    +0.000 A 
ATOM      6  C   UNL     1       7.384   6.879  17.491  0.00  0.00    +0.000 A 
ATOM      7  C   UNL     1       6.028   6.867  17.154  0.00  0.00    +0.000 A 
ENDBRANCH   1   2
BRANCH   1   8
ATOM      8  N   UNL     1       2.833   6.806  18.517  0.00  0.00    +0.000 N 
ATOM      9  C   UNL     1       2.366   8.077  18.275  0.00  0.00    +0.000 C 
ATOM     10  O   UNL     1       2.580   8.709  17.252  0.00  0.00    +0.000 OA
ATOM     11  H   UNL     1       2.607   6.344  19.380  0.00  0.00    +0.000 HD
BRANCH   9  12
ATOM     12  C   UNL     1       1.498   8.642  19.347  0.00  0.00    +0.000 A 
ATOM     13  C   UNL     1       0.685   9.764  19.129  0.00  0.00    +0.000 A 
ATOM     14  C   UNL     1      -0.034  10.323  20.188  0.00  0.00    +0.000 A 
ATOM     15  C   UNL     1       0.043   9.757  21.459  0.00  0.00    +0.000 A 
ATOM     16  C   UNL     1       0.815   8.613  21.672  0.00  0.00    +0.000 A 
ATOM     17  C   UNL     1       1.536   8.051  20.615  0.00  0.00    +0.000 A 
ENDBRANCH   9  12
ENDBRANCH   1   8
BRANCH   1  19
ATOM     18  C   UNL     1       3.774   3.522  17.122  0.00  0.00    +0.000 C 
ATOM     19  C   UNL     1       3.072   4.608  17.509  0.00  0.00    +0.000 C 
BRANCH  19  20
ATOM     20  C   UNL     1       1.630   4.430  17.963  0.00  0.00    +0.000 C 
BRANCH  20  21
ATOM     21  C   UNL     1       1.272   3.021  18.467  0.00  0.00    +0.000 C 
BRANCH  21  22
ATOM     22  C   UNL     1       0.995   2.961  19.970  0.00  0.00    +0.000 C 
ATOM     23  C   UNL     1       1.249   4.308  20.633  0.00  0.00    +0.000 C 
ENDBRANCH  21  22
ENDBRANCH  20  21
ENDBRANCH  19  20
ENDBRANCH   1  19
TORSDOF 7
ENDMDL
MODEL 5
REMARK VINA RESULT:      -7.7      0.363      1.088
REMARK  Name = 
REMARK  8 active torsions:
REMARK  status: ('A' for Active; 'I' for Inactive)
REMARK    1  A    between atoms: C_2  and  C_3
REMARK    2  A    between atoms: C_2  and  C_7
REMARK    3  A    between atoms: C_3  and  C_4
REMARK    4  A    between atoms: C_4  and  C_5
REMARK    5  A    between atoms: C_5  and  C_6
REMARK    6  A    between atoms: C_7  and  N_8
REMARK    7  A    between atoms: C_7  and  C_17
REMARK    8  A    between atoms: C_9  and  C_11
REMARK                            x       y       z     vdW  Elec       q    Type
REMARK                         _______ _______ _______ _____ _____    ______ ____
ROOT
ATOM      1  C   UNL     1       3.448   5.969  17.626  0.00  0.00    +0.000 C 
ENDROOT
BRANCH   1   2
ATOM      2  C   UNL     1       4.938   6.101  17.942  0.00  0.00    +0.000 A 
ATOM      3  C   UNL     1       5.452   5.469  19.090  0.00  0.00    +0.000 A 
ATOM      4  C   UNL     1       6.822   5.472  19.366  0.00  0.00    +0.000 A 
ATOM      5  C   UNL     1       7.706   6.112  18.500  0.00  0.00    +0.000 A 
ATOM      6  C   UNL     1       7.218   6.750  17.365  0.00  0.00    +0.000 A 
ATOM      7  C   UNL     1       5.849   6.739  17.082  0.00  0.00    +0.000 A 
ENDBRANCH   1   2
BRANCH   1   8
ATOM      8  N   UNL     1       2.710   6.782  18.576  0.00  0.00    +0.000 N 
ATOM      9  C   UNL     1       2.317   8.077  18.327  0.00  0.00    +0.000 C 
ATOM     10  O   UNL     1       2.567   8.688  17.299  0.00  0.00    +0.000 OA
ATOM     11  H   UNL     1       2.458   6.340  19.443  0.00  0.00    +0.000 HD
BRANCH   9  12
ATOM     12  C   UNL     1       1.485   8.698  19.395  0.00  0.00    +0.000 A 
ATOM     13  C   UNL     1       1.442   8.181  20.698  0.00  0.00    +0.000 A 
ATOM     14  C   UNL     1       0.571   8.731  21.640  0.00  0.00    +0.000 A 
ATOM     15  C   UNL     1      -0.247   9.805  21.292  0.00  0.00    +0.000 A 
ATOM     16  C   UNL     1      -0.177  10.352  20.010  0.00  0.00    +0.000 A 
ATOM     17  C   UNL     1       0.694   9.805  19.064  0.00  0.00    +0.000 A 
ENDBRANCH   9  12
ENDBRANCH   1   8
BRANCH   1  19
ATOM     18  C   UNL     1       3.513   3.445  17.179  0.00  0.00    +0.000 C 
ATOM     19  C   UNL     1       2.886   4.539  17.659  0.00  0.00    +0.000 C 
BRANCH  19  20
ATOM     20  C   UNL     1       1.524   4.377  18.319  0.00  0.00    +0.000 C 
BRANCH  20  21
ATOM     21  C   UNL     1       1.360   3.112  19.180  0.00  0.00    +0.000 C 
BRANCH  21  22
ATOM     22  C   UNL     1       1.155   3.406  20.666  0.00  0.00    +0.000 C 
ATOM     23  C   UNL     1       2.217   4.362  21.193  0.00  0.00    +0.000 C 
ENDBRANCH  21  22
ENDBRANCH  20  21
ENDBRANCH  19  20
ENDBRANCH   1  19
TORSDOF 7
ENDMDL
MODEL 6
REMARK VINA RESULT:      -7.7      3.045      6.298
REMARK  Name = 
REMARK  8 active torsions:
REMARK  status: ('A' for Active; 'I' for Inactive)
REMARK    1  A    between atoms: C_2  and  C_3
REMARK    2  A    between atoms: C_2  and  C_7
REMARK    3  A    between atoms: C_3  and  C_4
REMARK    4  A    between atoms: C_4  and  C_5
REMARK    5  A    between atoms: C_5  and  C_6
REMARK    6  A    between atoms: C_7  and  N_8
REMARK    7  A    between atoms: C_7  and  C_17
REMARK    8  A    between atoms: C_9  and  C_11
REMARK                            x       y       z     vdW  Elec       q    Type
REMARK                         _______ _______ _______ _____ _____    ______ ____
ROOT
ATOM      1  C   UNL     1       4.892   4.608  18.174  0.00  0.00    +0.000 C 
ENDROOT
BRANCH   1   2
ATOM      2  C   UNL     1       4.019   5.842  18.402  0.00  0.00    +0.000 A 
ATOM      3  C   UNL     1       3.981   6.843  17.414  0.00  0.00    +0.000 A 
ATOM      4  C   UNL     1       3.122   7.940  17.527  0.00  0.00    +0.000 A 
ATOM      5  C   UNL     1       2.285   8.058  18.635  0.00  0.00    +0.000 A 
ATOM      6  C   UNL     1       2.314   7.084  19.627  0.00  0.00    +0.000 A 
ATOM      7  C   UNL     1       3.166   5.982  19.510  0.00  0.00    +0.000 A 
ENDBRANCH   1   2
BRANCH   1   8
ATOM      8  N   UNL     1       5.267   4.569  16.772  0.00  0.00    +0.000 N 
ATOM      9  C   UNL     1       6.568   4.640  16.331  0.00  0.00    +0.000 C 
ATOM     10  O   UNL     1       7.539   4.767  17.061  0.00  0.00    +0.000 OA
ATOM     11  H   UNL     1       4.519   4.454  16.111  0.00  0.00    +0.000 HD
BRANCH   9  12
ATOM     12  C   UNL     1       6.741   4.484  14.859  0.00  0.00    +0.000 A 
ATOM     13  C   UNL     1       7.712   5.204  14.146  0.00  0.00    +0.000 A 
ATOM     14  C   UNL     1       7.772   5.106  12.754  0.00  0.00    +0.000 A 
ATOM     15  C   UNL     1       6.879   4.281  12.073  0.00  0.00    +0.000 A 
ATOM     16  C   UNL     1       5.940   3.529  12.781  0.00  0.00    +0.000 A 
ATOM     17  C   UNL     1       5.876   3.624  14.173  0.00  0.00    +0.000 A 
ENDBRANCH   9  12
ENDBRANCH   1   8
BRANCH   1  19
ATOM     18  C   UNL     1       4.567   2.524  19.635  0.00  0.00    +0.000 C 
ATOM     19  C   UNL     1       4.250   3.262  18.550  0.00  0.00    +0.000 C 
BRANCH  19  20
ATOM     20  C   UNL     1       3.155   2.766  17.616  0.00  0.00    +0.000 C 
BRANCH  20  21
ATOM     21  C   UNL     1       1.958   2.093  18.312  0.00  0.00    +0.000 C 
BRANCH  21  22
ATOM     22  C   UNL     1       0.897   3.082  18.797  0.00  0.00    +0.000 C 
ATOM     23  C   UNL     1       0.907   3.202  20.315  0.00  0.00    +0.000 C 
ENDBRANCH  21  22
ENDBRANCH  20  21
ENDBRANCH  19  20
ENDBRANCH   1  19
TORSDOF 7
ENDMDL
MODEL 7
REMARK VINA RESULT:      -7.5      0.928      1.629
REMARK  Name = 
REMARK  8 active torsions:
REMARK  status: ('A' for Active; 'I' for Inactive)
REMARK    1  A    between atoms: C_2  and  C_3
REMARK    2  A    between atoms: C_2  and  C_7
REMARK    3  A    between atoms: C_3  and  C_4
REMARK    4  A    between atoms: C_4  and  C_5
REMARK    5  A    between atoms: C_5  and  C_6
REMARK    6  A    between atoms: C_7  and  N_8
REMARK    7  A    between atoms: C_7  and  C_17
REMARK    8  A    between atoms: C_9  and  C_11
REMARK                            x       y       z     vdW  Elec       q    Type
REMARK                         _______ _______ _______ _____ _____    ______ ____
ROOT
ATOM      1  C   UNL     1       3.469   5.004  17.541  0.00  0.00    +0.000 C 
ENDROOT
BRANCH   1   2
ATOM      2  C   UNL     1       4.979   5.085  17.769  0.00  0.00    +0.000 A 
ATOM      3  C   UNL     1       5.461   5.361  19.061  0.00  0.00    +0.000 A 
ATOM      4  C   UNL     1       6.830   5.343  19.342  0.00  0.00    +0.000 A 
ATOM      5  C   UNL     1       7.745   5.052  18.333  0.00  0.00    +0.000 A 
ATOM      6  C   UNL     1       7.289   4.786  17.046  0.00  0.00    +0.000 A 
ATOM      7  C   UNL     1       5.919   4.793  16.766  0.00  0.00    +0.000 A 
ENDBRANCH   1   2
BRANCH   1   8
ATOM      8  N   UNL     1       2.828   5.986  18.398  0.00  0.00    +0.000 N 
ATOM      9  C   UNL     1       2.705   7.317  18.071  0.00  0.00    +0.000 C 
ATOM     10  O   UNL     1       3.141   7.819  17.046  0.00  0.00    +0.000 OA
ATOM     11  H   UNL     1       2.434   5.642  19.256  0.00  0.00    +0.000 HD
BRANCH   9  12
ATOM     12  C   UNL     1       1.927   8.134  19.045  0.00  0.00    +0.000 A 
ATOM     13  C   UNL     1       1.344   9.358  18.687  0.00  0.00    +0.000 A 
ATOM     14  C   UNL     1       0.712  10.141  19.655  0.00  0.00    +0.000 A 
ATOM     15  C   UNL     1       0.646   9.700  20.976  0.00  0.00    +0.000 A 
ATOM     16  C   UNL     1       1.186   8.462  21.328  0.00  0.00    +0.000 A 
ATOM     17  C   UNL     1       1.819   7.676  20.363  0.00  0.00    +0.000 A 
ENDBRANCH   9  12
ENDBRANCH   1   8
BRANCH   1  19
ATOM     18  C   UNL     1       3.486   2.450  17.778  0.00  0.00    +0.000 C 
ATOM     19  C   UNL     1       2.830   3.631  17.802  0.00  0.00    +0.000 C 
BRANCH  19  20
ATOM     20  C   UNL     1       1.346   3.642  18.139  0.00  0.00    +0.000 C 
BRANCH  20  21
ATOM     21  C   UNL     1       0.963   2.897  19.430  0.00  0.00    +0.000 C 
BRANCH  21  22
ATOM     22  C   UNL     1       1.146   3.734  20.697  0.00  0.00    +0.000 C 
ATOM     23  C   UNL     1       2.106   3.062  21.669  0.00  0.00    +0.000 C 
ENDBRANCH  21  22
ENDBRANCH  20  21
ENDBRANCH  19  20
ENDBRANCH   1  19
TORSDOF 7
ENDMDL
MODEL 8
REMARK VINA RESULT:      -7.5      1.996      5.793
REMARK  Name = 
REMARK  8 active torsions:
REMARK  status: ('A' for Active; 'I' for Inactive)
REMARK    1  A    between atoms: C_2  and  C_3
REMARK    2  A    between atoms: C_2  and  C_7
REMARK    3  A    between atoms: C_3  and  C_4
REMARK    4  A    between atoms: C_4  and  C_5
REMARK    5  A    between atoms: C_5  and  C_6
REMARK    6  A    between atoms: C_7  and  N_8
REMARK    7  A    between atoms: C_7  and  C_17
REMARK    8  A    between atoms: C_9  and  C_11
REMARK                            x       y       z     vdW  Elec       q    Type
REMARK                         _______ _______ _______ _____ _____    ______ ____
ROOT
ATOM      1  C   UNL     1       2.862   5.977  19.523  0.00  0.00    +0.000 C 
ENDROOT
BRANCH   1   2
ATOM      2  C   UNL     1       2.267   7.376  19.362  0.00  0.00    +0.000 A 
ATOM      3  C   UNL     1       2.315   7.998  18.101  0.00  0.00    +0.000 A 
ATOM      4  C   UNL     1       1.695   9.230  17.877  0.00  0.00    +0.000 A 
ATOM      5  C   UNL     1       1.017   9.867  18.914  0.00  0.00    +0.000 A 
ATOM      6  C   UNL     1       0.966   9.274  20.170  0.00  0.00    +0.000 A 
ATOM      7  C   UNL     1       1.577   8.036  20.393  0.00  0.00    +0.000 A 
ENDBRANCH   1   2
BRANCH   1   8
ATOM      8  N   UNL     1       3.703   5.706  18.371  0.00  0.00    +0.000 N 
ATOM      9  C   UNL     1       4.999   5.254  18.465  0.00  0.00    +0.000 C 
ATOM     10  O   UNL     1       5.588   5.057  19.517  0.00  0.00    +0.000 OA
ATOM     11  H   UNL     1       3.282   5.835  17.468  0.00  0.00    +0.000 HD
BRANCH   9  12
ATOM     12  C   UNL     1       5.653   4.946  17.162  0.00  0.00    +0.000 A 
ATOM     13  C   UNL     1       7.021   5.170  16.947  0.00  0.00    +0.000 A 
ATOM     14  C   UNL     1       7.572   4.965  15.681  0.00  0.00    +0.000 A 
ATOM     15  C   UNL     1       6.768   4.522  14.632  0.00  0.00    +0.000 A 
ATOM     16  C   UNL     1       5.415   4.256  14.851  0.00  0.00    +0.000 A 
ATOM     17  C   UNL     1       4.860   4.459  16.117  0.00  0.00    +0.000 A 
ENDBRANCH   9  12
ENDBRANCH   1   8
BRANCH   1  19
ATOM     18  C   UNL     1       1.296   4.423  20.832  0.00  0.00    +0.000 C 
ATOM     19  C   UNL     1       1.843   4.835  19.668  0.00  0.00    +0.000 C 
BRANCH  19  20
ATOM     20  C   UNL     1       1.419   4.155  18.374  0.00  0.00    +0.000 C 
BRANCH  20  21
ATOM     21  C   UNL     1       1.556   2.622  18.365  0.00  0.00    +0.000 C 
BRANCH  21  22
ATOM     22  C   UNL     1       2.815   2.116  19.070  0.00  0.00    +0.000 C 
ATOM     23  C   UNL     1       3.789   1.490  18.080  0.00  0.00    +0.000 C 
ENDBRANCH  21  22
ENDBRANCH  20  21
ENDBRANCH  19  20
ENDBRANCH   1  19
TORSDOF 7
ENDMDL
MODEL 9
REMARK VINA RESULT:      -7.5      3.657      6.229
REMARK  Name = 
REMARK  8 active torsions:
REMARK  status: ('A' for Active; 'I' for Inactive)
REMARK    1  A    between atoms: C_2  and  C_3
REMARK    2  A    between atoms: C_2  and  C_7
REMARK    3  A    between atoms: C_3  and  C_4
REMARK    4  A    between atoms: C_4  and  C_5
REMARK    5  A    between atoms: C_5  and  C_6
REMARK    6  A    between atoms: C_7  and  N_8
REMARK    7  A    between atoms: C_7  and  C_17
REMARK    8  A    between atoms: C_9  and  C_11
REMARK                            x       y       z     vdW  Elec       q    Type
REMARK                         _______ _______ _______ _____ _____    ______ ____
ROOT
ATOM      1  C   UNL     1       6.343   4.944  16.425  0.00  0.00    +0.000 C 
ENDROOT
BRANCH   1   2
ATOM      2  C   UNL     1       6.474   4.692  14.923  0.00  0.00    +0.000 A 
ATOM      3  C   UNL     1       7.510   5.327  14.213  0.00  0.00    +0.000 A 
ATOM      4  C   UNL     1       7.736   5.049  12.862  0.00  0.00    +0.000 A 
ATOM      5  C   UNL     1       6.926   4.133  12.193  0.00  0.00    +0.000 A 
ATOM      6  C   UNL     1       5.892   3.503  12.875  0.00  0.00    +0.000 A 
ATOM      7  C   UNL     1       5.671   3.771  14.229  0.00  0.00    +0.000 A 
ENDBRANCH   1   2
BRANCH   1   8
ATOM      8  N   UNL     1       5.107   4.333  16.882  0.00  0.00    +0.000 N 
ATOM      9  C   UNL     1       4.883   3.949  18.183  0.00  0.00    +0.000 C 
ATOM     10  O   UNL     1       5.701   4.054  19.085  0.00  0.00    +0.000 OA
ATOM     11  H   UNL     1       4.380   4.225  16.195  0.00  0.00    +0.000 HD
BRANCH   9  12
ATOM     12  C   UNL     1       3.513   3.433  18.460  0.00  0.00    +0.000 A 
ATOM     13  C   UNL     1       3.297   2.189  19.071  0.00  0.00    +0.000 A 
ATOM     14  C   UNL     1       1.999   1.698  19.218  0.00  0.00    +0.000 A 
ATOM     15  C   UNL     1       0.913   2.450  18.772  0.00  0.00    +0.000 A 
ATOM     16  C   UNL     1       1.119   3.708  18.203  0.00  0.00    +0.000 A 
ATOM     17  C   UNL     1       2.417   4.203  18.054  0.00  0.00    +0.000 A 
ENDBRANCH   9  12
ENDBRANCH   1   8
BRANCH   1  19
ATOM     18  C   UNL     1       5.322   7.281  16.702  0.00  0.00    +0.000 C 
ATOM     19  C   UNL     1       6.351   6.420  16.855  0.00  0.00    +0.000 C 
BRANCH  19  20
ATOM     20  C   UNL     1       7.625   6.908  17.529  0.00  0.00    +0.000 C 
BRANCH  20  21
ATOM     21  C   UNL     1       7.821   8.434  17.532  0.00  0.00    +0.000 C 
BRANCH  21  22
ATOM     22  C   UNL     1       8.696   8.937  18.681  0.00  0.00    +0.000 C 
ATOM     23  C   UNL     1       9.040  10.410  18.510  0.00  0.00    +0.000 C 
ENDBRANCH  21  22
ENDBRANCH  20  21
ENDBRANCH  19  20
ENDBRANCH   1  19
TORSDOF 7
ENDMDL
