MODEL 1
REMARK VINA RESULT:      -8.3      0.000      0.000
REMARK  Name = 
REMARK  1 active torsions:
REMARK  status: ('A' for Active; 'I' for Inactive)
REMARK    1  A    between atoms: O_1  and  C_2
REMARK                            x       y       z     vdW  Elec       q    Type
REMARK                         _______ _______ _______ _____ _____    ______ ____
ROOT
ATOM      1  C   UNL     1       6.765   6.236  16.926  0.00  0.00    +0.000 A 
ATOM      2  C   UNL     1       5.964   6.225  18.065  0.00  0.00    +0.000 A 
ATOM      3  C   UNL     1       4.857   5.395  18.148  0.00  0.00    +0.000 A 
ATOM      4  N   UNL     1       4.115   5.420  19.273  0.00  0.00    +0.000 NA
ATOM      5  C   UNL     1       3.044   4.607  19.336  0.00  0.00    +0.000 A 
ATOM      6  C   UNL     1       2.241   4.589  20.474  0.00  0.00    +0.000 A 
ATOM      7  C   UNL     1       1.124   3.755  20.566  0.00  0.00    +0.000 A 
ATOM      8  C   UNL     1       0.801   2.923  19.502  0.00  0.00    +0.000 A 
ATOM      9  C   UNL     1       1.600   2.933  18.358  0.00  0.00    +0.000 A 
ATOM     10  C   UNL     1       2.712   3.760  18.261  0.00  0.00    +0.000 A 
ATOM     11  N   UNL     1       3.453   3.737  17.144  0.00  0.00    +0.000 NA
ATOM     12  C   UNL     1       4.534   4.549  17.063  0.00  0.00    +0.000 A 
ATOM     13  C   UNL     1       5.346   4.561  15.910  0.00  0.00    +0.000 A 
ATOM     14  C   UNL     1       5.060   3.729  14.805  0.00  0.00    +0.000 A 
ATOM     15  C   UNL     1       5.854   3.732  13.658  0.00  0.00    +0.000 A 
ATOM     16  C   UNL     1       6.961   4.568  13.589  0.00  0.00    +0.000 A 
ATOM     17  C   UNL     1       7.267   5.399  14.666  0.00  0.00    +0.000 A 
ATOM     18  C   UNL     1       6.474   5.410  15.833  0.00  0.00    +0.000 A 
ENDROOT
BRANCH   1  19
ATOM     19  O   UNL     1       7.855   7.066  16.868  0.00  0.00    +0.000 OA
ATOM     20  H   UNL     1       7.986   7.370  15.956  0.00  0.00    +0.000 HD
ENDBRANCH   1  19
TORSDOF 1
ENDMDL
MODEL 2
REMARK VINA RESULT:      -7.9      3.264      4.030
REMARK  Name = 
REMARK  1 active torsions:
REMARK  status: ('A' for Active; 'I' for Inactive)
REMARK    1  A    between atoms: O_1  and  C_2
REMARK                            x       y       z     vdW  Elec       q    Type
REMARK                         _______ _______ _______ _____ _____    ______ ____
ROOT
ATOM      1  C   UNL     1       4.677   4.100  18.827  0.00  0.00    +0.000 A 
ATOM      2  C   UNL     1       3.800   4.831  19.624  0.00  0.00    +0.000 A 
ATOM      3  C   UNL     1       3.298   6.050  19.197  0.00  0.00    +0.000 A 
ATOM      4  N   UNL     1       2.450   6.717  20.005  0.00  0.00    +0.000 NA
ATOM      5  C   UNL     1       1.971   7.900  19.573  0.00  0.00    +0.000 A 
ATOM      6  C   UNL     1       1.092   8.633  20.365  0.00  0.00    +0.000 A 
ATOM      7  C   UNL     1       0.580   9.862  19.941  0.00  0.00    +0.000 A 
ATOM      8  C   UNL     1       0.953  10.369  18.704  0.00  0.00    +0.000 A 
ATOM      9  C   UNL     1       1.833   9.641  17.903  0.00  0.00    +0.000 A 
ATOM     10  C   UNL     1       2.345   8.418  18.319  0.00  0.00    +0.000 A 
ATOM     11  N   UNL     1       3.188   7.751  17.517  0.00  0.00    +0.000 NA
ATOM     12  C   UNL     1       3.680   6.560  17.935  0.00  0.00    +0.000 A 
ATOM     13  C   UNL     1       4.568   5.820  17.128  0.00  0.00    +0.000 A 
ATOM     14  C   UNL     1       4.973   6.293  15.861  0.00  0.00    +0.000 A 
ATOM     15  C   UNL     1       5.851   5.570  15.053  0.00  0.00    +0.000 A 
ATOM     16  C   UNL     1       6.346   4.351  15.493  0.00  0.00    +0.000 A 
ATOM     17  C   UNL     1       5.962   3.859  16.741  0.00  0.00    +0.000 A 
ATOM     18  C   UNL     1       5.076   4.576  17.572  0.00  0.00    +0.000 A 
ENDROOT
BRANCH   1  19
ATOM     19  O   UNL     1       5.161   2.897  19.271  0.00  0.00    +0.000 OA
ATOM     20  H   UNL     1       6.118   2.962  19.416  0.00  0.00    +0.000 HD
ENDBRANCH   1  19
TORSDOF 1
ENDMDL
MODEL 3
REMARK VINA RESULT:      -7.8      1.966      5.764
REMARK  Name = 
REMARK  1 active torsions:
REMARK  status: ('A' for Active; 'I' for Inactive)
REMARK    1  A    between atoms: O_1  and  C_2
REMARK                            x       y       z     vdW  Elec       q    Type
REMARK                         _______ _______ _______ _____ _____    ______ ____
ROOT
ATOM      1  C   UNL     1       6.554   5.096  18.794  0.00  0.00    +0.000 A 
ATOM      2  C   UNL     1       7.276   5.391  17.642  0.00  0.00    +0.000 A 
ATOM      3  C   UNL     1       6.854   4.937  16.402  0.00  0.00    +0.000 A 
ATOM      4  N   UNL     1       7.588   5.252  15.316  0.00  0.00    +0.000 NA
ATOM      5  C   UNL     1       7.162   4.804  14.120  0.00  0.00    +0.000 A 
ATOM      6  C   UNL     1       7.878   5.098  12.963  0.00  0.00    +0.000 A 
ATOM      7  C   UNL     1       7.459   4.646  11.709  0.00  0.00    +0.000 A 
ATOM      8  C   UNL     1       6.302   3.885  11.608  0.00  0.00    +0.000 A 
ATOM      9  C   UNL     1       5.576   3.585  12.761  0.00  0.00    +0.000 A 
ATOM     10  C   UNL     1       5.989   4.033  14.011  0.00  0.00    +0.000 A 
ATOM     11  N   UNL     1       5.261   3.723  15.093  0.00  0.00    +0.000 NA
ATOM     12  C   UNL     1       5.674   4.165  16.304  0.00  0.00    +0.000 A 
ATOM     13  C   UNL     1       4.943   3.866  17.472  0.00  0.00    +0.000 A 
ATOM     14  C   UNL     1       3.758   3.100  17.418  0.00  0.00    +0.000 A 
ATOM     15  C   UNL     1       3.026   2.798  18.567  0.00  0.00    +0.000 A 
ATOM     16  C   UNL     1       3.460   3.258  19.802  0.00  0.00    +0.000 A 
ATOM     17  C   UNL     1       4.627   4.019  19.884  0.00  0.00    +0.000 A 
ATOM     18  C   UNL     1       5.380   4.333  18.734  0.00  0.00    +0.000 A 
ENDROOT
BRANCH   1  19
ATOM     19  O   UNL     1       6.991   5.556  20.010  0.00  0.00    +0.000 OA
ATOM     20  H   UNL     1       6.236   5.869  20.533  0.00  0.00    +0.000 HD
ENDBRANCH   1  19
TORSDOF 1
ENDMDL
MODEL 4
REMARK VINA RESULT:      -7.6      4.021      6.394
REMARK  Name = 
REMARK  1 active torsions:
REMARK  status: ('A' for Active; 'I' for Inactive)
REMARK    1  A    between atoms: O_1  and  C_2
REMARK                            x       y       z     vdW  Elec       q    Type
REMARK                         _______ _______ _______ _____ _____    ______ ____
ROOT
ATOM      1  C   UNL     1       1.919   9.367  18.231  0.00  0.00    +0.000 A 
ATOM      2  C   UNL     1       2.492   8.139  17.915  0.00  0.00    +0.000 A 
ATOM      3  C   UNL     1       2.423   7.074  18.799  0.00  0.00    +0.000 A 
ATOM      4  N   UNL     1       2.992   5.904  18.445  0.00  0.00    +0.000 NA
ATOM      5  C   UNL     1       2.915   4.879  19.316  0.00  0.00    +0.000 A 
ATOM      6  C   UNL     1       3.483   3.647  19.004  0.00  0.00    +0.000 A 
ATOM      7  C   UNL     1       3.417   2.568  19.889  0.00  0.00    +0.000 A 
ATOM      8  C   UNL     1       2.772   2.721  21.108  0.00  0.00    +0.000 A 
ATOM      9  C   UNL     1       2.198   3.951  21.430  0.00  0.00    +0.000 A 
ATOM     10  C   UNL     1       2.261   5.028  20.554  0.00  0.00    +0.000 A 
ATOM     11  N   UNL     1       1.695   6.193  20.902  0.00  0.00    +0.000 NA
ATOM     12  C   UNL     1       1.763   7.234  20.039  0.00  0.00    +0.000 A 
ATOM     13  C   UNL     1       1.183   8.479  20.358  0.00  0.00    +0.000 A 
ATOM     14  C   UNL     1       0.513   8.681  21.585  0.00  0.00    +0.000 A 
ATOM     15  C   UNL     1      -0.065   9.908  21.912  0.00  0.00    +0.000 A 
ATOM     16  C   UNL     1       0.011  10.966  21.018  0.00  0.00    +0.000 A 
ATOM     17  C   UNL     1       0.667  10.794  19.799  0.00  0.00    +0.000 A 
ATOM     18  C   UNL     1       1.258   9.562  19.451  0.00  0.00    +0.000 A 
ENDROOT
BRANCH   1  19
ATOM     19  O   UNL     1       2.000  10.407  17.341  0.00  0.00    +0.000 OA
ATOM     20  H   UNL     1       1.373  11.103  17.593  0.00  0.00    +0.000 HD
ENDBRANCH   1  19
TORSDOF 1
ENDMDL
MODEL 5
REMARK VINA RESULT:      -7.5      2.025      5.783
REMARK  Name = 
REMARK  1 active torsions:
REMARK  status: ('A' for Active; 'I' for Inactive)
REMARK    1  A    between atoms: O_1  and  C_2
REMARK                            x       y       z     vdW  Elec       q    Type
REMARK                         _______ _______ _______ _____ _____    ______ ____
ROOT
ATOM      1  C   UNL     1       2.417   6.281  19.726  0.00  0.00    +0.000 A 
ATOM      2  C   UNL     1       3.285   6.771  18.754  0.00  0.00    +0.000 A 
ATOM      3  C   UNL     1       3.890   5.917  17.846  0.00  0.00    +0.000 A 
ATOM      4  N   UNL     1       4.721   6.442  16.923  0.00  0.00    +0.000 NA
ATOM      5  C   UNL     1       5.300   5.598  16.047  0.00  0.00    +0.000 A 
ATOM      6  C   UNL     1       6.167   6.083  15.071  0.00  0.00    +0.000 A 
ATOM      7  C   UNL     1       6.781   5.230  14.151  0.00  0.00    +0.000 A 
ATOM      8  C   UNL     1       6.525   3.867  14.205  0.00  0.00    +0.000 A 
ATOM      9  C   UNL     1       5.657   3.371  15.179  0.00  0.00    +0.000 A 
ATOM     10  C   UNL     1       5.044   4.215  16.097  0.00  0.00    +0.000 A 
ATOM     11  N   UNL     1       4.216   3.696  17.016  0.00  0.00    +0.000 NA
ATOM     12  C   UNL     1       3.625   4.530  17.904  0.00  0.00    +0.000 A 
ATOM     13  C   UNL     1       2.746   4.034  18.888  0.00  0.00    +0.000 A 
ATOM     14  C   UNL     1       2.452   2.656  18.980  0.00  0.00    +0.000 A 
ATOM     15  C   UNL     1       1.584   2.153  19.949  0.00  0.00    +0.000 A 
ATOM     16  C   UNL     1       0.984   3.019  20.853  0.00  0.00    +0.000 A 
ATOM     17  C   UNL     1       1.256   4.385  20.785  0.00  0.00    +0.000 A 
ATOM     18  C   UNL     1       2.131   4.912  19.813  0.00  0.00    +0.000 A 
ENDROOT
BRANCH   1  19
ATOM     19  O   UNL     1       1.830   7.144  20.614  0.00  0.00    +0.000 OA
ATOM     20  H   UNL     1       0.932   6.840  20.821  0.00  0.00    +0.000 HD
ENDBRANCH   1  19
TORSDOF 1
ENDMDL
MODEL 6
REMARK VINA RESULT:      -7.4      3.512      5.691
REMARK  Name = 
REMARK  1 active torsions:
REMARK  status: ('A' for Active; 'I' for Inactive)
REMARK    1  A    between atoms: O_1  and  C_2
REMARK                            x       y       z     vdW  Elec       q    Type
REMARK                         _______ _______ _______ _____ _____    ______ ____
ROOT
ATOM      1  C   UNL     1       4.156   4.438  18.052  0.00  0.00    +0.000 A 
ATOM      2  C   UNL     1       3.954   5.726  17.564  0.00  0.00    +0.000 A 
ATOM      3  C   UNL     1       3.163   6.631  18.254  0.00  0.00    +0.000 A 
ATOM      4  N   UNL     1       3.001   7.867  17.741  0.00  0.00    +0.000 NA
ATOM      5  C   UNL     1       2.230   8.735  18.425  0.00  0.00    +0.000 A 
ATOM      6  C   UNL     1       2.027  10.025  17.944  0.00  0.00    +0.000 A 
ATOM      7  C   UNL     1       1.232  10.945  18.634  0.00  0.00    +0.000 A 
ATOM      8  C   UNL     1       0.629  10.569  19.826  0.00  0.00    +0.000 A 
ATOM      9  C   UNL     1       0.827   9.278  20.318  0.00  0.00    +0.000 A 
ATOM     10  C   UNL     1       1.617   8.360  19.636  0.00  0.00    +0.000 A 
ATOM     11  N   UNL     1       1.782   7.129  20.144  0.00  0.00    +0.000 NA
ATOM     12  C   UNL     1       2.553   6.244  19.469  0.00  0.00    +0.000 A 
ATOM     13  C   UNL     1       2.758   4.940  19.962  0.00  0.00    +0.000 A 
ATOM     14  C   UNL     1       2.169   4.514  21.173  0.00  0.00    +0.000 A 
ATOM     15  C   UNL     1       2.364   3.225  21.671  0.00  0.00    +0.000 A 
ATOM     16  C   UNL     1       3.158   2.328  20.970  0.00  0.00    +0.000 A 
ATOM     17  C   UNL     1       3.753   2.723  19.772  0.00  0.00    +0.000 A 
ATOM     18  C   UNL     1       3.566   4.021  19.252  0.00  0.00    +0.000 A 
ENDROOT
BRANCH   1  19
ATOM     19  O   UNL     1       4.942   3.559  17.352  0.00  0.00    +0.000 OA
ATOM     20  H   UNL     1       4.445   3.205  16.597  0.00  0.00    +0.000 HD
ENDBRANCH   1  19
TORSDOF 1
ENDMDL
MODEL 7
REMARK VINA RESULT:      -7.3      4.519      7.048
REMARK  Name = 
REMARK  1 active torsions:
REMARK  status: ('A' for Active; 'I' for Inactive)
REMARK    1  A    between atoms: O_1  and  C_2
REMARK                            x       y       z     vdW  Elec       q    Type
REMARK                         _______ _______ _______ _____ _____    ______ ____
ROOT
ATOM      1  C   UNL     1       1.096  10.463  18.703  0.00  0.00    +0.000 A 
ATOM      2  C   UNL     1       1.840   9.585  17.920  0.00  0.00    +0.000 A 
ATOM      3  C   UNL     1       2.220   8.345  18.409  0.00  0.00    +0.000 A 
ATOM      4  N   UNL     1       2.939   7.530  17.611  0.00  0.00    +0.000 NA
ATOM      5  C   UNL     1       3.298   6.328  18.102  0.00  0.00    +0.000 A 
ATOM      6  C   UNL     1       4.040   5.444  17.323  0.00  0.00    +0.000 A 
ATOM      7  C   UNL     1       4.426   4.192  17.807  0.00  0.00    +0.000 A 
ATOM      8  C   UNL     1       4.065   3.814  19.093  0.00  0.00    +0.000 A 
ATOM      9  C   UNL     1       3.320   4.692  19.881  0.00  0.00    +0.000 A 
ATOM     10  C   UNL     1       2.934   5.939  19.405  0.00  0.00    +0.000 A 
ATOM     11  N   UNL     1       2.218   6.752  20.196  0.00  0.00    +0.000 NA
ATOM     12  C   UNL     1       1.848   7.964  19.719  0.00  0.00    +0.000 A 
ATOM     13  C   UNL     1       1.093   8.854  20.510  0.00  0.00    +0.000 A 
ATOM     14  C   UNL     1       0.699   8.512  21.822  0.00  0.00    +0.000 A 
ATOM     15  C   UNL     1      -0.047   9.384  22.616  0.00  0.00    +0.000 A 
ATOM     16  C   UNL     1      -0.421  10.623  22.114  0.00  0.00    +0.000 A 
ATOM     17  C   UNL     1      -0.046  10.986  20.821  0.00  0.00    +0.000 A 
ATOM     18  C   UNL     1       0.710  10.119  20.005  0.00  0.00    +0.000 A 
ENDROOT
BRANCH   1  19
ATOM     19  O   UNL     1       0.732  11.685  18.198  0.00  0.00    +0.000 OA
ATOM     20  H   UNL     1       1.454  12.320  18.326  0.00  0.00    +0.000 HD
ENDBRANCH   1  19
TORSDOF 1
ENDMDL
MODEL 8
REMARK VINA RESULT:      -7.2      3.793      5.832
REMARK  Name = 
REMARK  1 active torsions:
REMARK  status: ('A' for Active; 'I' for Inactive)
REMARK    1  A    between atoms: O_1  and  C_2
REMARK                            x       y       z     vdW  Elec       q    Type
REMARK                         _______ _______ _______ _____ _____    ______ ____
ROOT
ATOM      1  C   UNL     1       3.502   5.664  17.952  0.00  0.00    +0.000 A 
ATOM      2  C   UNL     1       3.058   6.983  17.937  0.00  0.00    +0.000 A 
ATOM      3  C   UNL     1       2.300   7.489  18.982  0.00  0.00    +0.000 A 
ATOM      4  N   UNL     1       1.896   8.774  18.921  0.00  0.00    +0.000 NA
ATOM      5  C   UNL     1       1.162   9.250  19.945  0.00  0.00    +0.000 A 
ATOM      6  C   UNL     1       0.717  10.569  19.937  0.00  0.00    +0.000 A 
ATOM      7  C   UNL     1      -0.046  11.088  20.987  0.00  0.00    +0.000 A 
ATOM      8  C   UNL     1      -0.371  10.275  22.064  0.00  0.00    +0.000 A 
ATOM      9  C   UNL     1       0.071   8.952  22.082  0.00  0.00    +0.000 A 
ATOM     10  C   UNL     1       0.830   8.430  21.040  0.00  0.00    +0.000 A 
ATOM     11  N   UNL     1       1.235   7.153  21.098  0.00  0.00    +0.000 NA
ATOM     12  C   UNL     1       1.974   6.658  20.077  0.00  0.00    +0.000 A 
ATOM     13  C   UNL     1       2.425   5.322  20.092  0.00  0.00    +0.000 A 
ATOM     14  C   UNL     1       2.122   4.459  21.167  0.00  0.00    +0.000 A 
ATOM     15  C   UNL     1       2.562   3.135  21.193  0.00  0.00    +0.000 A 
ATOM     16  C   UNL     1       3.320   2.640  20.141  0.00  0.00    +0.000 A 
ATOM     17  C   UNL     1       3.634   3.471  19.065  0.00  0.00    +0.000 A 
ATOM     18  C   UNL     1       3.197   4.812  19.022  0.00  0.00    +0.000 A 
ENDROOT
BRANCH   1  19
ATOM     19  O   UNL     1       4.250   5.185  16.907  0.00  0.00    +0.000 OA
ATOM     20  H   UNL     1       4.638   5.926  16.416  0.00  0.00    +0.000 HD
ENDBRANCH   1  19
TORSDOF 1
ENDMDL
MODEL 9
REMARK VINA RESULT:      -7.1      3.688      5.384
REMARK  Name = 
REMARK  1 active torsions:
REMARK  status: ('A' for Active; 'I' for Inactive)
REMARK    1  A    between atoms: O_1  and  C_2
REMARK                            x       y       z     vdW  Elec       q    Type
REMARK                         _______ _______ _______ _____ _____    ______ ____
ROOT
ATOM      1  C   UNL     1       2.354   3.604  20.952  0.00  0.00    +0.000 A 
ATOM      2  C   UNL     1       1.907   4.867  21.329  0.00  0.00    +0.000 A 
ATOM      3  C   UNL     1       1.944   5.928  20.439  0.00  0.00    +0.000 A 
ATOM      4  N   UNL     1       1.498   7.132  20.851  0.00  0.00    +0.000 NA
ATOM      5  C   UNL     1       1.540   8.152  19.972  0.00  0.00    +0.000 A 
ATOM      6  C   UNL     1       1.091   9.417  20.342  0.00  0.00    +0.000 A 
ATOM      7  C   UNL     1       1.124  10.492  19.450  0.00  0.00    +0.000 A 
ATOM      8  C   UNL     1       1.613  10.301  18.165  0.00  0.00    +0.000 A 
ATOM      9  C   UNL     1       2.064   9.037  17.785  0.00  0.00    +0.000 A 
ATOM     10  C   UNL     1       2.034   7.964  18.668  0.00  0.00    +0.000 A 
ATOM     11  N   UNL     1       2.476   6.765  18.260  0.00  0.00    +0.000 NA
ATOM     12  C   UNL     1       2.441   5.728  19.131  0.00  0.00    +0.000 A 
ATOM     13  C   UNL     1       2.894   4.448  18.750  0.00  0.00    +0.000 A 
ATOM     14  C   UNL     1       3.396   4.205  17.453  0.00  0.00    +0.000 A 
ATOM     15  C   UNL     1       3.847   2.943  17.065  0.00  0.00    +0.000 A 
ATOM     16  C   UNL     1       3.805   1.889  17.966  0.00  0.00    +0.000 A 
ATOM     17  C   UNL     1       3.312   2.101  19.254  0.00  0.00    +0.000 A 
ATOM     18  C   UNL     1       2.853   3.369  19.665  0.00  0.00    +0.000 A 
ENDROOT
BRANCH   1  19
ATOM     19  O   UNL     1       2.308   2.569  21.851  0.00  0.00    +0.000 OA
ATOM     20  H   UNL     1       2.696   2.850  22.695  0.00  0.00    +0.000 HD
ENDBRANCH   1  19
TORSDOF 1
ENDMDL
