MODEL 1
REMARK VINA RESULT:      -8.2      0.000      0.000
REMARK  Name = 
REMARK  3 active torsions:
REMARK  status: ('A' for Active; 'I' for Inactive)
REMARK    1  A    between atoms: C_10  and  N_11
REMARK    2  A    between atoms: N_11  and  C_12
REMARK    3  A    between atoms: C_12  and  C_13
REMARK                            x       y       z     vdW  Elec       q    Type
REMARK                         _______ _______ _______ _____ _____    ______ ____
ROOT
ATOM      1  O   UNL     1       8.223   5.677  13.597  0.00  0.00    +0.000 OA
ATOM      2  C   UNL     1       7.369   5.238  14.354  0.00  0.00    +0.000 A 
ATOM      3  C   UNL     1       6.438   4.164  13.921  0.00  0.00    +0.000 A 
ATOM      4  C   UNL     1       5.525   3.697  14.783  0.00  0.00    +0.000 A 
ATOM      5  C   UNL     1       5.437   4.219  16.134  0.00  0.00    +0.000 A 
ATOM      6  C   UNL     1       6.273   5.198  16.526  0.00  0.00    +0.000 A 
ATOM      7  N   UNL     1       7.207   5.688  15.638  0.00  0.00    +0.000 N 
ATOM      8  C   UNL     1       6.276   5.770  17.917  0.00  0.00    +0.000 C 
ATOM      9  C   UNL     1       5.534   4.867  18.909  0.00  0.00    +0.000 C 
ATOM     10  C   UNL     1       4.173   4.394  18.366  0.00  0.00    +0.000 C 
ATOM     11  C   UNL     1       4.405   3.610  17.049  0.00  0.00    +0.000 C 
ATOM     12  H   UNL     1       7.847   6.417  15.927  0.00  0.00    +0.000 HD
ENDROOT
BRANCH  10  13
ATOM     13  N   UNL     1       3.269   5.553  18.246  0.00  0.00    +0.000 NA
ATOM     14  H   UNL     1       2.402   5.281  17.783  0.00  0.00    +0.000 HD
BRANCH  13  15
ATOM     15  C   UNL     1       2.935   6.160  19.533  0.00  0.00    +0.000 C 
BRANCH  15  16
ATOM     16  C   UNL     1       2.220   7.480  19.354  0.00  0.00    +0.000 A 
ATOM     17  C   UNL     1       2.202   8.120  18.094  0.00  0.00    +0.000 A 
ATOM     18  C   UNL     1       1.575   9.360  17.925  0.00  0.00    +0.000 A 
ATOM     19  C   UNL     1       0.979   9.932  19.027  0.00  0.00    +0.000 A 
ATOM     20  C   UNL     1       0.983   9.314  20.254  0.00  0.00    +0.000 A 
ATOM     21  C   UNL     1       1.587   8.091  20.450  0.00  0.00    +0.000 A 
ATOM     22  O   UNL     1       0.347  10.044  21.208  0.00  0.00    +0.000 OA
ATOM     23  C   UNL     1      -0.033  11.209  20.447  0.00  0.00    +0.000 C 
ATOM     24  O   UNL     1       0.339  11.132  19.055  0.00  0.00    +0.000 OA
ENDBRANCH  15  16
ENDBRANCH  13  15
ENDBRANCH  10  13
TORSDOF 3
ENDMDL
MODEL 2
REMARK VINA RESULT:      -8.2      1.801      2.496
REMARK  Name = 
REMARK  3 active torsions:
REMARK  status: ('A' for Active; 'I' for Inactive)
REMARK    1  A    between atoms: C_10  and  N_11
REMARK    2  A    between atoms: N_11  and  C_12
REMARK    3  A    between atoms: C_12  and  C_13
REMARK                            x       y       z     vdW  Elec       q    Type
REMARK                         _______ _______ _______ _____ _____    ______ ____
ROOT
ATOM      1  O   UNL     1       8.052   4.237  16.863  0.00  0.00    +0.000 OA
ATOM      2  C   UNL     1       6.869   4.446  17.086  0.00  0.00    +0.000 A 
ATOM      3  C   UNL     1       5.998   5.090  16.069  0.00  0.00    +0.000 A 
ATOM      4  C   UNL     1       4.702   5.288  16.341  0.00  0.00    +0.000 A 
ATOM      5  C   UNL     1       4.133   4.875  17.611  0.00  0.00    +0.000 A 
ATOM      6  C   UNL     1       4.922   4.299  18.538  0.00  0.00    +0.000 A 
ATOM      7  N   UNL     1       6.258   4.103  18.264  0.00  0.00    +0.000 N 
ATOM      8  C   UNL     1       4.409   3.807  19.864  0.00  0.00    +0.000 C 
ATOM      9  C   UNL     1       2.883   3.669  19.872  0.00  0.00    +0.000 C 
ATOM     10  C   UNL     1       2.179   4.905  19.281  0.00  0.00    +0.000 C 
ATOM     11  C   UNL     1       2.658   5.102  17.820  0.00  0.00    +0.000 C 
ATOM     12  H   UNL     1       6.856   3.661  18.950  0.00  0.00    +0.000 HD
ENDROOT
BRANCH  10  13
ATOM     13  N   UNL     1       2.403   6.061  20.169  0.00  0.00    +0.000 NA
ATOM     14  H   UNL     1       3.267   5.941  20.697  0.00  0.00    +0.000 HD
BRANCH  13  15
ATOM     15  C   UNL     1       2.470   7.334  19.454  0.00  0.00    +0.000 C 
BRANCH  15  16
ATOM     16  C   UNL     1       1.520   8.351  20.043  0.00  0.00    +0.000 A 
ATOM     17  C   UNL     1       1.043   9.426  19.261  0.00  0.00    +0.000 A 
ATOM     18  C   UNL     1       0.192  10.393  19.807  0.00  0.00    +0.000 A 
ATOM     19  C   UNL     1      -0.162  10.261  21.132  0.00  0.00    +0.000 A 
ATOM     20  C   UNL     1       0.289   9.214  21.899  0.00  0.00    +0.000 A 
ATOM     21  C   UNL     1       1.122   8.243  21.388  0.00  0.00    +0.000 A 
ATOM     22  O   UNL     1      -0.171   9.269  23.177  0.00  0.00    +0.000 OA
ATOM     23  C   UNL     1      -0.941  10.488  23.134  0.00  0.00    +0.000 C 
ATOM     24  O   UNL     1      -0.963  11.108  21.832  0.00  0.00    +0.000 OA
ENDBRANCH  15  16
ENDBRANCH  13  15
ENDBRANCH  10  13
TORSDOF 3
ENDMDL
MODEL 3
REMARK VINA RESULT:      -7.9      1.629      2.160
REMARK  Name = 
REMARK  3 active torsions:
REMARK  status: ('A' for Active; 'I' for Inactive)
REMARK    1  A    between atoms: C_10  and  N_11
REMARK    2  A    between atoms: N_11  and  C_12
REMARK    3  A    between atoms: C_12  and  C_13
REMARK                            x       y       z     vdW  Elec       q    Type
REMARK                         _______ _______ _______ _____ _____    ______ ____
ROOT
ATOM      1  O   UNL     1       8.162   4.302  17.268  0.00  0.00    +0.000 OA
ATOM      2  C   UNL     1       6.948   4.409  17.357  0.00  0.00    +0.000 A 
ATOM      3  C   UNL     1       6.167   5.166  16.344  0.00  0.00    +0.000 A 
ATOM      4  C   UNL     1       4.836   5.249  16.465  0.00  0.00    +0.000 A 
ATOM      5  C   UNL     1       4.144   4.605  17.566  0.00  0.00    +0.000 A 
ATOM      6  C   UNL     1       4.849   3.926  18.491  0.00  0.00    +0.000 A 
ATOM      7  N   UNL     1       6.220   3.847  18.374  0.00  0.00    +0.000 N 
ATOM      8  C   UNL     1       4.211   3.198  19.641  0.00  0.00    +0.000 C 
ATOM      9  C   UNL     1       2.710   2.982  19.420  0.00  0.00    +0.000 C 
ATOM     10  C   UNL     1       1.998   4.260  18.939  0.00  0.00    +0.000 C 
ATOM     11  C   UNL     1       2.642   4.718  17.605  0.00  0.00    +0.000 C 
ATOM     12  H   UNL     1       6.758   3.330  19.058  0.00  0.00    +0.000 HD
ENDROOT
BRANCH  10  13
ATOM     13  N   UNL     1       2.023   5.265  20.018  0.00  0.00    +0.000 NA
ATOM     14  H   UNL     1       2.338   4.841  20.890  0.00  0.00    +0.000 HD
BRANCH  13  15
ATOM     15  C   UNL     1       2.884   6.409  19.722  0.00  0.00    +0.000 C 
BRANCH  15  16
ATOM     16  C   UNL     1       2.076   7.669  19.515  0.00  0.00    +0.000 A 
ATOM     17  C   UNL     1       2.078   8.326  18.264  0.00  0.00    +0.000 A 
ATOM     18  C   UNL     1       1.364   9.514  18.072  0.00  0.00    +0.000 A 
ATOM     19  C   UNL     1       0.662  10.020  19.144  0.00  0.00    +0.000 A 
ATOM     20  C   UNL     1       0.646   9.384  20.362  0.00  0.00    +0.000 A 
ATOM     21  C   UNL     1       1.335   8.211  20.580  0.00  0.00    +0.000 A 
ATOM     22  O   UNL     1      -0.100  10.047  21.285  0.00  0.00    +0.000 OA
ATOM     23  C   UNL     1      -0.529  11.189  20.516  0.00  0.00    +0.000 C 
ATOM     24  O   UNL     1      -0.073  11.164  19.147  0.00  0.00    +0.000 OA
ENDBRANCH  15  16
ENDBRANCH  13  15
ENDBRANCH  10  13
TORSDOF 3
ENDMDL
MODEL 4
REMARK VINA RESULT:      -7.9      1.710      2.566
REMARK  Name = 
REMARK  3 active torsions:
REMARK  status: ('A' for Active; 'I' for Inactive)
REMARK    1  A    between atoms: C_10  and  N_11
REMARK    2  A    between atoms: N_11  and  C_12
REMARK    3  A    between atoms: C_12  and  C_13
REMARK                            x       y       z     vdW  Elec       q    Type
REMARK                         _______ _______ _______ _____ _____    ______ ____
ROOT
ATOM      1  O   UNL     1       8.116   4.419  17.150  0.00  0.00    +0.000 OA
ATOM      2  C   UNL     1       6.904   4.515  17.273  0.00  0.00    +0.000 A 
ATOM      3  C   UNL     1       6.080   5.202  16.245  0.00  0.00    +0.000 A 
ATOM      4  C   UNL     1       4.752   5.273  16.405  0.00  0.00    +0.000 A 
ATOM      5  C   UNL     1       4.106   4.684  17.563  0.00  0.00    +0.000 A 
ATOM      6  C   UNL     1       4.851   4.068  18.500  0.00  0.00    +0.000 A 
ATOM      7  N   UNL     1       6.218   4.001  18.343  0.00  0.00    +0.000 N 
ATOM      8  C   UNL     1       4.261   3.398  19.710  0.00  0.00    +0.000 C 
ATOM      9  C   UNL     1       2.757   3.148  19.551  0.00  0.00    +0.000 C 
ATOM     10  C   UNL     1       2.011   4.388  19.023  0.00  0.00    +0.000 C 
ATOM     11  C   UNL     1       2.604   4.778  17.645  0.00  0.00    +0.000 C 
ATOM     12  H   UNL     1       6.785   3.531  19.037  0.00  0.00    +0.000 HD
ENDROOT
BRANCH  10  13
ATOM     13  N   UNL     1       2.055   5.452  20.042  0.00  0.00    +0.000 NA
ATOM     14  H   UNL     1       2.614   5.155  20.841  0.00  0.00    +0.000 HD
BRANCH  13  15
ATOM     15  C   UNL     1       2.600   6.712  19.539  0.00  0.00    +0.000 C 
BRANCH  15  16
ATOM     16  C   UNL     1       1.734   7.886  19.933  0.00  0.00    +0.000 A 
ATOM     17  C   UNL     1       1.184   7.967  21.232  0.00  0.00    +0.000 A 
ATOM     18  C   UNL     1       0.351   9.031  21.597  0.00  0.00    +0.000 A 
ATOM     19  C   UNL     1       0.085   9.992  20.646  0.00  0.00    +0.000 A 
ATOM     20  C   UNL     1       0.622   9.927  19.384  0.00  0.00    +0.000 A 
ATOM     21  C   UNL     1       1.451   8.896  18.997  0.00  0.00    +0.000 A 
ATOM     22  O   UNL     1       0.235  10.967  18.598  0.00  0.00    +0.000 OA
ATOM     23  C   UNL     1      -0.632  11.680  19.504  0.00  0.00    +0.000 C 
ATOM     24  O   UNL     1      -0.710  11.082  20.815  0.00  0.00    +0.000 OA
ENDBRANCH  15  16
ENDBRANCH  13  15
ENDBRANCH  10  13
TORSDOF 3
ENDMDL
MODEL 5
REMARK VINA RESULT:      -7.9      0.951      1.598
REMARK  Name = 
REMARK  3 active torsions:
REMARK  status: ('A' for Active; 'I' for Inactive)
REMARK    1  A    between atoms: C_10  and  N_11
REMARK    2  A    between atoms: N_11  and  C_12
REMARK    3  A    between atoms: C_12  and  C_13
REMARK                            x       y       z     vdW  Elec       q    Type
REMARK                         _______ _______ _______ _____ _____    ______ ____
ROOT
ATOM      1  O   UNL     1       8.150   5.530  12.627  0.00  0.00    +0.000 OA
ATOM      2  C   UNL     1       7.454   5.133  13.550  0.00  0.00    +0.000 A 
ATOM      3  C   UNL     1       6.400   4.108  13.331  0.00  0.00    +0.000 A 
ATOM      4  C   UNL     1       5.667   3.685  14.368  0.00  0.00    +0.000 A 
ATOM      5  C   UNL     1       5.891   4.206  15.705  0.00  0.00    +0.000 A 
ATOM      6  C   UNL     1       6.839   5.140  15.905  0.00  0.00    +0.000 A 
ATOM      7  N   UNL     1       7.589   5.585  14.837  0.00  0.00    +0.000 N 
ATOM      8  C   UNL     1       7.163   5.706  17.260  0.00  0.00    +0.000 C 
ATOM      9  C   UNL     1       6.603   4.838  18.392  0.00  0.00    +0.000 C 
ATOM     10  C   UNL     1       5.135   4.437  18.151  0.00  0.00    +0.000 C 
ATOM     11  C   UNL     1       5.046   3.646  16.820  0.00  0.00    +0.000 C 
ATOM     12  H   UNL     1       8.311   6.279  14.980  0.00  0.00    +0.000 HD
ENDROOT
BRANCH  10  13
ATOM     13  N   UNL     1       4.286   5.641  18.216  0.00  0.00    +0.000 NA
ATOM     14  H   UNL     1       3.993   5.919  17.280  0.00  0.00    +0.000 HD
BRANCH  13  15
ATOM     15  C   UNL     1       3.093   5.462  19.041  0.00  0.00    +0.000 C 
BRANCH  15  16
ATOM     16  C   UNL     1       2.438   6.786  19.360  0.00  0.00    +0.000 A 
ATOM     17  C   UNL     1       1.837   7.004  20.620  0.00  0.00    +0.000 A 
ATOM     18  C   UNL     1       1.196   8.213  20.913  0.00  0.00    +0.000 A 
ATOM     19  C   UNL     1       1.170   9.179  19.932  0.00  0.00    +0.000 A 
ATOM     20  C   UNL     1       1.759   8.980  18.707  0.00  0.00    +0.000 A 
ATOM     21  C   UNL     1       2.403   7.804  18.391  0.00  0.00    +0.000 A 
ATOM     22  O   UNL     1       1.618  10.052  17.881  0.00  0.00    +0.000 OA
ATOM     23  C   UNL     1       0.846  10.937  18.719  0.00  0.00    +0.000 C 
ATOM     24  O   UNL     1       0.582  10.402  20.032  0.00  0.00    +0.000 OA
ENDBRANCH  15  16
ENDBRANCH  13  15
ENDBRANCH  10  13
TORSDOF 3
ENDMDL
MODEL 6
REMARK VINA RESULT:      -7.8      2.193      6.670
REMARK  Name = 
REMARK  3 active torsions:
REMARK  status: ('A' for Active; 'I' for Inactive)
REMARK    1  A    between atoms: C_10  and  N_11
REMARK    2  A    between atoms: N_11  and  C_12
REMARK    3  A    between atoms: C_12  and  C_13
REMARK                            x       y       z     vdW  Elec       q    Type
REMARK                         _______ _______ _______ _____ _____    ______ ____
ROOT
ATOM      1  O   UNL     1       2.048   9.039  17.491  0.00  0.00    +0.000 OA
ATOM      2  C   UNL     1       2.062   8.005  18.143  0.00  0.00    +0.000 A 
ATOM      3  C   UNL     1       2.136   8.033  19.627  0.00  0.00    +0.000 A 
ATOM      4  C   UNL     1       2.133   6.881  20.310  0.00  0.00    +0.000 A 
ATOM      5  C   UNL     1       2.050   5.606  19.623  0.00  0.00    +0.000 A 
ATOM      6  C   UNL     1       1.991   5.576  18.278  0.00  0.00    +0.000 A 
ATOM      7  N   UNL     1       2.004   6.760  17.572  0.00  0.00    +0.000 N 
ATOM      8  C   UNL     1       1.865   4.302  17.488  0.00  0.00    +0.000 C 
ATOM      9  C   UNL     1       1.416   3.127  18.364  0.00  0.00    +0.000 C 
ATOM     10  C   UNL     1       2.211   3.041  19.680  0.00  0.00    +0.000 C 
ATOM     11  C   UNL     1       2.014   4.360  20.470  0.00  0.00    +0.000 C 
ATOM     12  H   UNL     1       1.950   6.748  16.562  0.00  0.00    +0.000 HD
ENDROOT
BRANCH  10  13
ATOM     13  N   UNL     1       3.614   2.701  19.379  0.00  0.00    +0.000 NA
ATOM     14  H   UNL     1       3.747   2.602  18.372  0.00  0.00    +0.000 HD
BRANCH  13  15
ATOM     15  C   UNL     1       4.568   3.691  19.876  0.00  0.00    +0.000 C 
BRANCH  15  16
ATOM     16  C   UNL     1       5.419   4.250  18.758  0.00  0.00    +0.000 A 
ATOM     17  C   UNL     1       6.341   5.290  19.010  0.00  0.00    +0.000 A 
ATOM     18  C   UNL     1       7.107   5.839  17.975  0.00  0.00    +0.000 A 
ATOM     19  C   UNL     1       6.929   5.332  16.707  0.00  0.00    +0.000 A 
ATOM     20  C   UNL     1       6.042   4.314  16.454  0.00  0.00    +0.000 A 
ATOM     21  C   UNL     1       5.278   3.749  17.452  0.00  0.00    +0.000 A 
ATOM     22  O   UNL     1       6.013   3.963  15.141  0.00  0.00    +0.000 OA
ATOM     23  C   UNL     1       6.965   4.897  14.591  0.00  0.00    +0.000 C 
ATOM     24  O   UNL     1       7.572   5.750  15.583  0.00  0.00    +0.000 OA
ENDBRANCH  15  16
ENDBRANCH  13  15
ENDBRANCH  10  13
TORSDOF 3
ENDMDL
MODEL 7
REMARK VINA RESULT:      -7.8      2.180      3.073
REMARK  Name = 
REMARK  3 active torsions:
REMARK  status: ('A' for Active; 'I' for Inactive)
REMARK    1  A    between atoms: C_10  and  N_11
REMARK    2  A    between atoms: N_11  and  C_12
REMARK    3  A    between atoms: C_12  and  C_13
REMARK                            x       y       z     vdW  Elec       q    Type
REMARK                         _______ _______ _______ _____ _____    ______ ____
ROOT
ATOM      1  O   UNL     1       8.379   4.089  17.732  0.00  0.00    +0.000 OA
ATOM      2  C   UNL     1       7.322   4.703  17.737  0.00  0.00    +0.000 A 
ATOM      3  C   UNL     1       7.168   5.973  16.982  0.00  0.00    +0.000 A 
ATOM      4  C   UNL     1       5.991   6.611  16.998  0.00  0.00    +0.000 A 
ATOM      5  C   UNL     1       4.861   6.076  17.735  0.00  0.00    +0.000 A 
ATOM      6  C   UNL     1       5.000   4.930  18.427  0.00  0.00    +0.000 A 
ATOM      7  N   UNL     1       6.213   4.277  18.421  0.00  0.00    +0.000 N 
ATOM      8  C   UNL     1       3.872   4.286  19.186  0.00  0.00    +0.000 C 
ATOM      9  C   UNL     1       2.507   4.838  18.762  0.00  0.00    +0.000 C 
ATOM     10  C   UNL     1       2.494   6.376  18.691  0.00  0.00    +0.000 C 
ATOM     11  C   UNL     1       3.562   6.839  17.668  0.00  0.00    +0.000 C 
ATOM     12  H   UNL     1       6.324   3.408  18.929  0.00  0.00    +0.000 HD
ENDROOT
BRANCH  10  13
ATOM     13  N   UNL     1       2.656   6.926  20.050  0.00  0.00    +0.000 NA
ATOM     14  H   UNL     1       3.027   7.875  20.006  0.00  0.00    +0.000 HD
BRANCH  13  15
ATOM     15  C   UNL     1       1.412   6.949  20.816  0.00  0.00    +0.000 C 
BRANCH  15  16
ATOM     16  C   UNL     1       0.955   8.364  21.087  0.00  0.00    +0.000 A 
ATOM     17  C   UNL     1       0.294   8.687  22.293  0.00  0.00    +0.000 A 
ATOM     18  C   UNL     1      -0.166   9.986  22.537  0.00  0.00    +0.000 A 
ATOM     19  C   UNL     1       0.047  10.936  21.562  0.00  0.00    +0.000 A 
ATOM     20  C   UNL     1       0.696  10.634  20.390  0.00  0.00    +0.000 A 
ATOM     21  C   UNL     1       1.166   9.367  20.123  0.00  0.00    +0.000 A 
ATOM     22  O   UNL     1       0.800  11.707  19.561  0.00  0.00    +0.000 OA
ATOM     23  C   UNL     1       0.115  12.713  20.335  0.00  0.00    +0.000 C 
ATOM     24  O   UNL     1      -0.341  12.238  21.619  0.00  0.00    +0.000 OA
ENDBRANCH  15  16
ENDBRANCH  13  15
ENDBRANCH  10  13
TORSDOF 3
ENDMDL
MODEL 8
REMARK VINA RESULT:      -7.8      1.652      7.390
REMARK  Name = 
REMARK  3 active torsions:
REMARK  status: ('A' for Active; 'I' for Inactive)
REMARK    1  A    between atoms: C_10  and  N_11
REMARK    2  A    between atoms: N_11  and  C_12
REMARK    3  A    between atoms: C_12  and  C_13
REMARK                            x       y       z     vdW  Elec       q    Type
REMARK                         _______ _______ _______ _____ _____    ______ ____
ROOT
ATOM      1  O   UNL     1       1.236  11.517  18.821  0.00  0.00    +0.000 OA
ATOM      2  C   UNL     1       1.363  10.368  19.220  0.00  0.00    +0.000 A 
ATOM      3  C   UNL     1       0.942   9.981  20.592  0.00  0.00    +0.000 A 
ATOM      4  C   UNL     1       1.081   8.710  20.989  0.00  0.00    +0.000 A 
ATOM      5  C   UNL     1       1.629   7.703  20.098  0.00  0.00    +0.000 A 
ATOM      6  C   UNL     1       2.018   8.053  18.858  0.00  0.00    +0.000 A 
ATOM      7  N   UNL     1       1.886   9.362  18.450  0.00  0.00    +0.000 N 
ATOM      8  C   UNL     1       2.560   7.069  17.858  0.00  0.00    +0.000 C 
ATOM      9  C   UNL     1       2.246   5.621  18.251  0.00  0.00    +0.000 C 
ATOM     10  C   UNL     1       2.560   5.335  19.732  0.00  0.00    +0.000 C 
ATOM     11  C   UNL     1       1.715   6.290  20.615  0.00  0.00    +0.000 C 
ATOM     12  H   UNL     1       2.166   9.633  17.515  0.00  0.00    +0.000 HD
ENDROOT
BRANCH  10  13
ATOM     13  N   UNL     1       4.016   5.419  19.945  0.00  0.00    +0.000 NA
ATOM     14  H   UNL     1       4.225   5.504  20.939  0.00  0.00    +0.000 HD
BRANCH  13  15
ATOM     15  C   UNL     1       4.745   4.268  19.415  0.00  0.00    +0.000 C 
BRANCH  15  16
ATOM     16  C   UNL     1       5.558   4.641  18.197  0.00  0.00    +0.000 A 
ATOM     17  C   UNL     1       6.481   5.710  18.250  0.00  0.00    +0.000 A 
ATOM     18  C   UNL     1       7.212   6.087  17.118  0.00  0.00    +0.000 A 
ATOM     19  C   UNL     1       6.999   5.384  15.953  0.00  0.00    +0.000 A 
ATOM     20  C   UNL     1       6.111   4.337  15.893  0.00  0.00    +0.000 A 
ATOM     21  C   UNL     1       5.381   3.938  16.992  0.00  0.00    +0.000 A 
ATOM     22  O   UNL     1       6.045   3.780  14.655  0.00  0.00    +0.000 OA
ATOM     23  C   UNL     1       6.974   4.615  13.934  0.00  0.00    +0.000 C 
ATOM     24  O   UNL     1       7.605   5.617  14.758  0.00  0.00    +0.000 OA
ENDBRANCH  15  16
ENDBRANCH  13  15
ENDBRANCH  10  13
TORSDOF 3
ENDMDL
MODEL 9
REMARK VINA RESULT:      -7.7      2.069      2.804
REMARK  Name = 
REMARK  3 active torsions:
REMARK  status: ('A' for Active; 'I' for Inactive)
REMARK    1  A    between atoms: C_10  and  N_11
REMARK    2  A    between atoms: N_11  and  C_12
REMARK    3  A    between atoms: C_12  and  C_13
REMARK                            x       y       z     vdW  Elec       q    Type
REMARK                         _______ _______ _______ _____ _____    ______ ____
ROOT
ATOM      1  O   UNL     1       8.525   4.124  17.873  0.00  0.00    +0.000 OA
ATOM      2  C   UNL     1       7.409   4.616  17.790  0.00  0.00    +0.000 A 
ATOM      3  C   UNL     1       7.222   6.028  17.366  0.00  0.00    +0.000 A 
ATOM      4  C   UNL     1       5.984   6.529  17.269  0.00  0.00    +0.000 A 
ATOM      5  C   UNL     1       4.822   5.711  17.566  0.00  0.00    +0.000 A 
ATOM      6  C   UNL     1       4.989   4.435  17.958  0.00  0.00    +0.000 A 
ATOM      7  N   UNL     1       6.262   3.919  18.068  0.00  0.00    +0.000 N 
ATOM      8  C   UNL     1       3.841   3.507  18.248  0.00  0.00    +0.000 C 
ATOM      9  C   UNL     1       2.521   4.032  17.673  0.00  0.00    +0.000 C 
ATOM     10  C   UNL     1       2.294   5.522  17.993  0.00  0.00    +0.000 C 
ATOM     11  C   UNL     1       3.465   6.344  17.395  0.00  0.00    +0.000 C 
ATOM     12  H   UNL     1       6.397   2.957  18.351  0.00  0.00    +0.000 HD
ENDROOT
BRANCH  10  13
ATOM     13  N   UNL     1       2.101   5.682  19.445  0.00  0.00    +0.000 NA
ATOM     14  H   UNL     1       2.481   4.879  19.945  0.00  0.00    +0.000 HD
BRANCH  13  15
ATOM     15  C   UNL     1       2.718   6.895  19.980  0.00  0.00    +0.000 C 
BRANCH  15  16
ATOM     16  C   UNL     1       1.701   7.996  20.168  0.00  0.00    +0.000 A 
ATOM     17  C   UNL     1       0.920   8.059  21.345  0.00  0.00    +0.000 A 
ATOM     18  C   UNL     1      -0.050   9.053  21.513  0.00  0.00    +0.000 A 
ATOM     19  C   UNL     1      -0.219   9.964  20.494  0.00  0.00    +0.000 A 
ATOM     20  C   UNL     1       0.541   9.917  19.350  0.00  0.00    +0.000 A 
ATOM     21  C   UNL     1       1.508   8.955  19.158  0.00  0.00    +0.000 A 
ATOM     22  O   UNL     1       0.217  10.900  18.469  0.00  0.00    +0.000 OA
ATOM     23  C   UNL     1      -0.856  11.555  19.178  0.00  0.00    +0.000 C 
ATOM     24  O   UNL     1      -1.119  10.984  20.476  0.00  0.00    +0.000 OA
ENDBRANCH  15  16
ENDBRANCH  13  15
ENDBRANCH  10  13
TORSDOF 3
ENDMDL
