MODEL 1
REMARK VINA RESULT:      -8.2      0.000      0.000
REMARK  Name = 
REMARK  4 active torsions:
REMARK  status: ('A' for Active; 'I' for Inactive)
REMARK    1  A    between atoms: C_2  and  C_22
REMARK    2  A    between atoms: N_3  and  C_4
REMARK    3  A    between atoms: N_10  and  S_11
REMARK    4  A    between atoms: S_11  and  C_14
REMARK                            x       y       z     vdW  Elec       q    Type
REMARK                         _______ _______ _______ _____ _____    ______ ____
ROOT
ATOM      1  C   UNL     1       2.011   7.351  19.738  0.00  0.00    +0.000 A 
ATOM      2  C   UNL     1       1.675   6.477  20.769  0.00  0.00    +0.000 A 
ATOM      3  C   UNL     1       1.941   5.118  20.656  0.00  0.00    +0.000 A 
ATOM      4  C   UNL     1       2.571   4.608  19.514  0.00  0.00    +0.000 A 
ATOM      5  C   UNL     1       2.929   5.474  18.464  0.00  0.00    +0.000 A 
ATOM      6  C   UNL     1       2.600   6.834  18.575  0.00  0.00    +0.000 A 
ATOM      7  N   UNL     1       3.559   4.932  17.275  0.00  0.00    +0.000 N 
ATOM      8  C   UNL     1       3.514   3.459  17.090  0.00  0.00    +0.000 C 
ATOM      9  C   UNL     1       3.795   2.731  18.391  0.00  0.00    +0.000 C 
ATOM     10  C   UNL     1       2.767   3.119  19.435  0.00  0.00    +0.000 C 
ENDROOT
BRANCH   1  13
ATOM     11  O   UNL     1       0.859   9.097  17.696  0.00  0.00    +0.000 OA
ATOM     12  C   UNL     1       1.242   9.522  18.780  0.00  0.00    +0.000 C 
ATOM     13  N   UNL     1       1.773   8.744  19.798  0.00  0.00    +0.000 N 
ATOM     14  H   UNL     1       1.911   9.181  20.705  0.00  0.00    +0.000 HD
BRANCH  12  15
ATOM     15  C   UNL     1       1.080  10.972  19.049  0.00  0.00    +0.000 A 
ATOM     16  C   UNL     1       1.924  11.939  18.503  0.00  0.00    +0.000 A 
ATOM     17  F   UNL     1       2.898  11.597  17.646  0.00  0.00    +0.000 F 
ATOM     18  C   UNL     1       1.792  13.288  18.836  0.00  0.00    +0.000 A 
ATOM     19  C   UNL     1       0.800  13.692  19.729  0.00  0.00    +0.000 A 
ATOM     20  C   UNL     1      -0.063  12.743  20.267  0.00  0.00    +0.000 A 
ATOM     21  C   UNL     1       0.077  11.399  19.927  0.00  0.00    +0.000 A 
ATOM     22  F   UNL     1      -0.804  10.538  20.457  0.00  0.00    +0.000 F 
ENDBRANCH  12  15
ENDBRANCH   1  13
BRANCH   7  23
ATOM     23  S   UNL     1       4.869   5.760  16.543  0.00  0.00    +0.000 S 
ATOM     24  O   UNL     1       5.457   4.892  15.540  0.00  0.00    +0.000 OA
ATOM     25  O   UNL     1       4.479   7.107  16.180  0.00  0.00    +0.000 OA
BRANCH  23  26
ATOM     26  C   UNL     1       6.173   5.936  17.756  0.00  0.00    +0.000 A 
ATOM     27  C   UNL     1       6.440   5.246  18.925  0.00  0.00    +0.000 A 
ATOM     28  C   UNL     1       7.621   5.709  19.575  0.00  0.00    +0.000 A 
ATOM     29  C   UNL     1       8.222   6.733  18.877  0.00  0.00    +0.000 A 
ATOM     30  S   UNL     1       7.355   7.138  17.461  0.00  0.00    +0.000 S 
ENDBRANCH  23  26
ENDBRANCH   7  23
TORSDOF 4
ENDMDL
MODEL 2
REMARK VINA RESULT:      -8.2      0.152      1.543
REMARK  Name = 
REMARK  4 active torsions:
REMARK  status: ('A' for Active; 'I' for Inactive)
REMARK    1  A    between atoms: C_2  and  C_22
REMARK    2  A    between atoms: N_3  and  C_4
REMARK    3  A    between atoms: N_10  and  S_11
REMARK    4  A    between atoms: S_11  and  C_14
REMARK                            x       y       z     vdW  Elec       q    Type
REMARK                         _______ _______ _______ _____ _____    ______ ____
ROOT
ATOM      1  C   UNL     1       2.014   7.363  19.693  0.00  0.00    +0.000 A 
ATOM      2  C   UNL     1       1.686   6.496  20.733  0.00  0.00    +0.000 A 
ATOM      3  C   UNL     1       1.962   5.138  20.632  0.00  0.00    +0.000 A 
ATOM      4  C   UNL     1       2.595   4.622  19.494  0.00  0.00    +0.000 A 
ATOM      5  C   UNL     1       2.945   5.481  18.436  0.00  0.00    +0.000 A 
ATOM      6  C   UNL     1       2.606   6.839  18.535  0.00  0.00    +0.000 A 
ATOM      7  N   UNL     1       3.577   4.933  17.251  0.00  0.00    +0.000 N 
ATOM      8  C   UNL     1       3.543   3.458  17.080  0.00  0.00    +0.000 C 
ATOM      9  C   UNL     1       3.831   2.744  18.387  0.00  0.00    +0.000 C 
ATOM     10  C   UNL     1       2.801   3.134  19.429  0.00  0.00    +0.000 C 
ENDROOT
BRANCH   1  13
ATOM     11  O   UNL     1       0.905   9.093  17.615  0.00  0.00    +0.000 OA
ATOM     12  C   UNL     1       1.257   9.525  18.707  0.00  0.00    +0.000 C 
ATOM     13  N   UNL     1       1.766   8.754  19.742  0.00  0.00    +0.000 N 
ATOM     14  H   UNL     1       1.877   9.196  20.650  0.00  0.00    +0.000 HD
BRANCH  12  15
ATOM     15  C   UNL     1       1.079  10.974  18.965  0.00  0.00    +0.000 A 
ATOM     16  C   UNL     1       0.032  11.480  19.736  0.00  0.00    +0.000 A 
ATOM     17  F   UNL     1      -0.839  10.656  20.339  0.00  0.00    +0.000 F 
ATOM     18  C   UNL     1      -0.151  12.855  19.898  0.00  0.00    +0.000 A 
ATOM     19  C   UNL     1       0.723  13.752  19.284  0.00  0.00    +0.000 A 
ATOM     20  C   UNL     1       1.784  13.264  18.529  0.00  0.00    +0.000 A 
ATOM     21  C   UNL     1       1.958  11.889  18.374  0.00  0.00    +0.000 A 
ATOM     22  F   UNL     1       3.016  11.483  17.658  0.00  0.00    +0.000 F 
ENDBRANCH  12  15
ENDBRANCH   1  13
BRANCH   7  23
ATOM     23  S   UNL     1       4.880   5.764  16.510  0.00  0.00    +0.000 S 
ATOM     24  O   UNL     1       5.466   4.895  15.505  0.00  0.00    +0.000 OA
ATOM     25  O   UNL     1       4.484   7.108  16.146  0.00  0.00    +0.000 OA
BRANCH  23  26
ATOM     26  C   UNL     1       6.190   5.947  17.715  0.00  0.00    +0.000 A 
ATOM     27  C   UNL     1       6.518   5.206  18.837  0.00  0.00    +0.000 A 
ATOM     28  C   UNL     1       7.679   5.702  19.500  0.00  0.00    +0.000 A 
ATOM     29  C   UNL     1       8.204   6.801  18.858  0.00  0.00    +0.000 A 
ATOM     30  S   UNL     1       7.292   7.236  17.480  0.00  0.00    +0.000 S 
ENDBRANCH  23  26
ENDBRANCH   7  23
TORSDOF 4
ENDMDL
MODEL 3
REMARK VINA RESULT:      -8.1      2.804      4.181
REMARK  Name = 
REMARK  4 active torsions:
REMARK  status: ('A' for Active; 'I' for Inactive)
REMARK    1  A    between atoms: C_2  and  C_22
REMARK    2  A    between atoms: N_3  and  C_4
REMARK    3  A    between atoms: N_10  and  S_11
REMARK    4  A    between atoms: S_11  and  C_14
REMARK                            x       y       z     vdW  Elec       q    Type
REMARK                         _______ _______ _______ _____ _____    ______ ____
ROOT
ATOM      1  C   UNL     1       2.969   7.564  18.556  0.00  0.00    +0.000 A 
ATOM      2  C   UNL     1       3.685   8.302  17.617  0.00  0.00    +0.000 A 
ATOM      3  C   UNL     1       4.455   7.661  16.655  0.00  0.00    +0.000 A 
ATOM      4  C   UNL     1       4.506   6.262  16.599  0.00  0.00    +0.000 A 
ATOM      5  C   UNL     1       3.782   5.496  17.531  0.00  0.00    +0.000 A 
ATOM      6  C   UNL     1       3.056   6.165  18.529  0.00  0.00    +0.000 A 
ATOM      7  N   UNL     1       3.862   4.048  17.480  0.00  0.00    +0.000 N 
ATOM      8  C   UNL     1       4.940   3.453  16.651  0.00  0.00    +0.000 C 
ATOM      9  C   UNL     1       5.085   4.182  15.328  0.00  0.00    +0.000 C 
ATOM     10  C   UNL     1       5.413   5.641  15.572  0.00  0.00    +0.000 C 
ENDROOT
BRANCH   1  13
ATOM     11  O   UNL     1       0.798   9.495  18.236  0.00  0.00    +0.000 OA
ATOM     12  C   UNL     1       1.158   9.091  19.336  0.00  0.00    +0.000 C 
ATOM     13  N   UNL     1       2.162   8.159  19.553  0.00  0.00    +0.000 N 
ATOM     14  H   UNL     1       2.266   7.786  20.493  0.00  0.00    +0.000 HD
BRANCH  12  15
ATOM     15  C   UNL     1       0.433   9.597  20.527  0.00  0.00    +0.000 A 
ATOM     16  C   UNL     1       0.214  10.955  20.756  0.00  0.00    +0.000 A 
ATOM     17  F   UNL     1       0.603  11.875  19.861  0.00  0.00    +0.000 F 
ATOM     18  C   UNL     1      -0.406  11.403  21.925  0.00  0.00    +0.000 A 
ATOM     19  C   UNL     1      -0.822  10.485  22.890  0.00  0.00    +0.000 A 
ATOM     20  C   UNL     1      -0.629   9.125  22.667  0.00  0.00    +0.000 A 
ATOM     21  C   UNL     1      -0.010   8.689  21.497  0.00  0.00    +0.000 A 
ATOM     22  F   UNL     1       0.120   7.366  21.330  0.00  0.00    +0.000 F 
ENDBRANCH  12  15
ENDBRANCH   1  13
BRANCH   7  23
ATOM     23  S   UNL     1       2.450   3.102  17.702  0.00  0.00    +0.000 S 
ATOM     24  O   UNL     1       1.312   3.853  17.204  0.00  0.00    +0.000 OA
ATOM     25  O   UNL     1       2.668   1.748  17.239  0.00  0.00    +0.000 OA
BRANCH  23  26
ATOM     26  C   UNL     1       2.127   2.975  19.457  0.00  0.00    +0.000 A 
ATOM     27  C   UNL     1       0.956   3.080  20.187  0.00  0.00    +0.000 A 
ATOM     28  C   UNL     1       1.161   2.876  21.583  0.00  0.00    +0.000 A 
ATOM     29  C   UNL     1       2.481   2.615  21.874  0.00  0.00    +0.000 A 
ATOM     30  S   UNL     1       3.462   2.634  20.474  0.00  0.00    +0.000 S 
ENDBRANCH  23  26
ENDBRANCH   7  23
TORSDOF 4
ENDMDL
MODEL 4
REMARK VINA RESULT:      -7.9      3.670      7.932
REMARK  Name = 
REMARK  4 active torsions:
REMARK  status: ('A' for Active; 'I' for Inactive)
REMARK    1  A    between atoms: C_2  and  C_22
REMARK    2  A    between atoms: N_3  and  C_4
REMARK    3  A    between atoms: N_10  and  S_11
REMARK    4  A    between atoms: S_11  and  C_14
REMARK                            x       y       z     vdW  Elec       q    Type
REMARK                         _______ _______ _______ _____ _____    ______ ____
ROOT
ATOM      1  C   UNL     1       1.250   8.400  20.803  0.00  0.00    +0.000 A 
ATOM      2  C   UNL     1       0.559   8.037  21.957  0.00  0.00    +0.000 A 
ATOM      3  C   UNL     1      -0.203   8.974  22.646  0.00  0.00    +0.000 A 
ATOM      4  C   UNL     1      -0.306  10.290  22.179  0.00  0.00    +0.000 A 
ATOM      5  C   UNL     1       0.375  10.676  21.010  0.00  0.00    +0.000 A 
ATOM      6  C   UNL     1       1.183   9.729  20.362  0.00  0.00    +0.000 A 
ATOM      7  N   UNL     1       0.281  12.048  20.550  0.00  0.00    +0.000 N 
ATOM      8  C   UNL     1      -0.271  13.050  21.497  0.00  0.00    +0.000 C 
ATOM      9  C   UNL     1      -1.480  12.504  22.234  0.00  0.00    +0.000 C 
ATOM     10  C   UNL     1      -1.095  11.262  23.013  0.00  0.00    +0.000 C 
ENDROOT
BRANCH   1  13
ATOM     11  O   UNL     1       1.700   8.322  17.917  0.00  0.00    +0.000 OA
ATOM     12  C   UNL     1       2.188   7.495  18.677  0.00  0.00    +0.000 C 
ATOM     13  N   UNL     1       2.034   7.491  20.056  0.00  0.00    +0.000 N 
ATOM     14  H   UNL     1       2.610   6.850  20.595  0.00  0.00    +0.000 HD
BRANCH  12  15
ATOM     15  C   UNL     1       3.054   6.444  18.090  0.00  0.00    +0.000 A 
ATOM     16  C   UNL     1       4.298   6.721  17.522  0.00  0.00    +0.000 A 
ATOM     17  F   UNL     1       4.800   7.965  17.540  0.00  0.00    +0.000 F 
ATOM     18  C   UNL     1       5.055   5.721  16.909  0.00  0.00    +0.000 A 
ATOM     19  C   UNL     1       4.572   4.413  16.858  0.00  0.00    +0.000 A 
ATOM     20  C   UNL     1       3.343   4.115  17.438  0.00  0.00    +0.000 A 
ATOM     21  C   UNL     1       2.595   5.121  18.047  0.00  0.00    +0.000 A 
ATOM     22  F   UNL     1       1.433   4.764  18.612  0.00  0.00    +0.000 F 
ENDBRANCH  12  15
ENDBRANCH   1  13
BRANCH   7  23
ATOM     23  S   UNL     1       0.093  12.383  18.879  0.00  0.00    +0.000 S 
ATOM     24  O   UNL     1      -0.396  13.742  18.736  0.00  0.00    +0.000 OA
ATOM     25  O   UNL     1       1.268  11.967  18.143  0.00  0.00    +0.000 OA
BRANCH  23  26
ATOM     26  C   UNL     1      -1.257  11.389  18.254  0.00  0.00    +0.000 A 
ATOM     27  C   UNL     1      -1.272  10.241  17.481  0.00  0.00    +0.000 A 
ATOM     28  C   UNL     1      -2.594   9.762  17.240  0.00  0.00    +0.000 A 
ATOM     29  C   UNL     1      -3.544  10.556  17.843  0.00  0.00    +0.000 A 
ATOM     30  S   UNL     1      -2.844  11.874  18.676  0.00  0.00    +0.000 S 
ENDBRANCH  23  26
ENDBRANCH   7  23
TORSDOF 4
ENDMDL
MODEL 5
REMARK VINA RESULT:      -7.9      1.215      1.314
REMARK  Name = 
REMARK  4 active torsions:
REMARK  status: ('A' for Active; 'I' for Inactive)
REMARK    1  A    between atoms: C_2  and  C_22
REMARK    2  A    between atoms: N_3  and  C_4
REMARK    3  A    between atoms: N_10  and  S_11
REMARK    4  A    between atoms: S_11  and  C_14
REMARK                            x       y       z     vdW  Elec       q    Type
REMARK                         _______ _______ _______ _____ _____    ______ ____
ROOT
ATOM      1  C   UNL     1       1.919   7.607  19.414  0.00  0.00    +0.000 A 
ATOM      2  C   UNL     1       1.630   6.918  20.590  0.00  0.00    +0.000 A 
ATOM      3  C   UNL     1       1.988   5.583  20.730  0.00  0.00    +0.000 A 
ATOM      4  C   UNL     1       2.664   4.914  19.701  0.00  0.00    +0.000 A 
ATOM      5  C   UNL     1       2.975   5.593  18.509  0.00  0.00    +0.000 A 
ATOM      6  C   UNL     1       2.555   6.925  18.367  0.00  0.00    +0.000 A 
ATOM      7  N   UNL     1       3.653   4.885  17.440  0.00  0.00    +0.000 N 
ATOM      8  C   UNL     1       3.709   3.404  17.532  0.00  0.00    +0.000 C 
ATOM      9  C   UNL     1       4.023   2.949  18.945  0.00  0.00    +0.000 C 
ATOM     10  C   UNL     1       2.960   3.453  19.900  0.00  0.00    +0.000 C 
ENDROOT
BRANCH   1  13
ATOM     11  O   UNL     1      -0.189   9.178  20.691  0.00  0.00    +0.000 OA
ATOM     12  C   UNL     1       0.555   9.651  19.840  0.00  0.00    +0.000 C 
ATOM     13  N   UNL     1       1.588   8.967  19.216  0.00  0.00    +0.000 N 
ATOM     14  H   UNL     1       2.233   9.505  18.644  0.00  0.00    +0.000 HD
BRANCH  12  15
ATOM     15  C   UNL     1       0.374  11.079  19.483  0.00  0.00    +0.000 A 
ATOM     16  C   UNL     1       1.044  12.111  20.140  0.00  0.00    +0.000 A 
ATOM     17  F   UNL     1       1.944  11.846  21.100  0.00  0.00    +0.000 F 
ATOM     18  C   UNL     1       0.796  13.450  19.831  0.00  0.00    +0.000 A 
ATOM     19  C   UNL     1      -0.137  13.777  18.846  0.00  0.00    +0.000 A 
ATOM     20  C   UNL     1      -0.799  12.759  18.166  0.00  0.00    +0.000 A 
ATOM     21  C   UNL     1      -0.542  11.426  18.483  0.00  0.00    +0.000 A 
ATOM     22  F   UNL     1      -1.191  10.492  17.773  0.00  0.00    +0.000 F 
ENDBRANCH  12  15
ENDBRANCH   1  13
BRANCH   7  23
ATOM     23  S   UNL     1       4.914   5.651  16.567  0.00  0.00    +0.000 S 
ATOM     24  O   UNL     1       5.474   4.690  15.634  0.00  0.00    +0.000 OA
ATOM     25  O   UNL     1       4.482   6.945  16.083  0.00  0.00    +0.000 OA
BRANCH  23  26
ATOM     26  C   UNL     1       6.266   5.972  17.693  0.00  0.00    +0.000 A 
ATOM     27  C   UNL     1       6.715   5.289  18.810  0.00  0.00    +0.000 A 
ATOM     28  C   UNL     1       7.864   5.896  19.397  0.00  0.00    +0.000 A 
ATOM     29  C   UNL     1       8.259   7.020  18.706  0.00  0.00    +0.000 A 
ATOM     30  S   UNL     1       7.240   7.343  17.372  0.00  0.00    +0.000 S 
ENDBRANCH  23  26
ENDBRANCH   7  23
TORSDOF 4
ENDMDL
MODEL 6
REMARK VINA RESULT:      -7.9      3.883      8.209
REMARK  Name = 
REMARK  4 active torsions:
REMARK  status: ('A' for Active; 'I' for Inactive)
REMARK    1  A    between atoms: C_2  and  C_22
REMARK    2  A    between atoms: N_3  and  C_4
REMARK    3  A    between atoms: N_10  and  S_11
REMARK    4  A    between atoms: S_11  and  C_14
REMARK                            x       y       z     vdW  Elec       q    Type
REMARK                         _______ _______ _______ _____ _____    ______ ____
ROOT
ATOM      1  C   UNL     1       1.277   8.154  20.475  0.00  0.00    +0.000 A 
ATOM      2  C   UNL     1       0.641   7.720  21.636  0.00  0.00    +0.000 A 
ATOM      3  C   UNL     1      -0.051   8.618  22.439  0.00  0.00    +0.000 A 
ATOM      4  C   UNL     1      -0.142   9.970  22.081  0.00  0.00    +0.000 A 
ATOM      5  C   UNL     1       0.483  10.428  20.907  0.00  0.00    +0.000 A 
ATOM      6  C   UNL     1       1.225   9.515  20.142  0.00  0.00    +0.000 A 
ATOM      7  N   UNL     1       0.405  11.834  20.559  0.00  0.00    +0.000 N 
ATOM      8  C   UNL     1      -0.063  12.772  21.611  0.00  0.00    +0.000 C 
ATOM      9  C   UNL     1      -1.243  12.201  22.375  0.00  0.00    +0.000 C 
ATOM     10  C   UNL     1      -0.852  10.893  23.032  0.00  0.00    +0.000 C 
ENDROOT
BRANCH   1  13
ATOM     11  O   UNL     1       1.932   5.332  20.862  0.00  0.00    +0.000 OA
ATOM     12  C   UNL     1       2.288   5.956  19.869  0.00  0.00    +0.000 C 
ATOM     13  N   UNL     1       1.989   7.286  19.615  0.00  0.00    +0.000 N 
ATOM     14  H   UNL     1       2.203   7.651  18.691  0.00  0.00    +0.000 HD
BRANCH  12  15
ATOM     15  C   UNL     1       3.054   5.223  18.832  0.00  0.00    +0.000 A 
ATOM     16  C   UNL     1       2.440   4.522  17.795  0.00  0.00    +0.000 A 
ATOM     17  F   UNL     1       1.105   4.531  17.654  0.00  0.00    +0.000 F 
ATOM     18  C   UNL     1       3.187   3.780  16.878  0.00  0.00    +0.000 A 
ATOM     19  C   UNL     1       4.577   3.732  16.987  0.00  0.00    +0.000 A 
ATOM     20  C   UNL     1       5.207   4.443  18.004  0.00  0.00    +0.000 A 
ATOM     21  C   UNL     1       4.451   5.181  18.913  0.00  0.00    +0.000 A 
ATOM     22  F   UNL     1       5.120   5.866  19.851  0.00  0.00    +0.000 F 
ENDBRANCH  12  15
ENDBRANCH   1  13
BRANCH   7  23
ATOM     23  S   UNL     1       0.132  12.303  18.933  0.00  0.00    +0.000 S 
ATOM     24  O   UNL     1      -0.375  13.663  18.927  0.00  0.00    +0.000 OA
ATOM     25  O   UNL     1       1.273  11.964  18.109  0.00  0.00    +0.000 OA
BRANCH  23  26
ATOM     26  C   UNL     1      -1.238  11.347  18.293  0.00  0.00    +0.000 A 
ATOM     27  C   UNL     1      -1.277  10.206  17.511  0.00  0.00    +0.000 A 
ATOM     28  C   UNL     1      -2.609   9.761  17.260  0.00  0.00    +0.000 A 
ATOM     29  C   UNL     1      -3.543  10.573  17.864  0.00  0.00    +0.000 A 
ATOM     30  S   UNL     1      -2.815  11.867  18.711  0.00  0.00    +0.000 S 
ENDBRANCH  23  26
ENDBRANCH   7  23
TORSDOF 4
ENDMDL
MODEL 7
REMARK VINA RESULT:      -7.9      2.810      4.319
REMARK  Name = 
REMARK  4 active torsions:
REMARK  status: ('A' for Active; 'I' for Inactive)
REMARK    1  A    between atoms: C_2  and  C_22
REMARK    2  A    between atoms: N_3  and  C_4
REMARK    3  A    between atoms: N_10  and  S_11
REMARK    4  A    between atoms: S_11  and  C_14
REMARK                            x       y       z     vdW  Elec       q    Type
REMARK                         _______ _______ _______ _____ _____    ______ ____
ROOT
ATOM      1  C   UNL     1       3.025   7.518  18.572  0.00  0.00    +0.000 A 
ATOM      2  C   UNL     1       3.733   8.257  17.626  0.00  0.00    +0.000 A 
ATOM      3  C   UNL     1       4.478   7.616  16.645  0.00  0.00    +0.000 A 
ATOM      4  C   UNL     1       4.512   6.217  16.576  0.00  0.00    +0.000 A 
ATOM      5  C   UNL     1       3.797   5.451  17.514  0.00  0.00    +0.000 A 
ATOM      6  C   UNL     1       3.097   6.118  18.531  0.00  0.00    +0.000 A 
ATOM      7  N   UNL     1       3.859   4.003  17.449  0.00  0.00    +0.000 N 
ATOM      8  C   UNL     1       4.915   3.403  16.595  0.00  0.00    +0.000 C 
ATOM      9  C   UNL     1       5.045   4.142  15.276  0.00  0.00    +0.000 C 
ATOM     10  C   UNL     1       5.393   5.595  15.527  0.00  0.00    +0.000 C 
ENDROOT
BRANCH   1  13
ATOM     11  O   UNL     1       0.825   9.423  18.304  0.00  0.00    +0.000 OA
ATOM     12  C   UNL     1       1.223   9.033  19.395  0.00  0.00    +0.000 C 
ATOM     13  N   UNL     1       2.243   8.113  19.589  0.00  0.00    +0.000 N 
ATOM     14  H   UNL     1       2.381   7.750  20.528  0.00  0.00    +0.000 HD
BRANCH  12  15
ATOM     15  C   UNL     1       0.530   9.541  20.604  0.00  0.00    +0.000 A 
ATOM     16  C   UNL     1      -0.035   8.696  21.560  0.00  0.00    +0.000 A 
ATOM     17  F   UNL     1       0.082   7.364  21.456  0.00  0.00    +0.000 F 
ATOM     18  C   UNL     1      -0.746   9.206  22.649  0.00  0.00    +0.000 A 
ATOM     19  C   UNL     1      -0.902  10.584  22.796  0.00  0.00    +0.000 A 
ATOM     20  C   UNL     1      -0.327  11.441  21.863  0.00  0.00    +0.000 A 
ATOM     21  C   UNL     1       0.381  10.921  20.781  0.00  0.00    +0.000 A 
ATOM     22  F   UNL     1       0.934  11.800  19.932  0.00  0.00    +0.000 F 
ENDBRANCH  12  15
ENDBRANCH   1  13
BRANCH   7  23
ATOM     23  S   UNL     1       2.441   3.070  17.688  0.00  0.00    +0.000 S 
ATOM     24  O   UNL     1       1.306   3.826  17.191  0.00  0.00    +0.000 OA
ATOM     25  O   UNL     1       2.645   1.710  17.236  0.00  0.00    +0.000 OA
BRANCH  23  26
ATOM     26  C   UNL     1       2.128   2.962  19.446  0.00  0.00    +0.000 A 
ATOM     27  C   UNL     1       0.960   3.068  20.181  0.00  0.00    +0.000 A 
ATOM     28  C   UNL     1       1.174   2.881  21.578  0.00  0.00    +0.000 A 
ATOM     29  C   UNL     1       2.498   2.632  21.865  0.00  0.00    +0.000 A 
ATOM     30  S   UNL     1       3.471   2.640  20.459  0.00  0.00    +0.000 S 
ENDBRANCH  23  26
ENDBRANCH   7  23
TORSDOF 4
ENDMDL
MODEL 8
REMARK VINA RESULT:      -7.8      3.638      7.850
REMARK  Name = 
REMARK  4 active torsions:
REMARK  status: ('A' for Active; 'I' for Inactive)
REMARK    1  A    between atoms: C_2  and  C_22
REMARK    2  A    between atoms: N_3  and  C_4
REMARK    3  A    between atoms: N_10  and  S_11
REMARK    4  A    between atoms: S_11  and  C_14
REMARK                            x       y       z     vdW  Elec       q    Type
REMARK                         _______ _______ _______ _____ _____    ______ ____
ROOT
ATOM      1  C   UNL     1       2.565   6.780  19.137  0.00  0.00    +0.000 A 
ATOM      2  C   UNL     1       1.977   5.999  20.129  0.00  0.00    +0.000 A 
ATOM      3  C   UNL     1       1.160   6.579  21.091  0.00  0.00    +0.000 A 
ATOM      4  C   UNL     1       0.894   7.954  21.066  0.00  0.00    +0.000 A 
ATOM      5  C   UNL     1       1.469   8.761  20.067  0.00  0.00    +0.000 A 
ATOM      6  C   UNL     1       2.335   8.164  19.139  0.00  0.00    +0.000 A 
ATOM      7  N   UNL     1       1.207  10.188  20.065  0.00  0.00    +0.000 N 
ATOM      8  C   UNL     1       0.604  10.773  21.289  0.00  0.00    +0.000 C 
ATOM      9  C   UNL     1      -0.499   9.889  21.838  0.00  0.00    +0.000 C 
ATOM     10  C   UNL     1       0.054   8.520  22.178  0.00  0.00    +0.000 C 
ENDROOT
BRANCH   1  13
ATOM     11  O   UNL     1       5.160   5.466  19.417  0.00  0.00    +0.000 OA
ATOM     12  C   UNL     1       4.636   5.653  18.325  0.00  0.00    +0.000 C 
ATOM     13  N   UNL     1       3.398   6.247  18.127  0.00  0.00    +0.000 N 
ATOM     14  H   UNL     1       2.998   6.208  17.193  0.00  0.00    +0.000 HD
BRANCH  12  15
ATOM     15  C   UNL     1       5.352   5.163  17.122  0.00  0.00    +0.000 A 
ATOM     16  C   UNL     1       6.510   5.770  16.635  0.00  0.00    +0.000 A 
ATOM     17  F   UNL     1       7.070   6.803  17.283  0.00  0.00    +0.000 F 
ATOM     18  C   UNL     1       7.119   5.331  15.458  0.00  0.00    +0.000 A 
ATOM     19  C   UNL     1       6.571   4.265  14.745  0.00  0.00    +0.000 A 
ATOM     20  C   UNL     1       5.428   3.635  15.227  0.00  0.00    +0.000 A 
ATOM     21  C   UNL     1       4.829   4.081  16.404  0.00  0.00    +0.000 A 
ATOM     22  F   UNL     1       3.747   3.415  16.831  0.00  0.00    +0.000 F 
ENDBRANCH  12  15
ENDBRANCH   1  13
BRANCH   7  23
ATOM     23  S   UNL     1       0.897  11.002  18.589  0.00  0.00    +0.000 S 
ATOM     24  O   UNL     1       0.984  12.432  18.826  0.00  0.00    +0.000 OA
ATOM     25  O   UNL     1       1.663  10.411  17.511  0.00  0.00    +0.000 OA
BRANCH  23  26
ATOM     26  C   UNL     1      -0.823  10.757  18.161  0.00  0.00    +0.000 A 
ATOM     27  C   UNL     1      -1.460   9.757  17.447  0.00  0.00    +0.000 A 
ATOM     28  C   UNL     1      -2.871   9.950  17.375  0.00  0.00    +0.000 A 
ATOM     29  C   UNL     1      -3.267  11.088  18.041  0.00  0.00    +0.000 A 
ATOM     30  S   UNL     1      -1.943  11.920  18.732  0.00  0.00    +0.000 S 
ENDBRANCH  23  26
ENDBRANCH   7  23
TORSDOF 4
ENDMDL
MODEL 9
REMARK VINA RESULT:      -7.8      3.668      8.043
REMARK  Name = 
REMARK  4 active torsions:
REMARK  status: ('A' for Active; 'I' for Inactive)
REMARK    1  A    between atoms: C_2  and  C_22
REMARK    2  A    between atoms: N_3  and  C_4
REMARK    3  A    between atoms: N_10  and  S_11
REMARK    4  A    between atoms: S_11  and  C_14
REMARK                            x       y       z     vdW  Elec       q    Type
REMARK                         _______ _______ _______ _____ _____    ______ ____
ROOT
ATOM      1  C   UNL     1       1.256   8.367  20.763  0.00  0.00    +0.000 A 
ATOM      2  C   UNL     1       0.574   8.000  21.921  0.00  0.00    +0.000 A 
ATOM      3  C   UNL     1      -0.173   8.936  22.625  0.00  0.00    +0.000 A 
ATOM      4  C   UNL     1      -0.273  10.257  22.170  0.00  0.00    +0.000 A 
ATOM      5  C   UNL     1       0.399  10.647  20.997  0.00  0.00    +0.000 A 
ATOM      6  C   UNL     1       1.193   9.700  20.332  0.00  0.00    +0.000 A 
ATOM      7  N   UNL     1       0.309  12.024  20.548  0.00  0.00    +0.000 N 
ATOM      8  C   UNL     1      -0.226  13.021  21.508  0.00  0.00    +0.000 C 
ATOM      9  C   UNL     1      -1.430  12.478  22.255  0.00  0.00    +0.000 C 
ATOM     10  C   UNL     1      -1.045  11.228  23.020  0.00  0.00    +0.000 C 
ENDROOT
BRANCH   1  13
ATOM     11  O   UNL     1       1.696   8.325  17.873  0.00  0.00    +0.000 OA
ATOM     12  C   UNL     1       2.176   7.480  18.621  0.00  0.00    +0.000 C 
ATOM     13  N   UNL     1       2.025   7.458  19.999  0.00  0.00    +0.000 N 
ATOM     14  H   UNL     1       2.594   6.802  20.527  0.00  0.00    +0.000 HD
BRANCH  12  15
ATOM     15  C   UNL     1       3.025   6.426  18.015  0.00  0.00    +0.000 A 
ATOM     16  C   UNL     1       2.628   5.092  17.933  0.00  0.00    +0.000 A 
ATOM     17  F   UNL     1       1.411   4.710  18.350  0.00  0.00    +0.000 F 
ATOM     18  C   UNL     1       3.481   4.110  17.425  0.00  0.00    +0.000 A 
ATOM     19  C   UNL     1       4.759   4.457  16.987  0.00  0.00    +0.000 A 
ATOM     20  C   UNL     1       5.165   5.786  17.043  0.00  0.00    +0.000 A 
ATOM     21  C   UNL     1       4.304   6.758  17.551  0.00  0.00    +0.000 A 
ATOM     22  F   UNL     1       4.743   8.025  17.552  0.00  0.00    +0.000 F 
ENDBRANCH  12  15
ENDBRANCH   1  13
BRANCH   7  23
ATOM     23  S   UNL     1       0.106  12.373  18.882  0.00  0.00    +0.000 S 
ATOM     24  O   UNL     1      -0.379  13.735  18.755  0.00  0.00    +0.000 OA
ATOM     25  O   UNL     1       1.271  11.958  18.130  0.00  0.00    +0.000 OA
BRANCH  23  26
ATOM     26  C   UNL     1      -1.255  11.389  18.262  0.00  0.00    +0.000 A 
ATOM     27  C   UNL     1      -1.283  10.238  17.495  0.00  0.00    +0.000 A 
ATOM     28  C   UNL     1      -2.609   9.771  17.258  0.00  0.00    +0.000 A 
ATOM     29  C   UNL     1      -3.551  10.578  17.857  0.00  0.00    +0.000 A 
ATOM     30  S   UNL     1      -2.836  11.892  18.683  0.00  0.00    +0.000 S 
ENDBRANCH  23  26
ENDBRANCH   7  23
TORSDOF 4
ENDMDL
