MODEL 1
REMARK VINA RESULT:      -6.9      0.000      0.000
REMARK  Name = 
REMARK  11 active torsions:
REMARK  status: ('A' for Active; 'I' for Inactive)
REMARK    1  A    between atoms: C_2  and  O_3
REMARK    2  A    between atoms: C_2  and  C_4
REMARK    3  A    between atoms: C_4  and  C_5
REMARK    4  A    between atoms: C_5  and  C_6
REMARK    5  A    between atoms: C_6  and  C_7
REMARK    6  A    between atoms: C_8  and  C_9
REMARK    7  A    between atoms: C_9  and  C_10
REMARK    8  A    between atoms: C_10  and  C_11
REMARK    9  A    between atoms: C_11  and  N_12
REMARK   10  A    between atoms: N_12  and  S_13
REMARK   11  A    between atoms: S_13  and  C_16
REMARK                            x       y       z     vdW  Elec       q    Type
REMARK                         _______ _______ _______ _____ _____    ______ ____
ROOT
ATOM      1  C   UNL     1       5.076   5.509  18.186  0.00  0.00    +0.000 C 
ENDROOT
BRANCH   1   2
ATOM      2  N   UNL     1       5.505   4.705  17.048  0.00  0.00    +0.000 NA
ATOM      3  H   UNL     1       4.831   4.612  16.284  0.00  0.00    +0.000 HD
BRANCH   2   4
ATOM      4  S   UNL     1       7.016   5.169  16.424  0.00  0.00    +0.000 S 
ATOM      5  O   UNL     1       7.046   6.613  16.505  0.00  0.00    +0.000 OA
ATOM      6  O   UNL     1       8.027   4.352  17.040  0.00  0.00    +0.000 OA
BRANCH   4   7
ATOM      7  C   UNL     1       6.869   4.737  14.712  0.00  0.00    +0.000 A 
ATOM      8  C   UNL     1       5.903   3.821  14.301  0.00  0.00    +0.000 A 
ATOM      9  C   UNL     1       5.831   3.456  12.954  0.00  0.00    +0.000 A 
ATOM     10  C   UNL     1       6.711   4.025  12.032  0.00  0.00    +0.000 A 
ATOM     11  C   UNL     1       7.660   4.960  12.445  0.00  0.00    +0.000 A 
ATOM     12  C   UNL     1       7.740   5.321  13.789  0.00  0.00    +0.000 A 
ENDBRANCH   4   7
ENDBRANCH   2   4
ENDBRANCH   1   2
BRANCH   1  13
ATOM     13  C   UNL     1       3.838   6.323  17.851  0.00  0.00    +0.000 C 
BRANCH  13  14
ATOM     14  C   UNL     1       2.634   5.729  18.577  0.00  0.00    +0.000 C 
BRANCH  14  16
ATOM     15  C   UNL     1       1.168   3.691  18.376  0.00  0.00    +0.000 C 
ATOM     16  C   UNL     1       1.951   4.634  17.805  0.00  0.00    +0.000 C 
BRANCH  15  17
ATOM     17  C   UNL     1       0.905   3.603  19.840  0.00  0.00    +0.000 C 
BRANCH  17  18
ATOM     18  C   UNL     1       1.625   2.414  20.485  0.00  0.00    +0.000 C 
BRANCH  18  19
ATOM     19  C   UNL     1       2.981   2.850  21.051  0.00  0.00    +0.000 C 
BRANCH  19  21
ATOM     20  O   UNL     1       4.269   2.370  19.054  0.00  0.00    +0.000 OA
ATOM     21  C   UNL     1       4.162   2.319  20.259  0.00  0.00    +0.000 C 
BRANCH  21  22
ATOM     22  O   UNL     1       5.121   1.762  21.033  0.00  0.00    +0.000 OA
ATOM     23  H   UNL     1       4.832   1.139  21.726  0.00  0.00    +0.000 HD
ENDBRANCH  21  22
ENDBRANCH  19  21
ENDBRANCH  18  19
ENDBRANCH  17  18
ENDBRANCH  15  17
ENDBRANCH  14  16
ENDBRANCH  13  14
ENDBRANCH   1  13
TORSDOF 11
ENDMDL
MODEL 2
REMARK VINA RESULT:      -6.7      1.520      2.215
REMARK  Name = 
REMARK  11 active torsions:
REMARK  status: ('A' for Active; 'I' for Inactive)
REMARK    1  A    between atoms: C_2  and  O_3
REMARK    2  A    between atoms: C_2  and  C_4
REMARK    3  A    between atoms: C_4  and  C_5
REMARK    4  A    between atoms: C_5  and  C_6
REMARK    5  A    between atoms: C_6  and  C_7
REMARK    6  A    between atoms: C_8  and  C_9
REMARK    7  A    between atoms: C_9  and  C_10
REMARK    8  A    between atoms: C_10  and  C_11
REMARK    9  A    between atoms: C_11  and  N_12
REMARK   10  A    between atoms: N_12  and  S_13
REMARK   11  A    between atoms: S_13  and  C_16
REMARK                            x       y       z     vdW  Elec       q    Type
REMARK                         _______ _______ _______ _____ _____    ______ ____
ROOT
ATOM      1  C   UNL     1       4.750   6.584  16.347  0.00  0.00    +0.000 C 
ENDROOT
BRANCH   1   2
ATOM      2  N   UNL     1       6.168   6.295  16.531  0.00  0.00    +0.000 NA
ATOM      3  H   UNL     1       6.591   6.650  17.392  0.00  0.00    +0.000 HD
BRANCH   2   4
ATOM      4  S   UNL     1       6.552   4.650  16.342  0.00  0.00    +0.000 S 
ATOM      5  O   UNL     1       7.864   4.485  16.930  0.00  0.00    +0.000 OA
ATOM      6  O   UNL     1       5.422   3.873  16.776  0.00  0.00    +0.000 OA
BRANCH   4   7
ATOM      7  C   UNL     1       6.734   4.501  14.587  0.00  0.00    +0.000 A 
ATOM      8  C   UNL     1       7.676   5.274  13.912  0.00  0.00    +0.000 A 
ATOM      9  C   UNL     1       7.775   5.179  12.522  0.00  0.00    +0.000 A 
ATOM     10  C   UNL     1       6.945   4.299  11.825  0.00  0.00    +0.000 A 
ATOM     11  C   UNL     1       6.020   3.510  12.508  0.00  0.00    +0.000 A 
ATOM     12  C   UNL     1       5.914   3.607  13.895  0.00  0.00    +0.000 A 
ENDBRANCH   4   7
ENDBRANCH   2   4
ENDBRANCH   1   2
BRANCH   1  13
ATOM     13  C   UNL     1       4.132   7.145  17.616  0.00  0.00    +0.000 C 
BRANCH  13  14
ATOM     14  C   UNL     1       3.201   6.101  18.226  0.00  0.00    +0.000 C 
BRANCH  14  16
ATOM     15  C   UNL     1       2.940   4.835  20.388  0.00  0.00    +0.000 C 
ATOM     16  C   UNL     1       3.712   5.529  19.521  0.00  0.00    +0.000 C 
BRANCH  15  17
ATOM     17  C   UNL     1       1.488   4.573  20.185  0.00  0.00    +0.000 C 
BRANCH  17  18
ATOM     18  C   UNL     1       1.151   3.082  20.286  0.00  0.00    +0.000 C 
BRANCH  18  19
ATOM     19  C   UNL     1       0.810   2.513  18.904  0.00  0.00    +0.000 C 
BRANCH  19  21
ATOM     20  O   UNL     1       2.225   2.971  16.989  0.00  0.00    +0.000 OA
ATOM     21  C   UNL     1       2.023   2.346  18.007  0.00  0.00    +0.000 C 
BRANCH  21  22
ATOM     22  O   UNL     1       2.891   1.407  18.446  0.00  0.00    +0.000 OA
ATOM     23  H   UNL     1       3.839   1.553  18.266  0.00  0.00    +0.000 HD
ENDBRANCH  21  22
ENDBRANCH  19  21
ENDBRANCH  18  19
ENDBRANCH  17  18
ENDBRANCH  15  17
ENDBRANCH  14  16
ENDBRANCH  13  14
ENDBRANCH   1  13
TORSDOF 11
ENDMDL
MODEL 3
REMARK VINA RESULT:      -6.7      1.551      1.996
REMARK  Name = 
REMARK  11 active torsions:
REMARK  status: ('A' for Active; 'I' for Inactive)
REMARK    1  A    between atoms: C_2  and  O_3
REMARK    2  A    between atoms: C_2  and  C_4
REMARK    3  A    between atoms: C_4  and  C_5
REMARK    4  A    between atoms: C_5  and  C_6
REMARK    5  A    between atoms: C_6  and  C_7
REMARK    6  A    between atoms: C_8  and  C_9
REMARK    7  A    between atoms: C_9  and  C_10
REMARK    8  A    between atoms: C_10  and  C_11
REMARK    9  A    between atoms: C_11  and  N_12
REMARK   10  A    between atoms: N_12  and  S_13
REMARK   11  A    between atoms: S_13  and  C_16
REMARK                            x       y       z     vdW  Elec       q    Type
REMARK                         _______ _______ _______ _____ _____    ______ ____
ROOT
ATOM      1  C   UNL     1       5.917   4.578  18.556  0.00  0.00    +0.000 C 
ENDROOT
BRANCH   1   2
ATOM      2  N   UNL     1       5.780   5.045  17.181  0.00  0.00    +0.000 NA
ATOM      3  H   UNL     1       5.223   5.893  17.048  0.00  0.00    +0.000 HD
BRANCH   2   4
ATOM      4  S   UNL     1       7.264   5.202  16.369  0.00  0.00    +0.000 S 
ATOM      5  O   UNL     1       7.536   6.623  16.324  0.00  0.00    +0.000 OA
ATOM      6  O   UNL     1       8.193   4.269  16.946  0.00  0.00    +0.000 OA
BRANCH   4   7
ATOM      7  C   UNL     1       6.853   4.689  14.725  0.00  0.00    +0.000 A 
ATOM      8  C   UNL     1       5.717   3.916  14.494  0.00  0.00    +0.000 A 
ATOM      9  C   UNL     1       5.433   3.480  13.198  0.00  0.00    +0.000 A 
ATOM     10  C   UNL     1       6.275   3.838  12.144  0.00  0.00    +0.000 A 
ATOM     11  C   UNL     1       7.397   4.634  12.376  0.00  0.00    +0.000 A 
ATOM     12  C   UNL     1       7.688   5.064  13.669  0.00  0.00    +0.000 A 
ENDBRANCH   4   7
ENDBRANCH   2   4
ENDBRANCH   1   2
BRANCH   1  13
ATOM     13  C   UNL     1       4.760   3.678  18.951  0.00  0.00    +0.000 C 
BRANCH  13  14
ATOM     14  C   UNL     1       4.193   3.009  17.701  0.00  0.00    +0.000 C 
BRANCH  14  16
ATOM     15  C   UNL     1       1.793   2.361  18.101  0.00  0.00    +0.000 C 
ATOM     16  C   UNL     1       3.097   2.022  17.997  0.00  0.00    +0.000 C 
BRANCH  15  17
ATOM     17  C   UNL     1       1.281   3.754  17.965  0.00  0.00    +0.000 C 
BRANCH  17  18
ATOM     18  C   UNL     1       1.260   4.495  19.305  0.00  0.00    +0.000 C 
BRANCH  18  19
ATOM     19  C   UNL     1       1.032   3.513  20.460  0.00  0.00    +0.000 C 
BRANCH  19  21
ATOM     20  O   UNL     1       2.490   2.634  22.186  0.00  0.00    +0.000 OA
ATOM     21  C   UNL     1       2.111   3.576  21.526  0.00  0.00    +0.000 C 
BRANCH  21  22
ATOM     22  O   UNL     1       2.635   4.812  21.688  0.00  0.00    +0.000 OA
ATOM     23  H   UNL     1       2.025   5.570  21.616  0.00  0.00    +0.000 HD
ENDBRANCH  21  22
ENDBRANCH  19  21
ENDBRANCH  18  19
ENDBRANCH  17  18
ENDBRANCH  15  17
ENDBRANCH  14  16
ENDBRANCH  13  14
ENDBRANCH   1  13
TORSDOF 11
ENDMDL
MODEL 4
REMARK VINA RESULT:      -6.6      1.051      1.565
REMARK  Name = 
REMARK  11 active torsions:
REMARK  status: ('A' for Active; 'I' for Inactive)
REMARK    1  A    between atoms: C_2  and  O_3
REMARK    2  A    between atoms: C_2  and  C_4
REMARK    3  A    between atoms: C_4  and  C_5
REMARK    4  A    between atoms: C_5  and  C_6
REMARK    5  A    between atoms: C_6  and  C_7
REMARK    6  A    between atoms: C_8  and  C_9
REMARK    7  A    between atoms: C_9  and  C_10
REMARK    8  A    between atoms: C_10  and  C_11
REMARK    9  A    between atoms: C_11  and  N_12
REMARK   10  A    between atoms: N_12  and  S_13
REMARK   11  A    between atoms: S_13  and  C_16
REMARK                            x       y       z     vdW  Elec       q    Type
REMARK                         _______ _______ _______ _____ _____    ______ ____
ROOT
ATOM      1  C   UNL     1       4.956   5.514  18.029  0.00  0.00    +0.000 C 
ENDROOT
BRANCH   1   2
ATOM      2  N   UNL     1       5.436   4.697  16.921  0.00  0.00    +0.000 NA
ATOM      3  H   UNL     1       4.792   4.583  16.134  0.00  0.00    +0.000 HD
BRANCH   2   4
ATOM      4  S   UNL     1       6.963   5.169  16.345  0.00  0.00    +0.000 S 
ATOM      5  O   UNL     1       6.984   6.613  16.431  0.00  0.00    +0.000 OA
ATOM      6  O   UNL     1       7.958   4.355  16.990  0.00  0.00    +0.000 OA
BRANCH   4   7
ATOM      7  C   UNL     1       6.871   4.742  14.629  0.00  0.00    +0.000 A 
ATOM      8  C   UNL     1       5.936   3.808  14.188  0.00  0.00    +0.000 A 
ATOM      9  C   UNL     1       5.907   3.447  12.839  0.00  0.00    +0.000 A 
ATOM     10  C   UNL     1       6.800   4.038  11.942  0.00  0.00    +0.000 A 
ATOM     11  C   UNL     1       7.717   4.991  12.384  0.00  0.00    +0.000 A 
ATOM     12  C   UNL     1       7.754   5.348  13.731  0.00  0.00    +0.000 A 
ENDBRANCH   4   7
ENDBRANCH   2   4
ENDBRANCH   1   2
BRANCH   1  13
ATOM     13  C   UNL     1       3.844   6.448  17.585  0.00  0.00    +0.000 C 
BRANCH  13  14
ATOM     14  C   UNL     1       2.539   6.035  18.261  0.00  0.00    +0.000 C 
BRANCH  14  16
ATOM     15  C   UNL     1       1.815   5.801  20.661  0.00  0.00    +0.000 C 
ATOM     16  C   UNL     1       2.429   6.507  19.685  0.00  0.00    +0.000 C 
BRANCH  15  17
ATOM     17  C   UNL     1       1.149   4.486  20.445  0.00  0.00    +0.000 C 
BRANCH  17  18
ATOM     18  C   UNL     1       2.107   3.311  20.669  0.00  0.00    +0.000 C 
BRANCH  18  19
ATOM     19  C   UNL     1       1.807   2.178  19.681  0.00  0.00    +0.000 C 
BRANCH  19  21
ATOM     20  O   UNL     1       3.979   2.278  18.607  0.00  0.00    +0.000 OA
ATOM     21  C   UNL     1       2.781   2.120  18.518  0.00  0.00    +0.000 C 
BRANCH  21  22
ATOM     22  O   UNL     1       2.186   1.872  17.329  0.00  0.00    +0.000 OA
ATOM     23  H   UNL     1       1.247   1.606  17.345  0.00  0.00    +0.000 HD
ENDBRANCH  21  22
ENDBRANCH  19  21
ENDBRANCH  18  19
ENDBRANCH  17  18
ENDBRANCH  15  17
ENDBRANCH  14  16
ENDBRANCH  13  14
ENDBRANCH   1  13
TORSDOF 11
ENDMDL
MODEL 5
REMARK VINA RESULT:      -6.6      1.090      1.772
REMARK  Name = 
REMARK  11 active torsions:
REMARK  status: ('A' for Active; 'I' for Inactive)
REMARK    1  A    between atoms: C_2  and  O_3
REMARK    2  A    between atoms: C_2  and  C_4
REMARK    3  A    between atoms: C_4  and  C_5
REMARK    4  A    between atoms: C_5  and  C_6
REMARK    5  A    between atoms: C_6  and  C_7
REMARK    6  A    between atoms: C_8  and  C_9
REMARK    7  A    between atoms: C_9  and  C_10
REMARK    8  A    between atoms: C_10  and  C_11
REMARK    9  A    between atoms: C_11  and  N_12
REMARK   10  A    between atoms: N_12  and  S_13
REMARK   11  A    between atoms: S_13  and  C_16
REMARK                            x       y       z     vdW  Elec       q    Type
REMARK                         _______ _______ _______ _____ _____    ______ ____
ROOT
ATOM      1  C   UNL     1       4.947   5.627  18.032  0.00  0.00    +0.000 C 
ENDROOT
BRANCH   1   2
ATOM      2  N   UNL     1       5.455   4.779  16.960  0.00  0.00    +0.000 NA
ATOM      3  H   UNL     1       4.843   4.668  16.147  0.00  0.00    +0.000 HD
BRANCH   2   4
ATOM      4  S   UNL     1       7.017   5.203  16.444  0.00  0.00    +0.000 S 
ATOM      5  O   UNL     1       7.082   6.645  16.536  0.00  0.00    +0.000 OA
ATOM      6  O   UNL     1       7.959   4.355  17.124  0.00  0.00    +0.000 OA
BRANCH   4   7
ATOM      7  C   UNL     1       6.977   4.783  14.724  0.00  0.00    +0.000 A 
ATOM      8  C   UNL     1       7.810   5.441  13.822  0.00  0.00    +0.000 A 
ATOM      9  C   UNL     1       7.733   5.131  12.462  0.00  0.00    +0.000 A 
ATOM     10  C   UNL     1       6.837   4.154  12.022  0.00  0.00    +0.000 A 
ATOM     11  C   UNL     1       6.023   3.481  12.932  0.00  0.00    +0.000 A 
ATOM     12  C   UNL     1       6.092   3.793  14.289  0.00  0.00    +0.000 A 
ENDBRANCH   4   7
ENDBRANCH   2   4
ENDBRANCH   1   2
BRANCH   1  13
ATOM     13  C   UNL     1       3.857   6.558  17.531  0.00  0.00    +0.000 C 
BRANCH  13  14
ATOM     14  C   UNL     1       2.598   6.356  18.371  0.00  0.00    +0.000 C 
BRANCH  14  16
ATOM     15  C   UNL     1       2.258   5.061  20.504  0.00  0.00    +0.000 C 
ATOM     16  C   UNL     1       2.887   6.038  19.813  0.00  0.00    +0.000 C 
BRANCH  15  17
ATOM     17  C   UNL     1       1.185   4.197  19.936  0.00  0.00    +0.000 C 
BRANCH  17  18
ATOM     18  C   UNL     1       1.429   2.712  20.219  0.00  0.00    +0.000 C 
BRANCH  18  19
ATOM     19  C   UNL     1       2.828   2.298  19.748  0.00  0.00    +0.000 C 
BRANCH  19  21
ATOM     20  O   UNL     1       2.026   2.179  17.463  0.00  0.00    +0.000 OA
ATOM     21  C   UNL     1       2.957   2.224  18.237  0.00  0.00    +0.000 C 
BRANCH  21  22
ATOM     22  O   UNL     1       4.239   2.208  17.807  0.00  0.00    +0.000 OA
ATOM     23  H   UNL     1       4.932   2.035  18.471  0.00  0.00    +0.000 HD
ENDBRANCH  21  22
ENDBRANCH  19  21
ENDBRANCH  18  19
ENDBRANCH  17  18
ENDBRANCH  15  17
ENDBRANCH  14  16
ENDBRANCH  13  14
ENDBRANCH   1  13
TORSDOF 11
ENDMDL
MODEL 6
REMARK VINA RESULT:      -6.4      4.665      8.015
REMARK  Name = 
REMARK  11 active torsions:
REMARK  status: ('A' for Active; 'I' for Inactive)
REMARK    1  A    between atoms: C_2  and  O_3
REMARK    2  A    between atoms: C_2  and  C_4
REMARK    3  A    between atoms: C_4  and  C_5
REMARK    4  A    between atoms: C_5  and  C_6
REMARK    5  A    between atoms: C_6  and  C_7
REMARK    6  A    between atoms: C_8  and  C_9
REMARK    7  A    between atoms: C_9  and  C_10
REMARK    8  A    between atoms: C_10  and  C_11
REMARK    9  A    between atoms: C_11  and  N_12
REMARK   10  A    between atoms: N_12  and  S_13
REMARK   11  A    between atoms: S_13  and  C_16
REMARK                            x       y       z     vdW  Elec       q    Type
REMARK                         _______ _______ _______ _____ _____    ______ ____
ROOT
ATOM      1  C   UNL     1       7.388   5.114  17.551  0.00  0.00    +0.000 C 
ENDROOT
BRANCH   1   2
ATOM      2  N   UNL     1       6.284   4.162  17.517  0.00  0.00    +0.000 NA
ATOM      3  H   UNL     1       5.964   3.811  18.423  0.00  0.00    +0.000 HD
BRANCH   2   4
ATOM      4  S   UNL     1       4.951   4.704  16.612  0.00  0.00    +0.000 S 
ATOM      5  O   UNL     1       4.818   6.112  16.918  0.00  0.00    +0.000 OA
ATOM      6  O   UNL     1       5.103   4.231  15.263  0.00  0.00    +0.000 OA
BRANCH   4   7
ATOM      7  C   UNL     1       3.599   3.863  17.387  0.00  0.00    +0.000 A 
ATOM      8  C   UNL     1       3.705   2.512  17.708  0.00  0.00    +0.000 A 
ATOM      9  C   UNL     1       2.612   1.851  18.276  0.00  0.00    +0.000 A 
ATOM     10  C   UNL     1       1.434   2.554  18.533  0.00  0.00    +0.000 A 
ATOM     11  C   UNL     1       1.341   3.913  18.233  0.00  0.00    +0.000 A 
ATOM     12  C   UNL     1       2.427   4.573  17.659  0.00  0.00    +0.000 A 
ENDBRANCH   4   7
ENDBRANCH   2   4
ENDBRANCH   1   2
BRANCH   1  13
ATOM     13  C   UNL     1       7.578   5.688  18.945  0.00  0.00    +0.000 C 
BRANCH  13  14
ATOM     14  C   UNL     1       8.357   6.997  18.848  0.00  0.00    +0.000 C 
BRANCH  14  16
ATOM     15  C   UNL     1       8.147   9.261  17.766  0.00  0.00    +0.000 C 
ATOM     16  C   UNL     1       7.782   7.962  17.847  0.00  0.00    +0.000 C 
BRANCH  15  17
ATOM     17  C   UNL     1       9.141   9.906  18.669  0.00  0.00    +0.000 C 
BRANCH  17  18
ATOM     18  C   UNL     1       8.962  11.426  18.734  0.00  0.00    +0.000 C 
BRANCH  18  19
ATOM     19  C   UNL     1       9.806  12.113  17.655  0.00  0.00    +0.000 C 
BRANCH  19  21
ATOM     20  O   UNL     1      11.565  13.250  18.876  0.00  0.00    +0.000 OA
ATOM     21  C   UNL     1      11.233  12.389  18.092  0.00  0.00    +0.000 C 
BRANCH  21  22
ATOM     22  O   UNL     1      12.140  11.570  17.513  0.00  0.00    +0.000 OA
ATOM     23  H   UNL     1      12.781  11.974  16.898  0.00  0.00    +0.000 HD
ENDBRANCH  21  22
ENDBRANCH  19  21
ENDBRANCH  18  19
ENDBRANCH  17  18
ENDBRANCH  15  17
ENDBRANCH  14  16
ENDBRANCH  13  14
ENDBRANCH   1  13
TORSDOF 11
ENDMDL
MODEL 7
REMARK VINA RESULT:      -6.3      4.213      8.103
REMARK  Name = 
REMARK  11 active torsions:
REMARK  status: ('A' for Active; 'I' for Inactive)
REMARK    1  A    between atoms: C_2  and  O_3
REMARK    2  A    between atoms: C_2  and  C_4
REMARK    3  A    between atoms: C_4  and  C_5
REMARK    4  A    between atoms: C_5  and  C_6
REMARK    5  A    between atoms: C_6  and  C_7
REMARK    6  A    between atoms: C_8  and  C_9
REMARK    7  A    between atoms: C_9  and  C_10
REMARK    8  A    between atoms: C_10  and  C_11
REMARK    9  A    between atoms: C_11  and  N_12
REMARK   10  A    between atoms: N_12  and  S_13
REMARK   11  A    between atoms: S_13  and  C_16
REMARK                            x       y       z     vdW  Elec       q    Type
REMARK                         _______ _______ _______ _____ _____    ______ ____
ROOT
ATOM      1  C   UNL     1       6.546   4.242  17.161  0.00  0.00    +0.000 C 
ENDROOT
BRANCH   1   2
ATOM      2  N   UNL     1       5.477   4.142  18.149  0.00  0.00    +0.000 NA
ATOM      3  H   UNL     1       5.646   4.609  19.043  0.00  0.00    +0.000 HD
BRANCH   2   4
ATOM      4  S   UNL     1       3.954   4.595  17.546  0.00  0.00    +0.000 S 
ATOM      5  O   UNL     1       3.949   6.042  17.545  0.00  0.00    +0.000 OA
ATOM      6  O   UNL     1       3.699   3.833  16.354  0.00  0.00    +0.000 OA
BRANCH   4   7
ATOM      7  C   UNL     1       2.862   4.062  18.834  0.00  0.00    +0.000 A 
ATOM      8  C   UNL     1       2.794   2.715  19.184  0.00  0.00    +0.000 A 
ATOM      9  C   UNL     1       1.893   2.304  20.170  0.00  0.00    +0.000 A 
ATOM     10  C   UNL     1       1.085   3.247  20.808  0.00  0.00    +0.000 A 
ATOM     11  C   UNL     1       1.175   4.597  20.472  0.00  0.00    +0.000 A 
ATOM     12  C   UNL     1       2.067   5.009  19.484  0.00  0.00    +0.000 A 
ENDBRANCH   4   7
ENDBRANCH   2   4
ENDBRANCH   1   2
BRANCH   1  13
ATOM     13  C   UNL     1       7.837   4.732  17.793  0.00  0.00    +0.000 C 
BRANCH  13  14
ATOM     14  C   UNL     1       7.585   6.075  18.474  0.00  0.00    +0.000 C 
BRANCH  14  16
ATOM     15  C   UNL     1       7.732   8.411  17.544  0.00  0.00    +0.000 C 
ATOM     16  C   UNL     1       7.200   7.169  17.515  0.00  0.00    +0.000 C 
BRANCH  15  17
ATOM     17  C   UNL     1       8.743   8.862  18.541  0.00  0.00    +0.000 C 
BRANCH  17  18
ATOM     18  C   UNL     1       8.798  10.388  18.659  0.00  0.00    +0.000 C 
BRANCH  18  19
ATOM     19  C   UNL     1      10.224  10.851  18.979  0.00  0.00    +0.000 C 
BRANCH  19  21
ATOM     20  O   UNL     1      10.172  12.708  17.421  0.00  0.00    +0.000 OA
ATOM     21  C   UNL     1      10.791  11.810  17.947  0.00  0.00    +0.000 C 
BRANCH  21  22
ATOM     22  O   UNL     1      12.089  11.572  17.649  0.00  0.00    +0.000 OA
ATOM     23  H   UNL     1      12.613  12.318  17.301  0.00  0.00    +0.000 HD
ENDBRANCH  21  22
ENDBRANCH  19  21
ENDBRANCH  18  19
ENDBRANCH  17  18
ENDBRANCH  15  17
ENDBRANCH  14  16
ENDBRANCH  13  14
ENDBRANCH   1  13
TORSDOF 11
ENDMDL
MODEL 8
REMARK VINA RESULT:      -6.3      1.938      2.815
REMARK  Name = 
REMARK  11 active torsions:
REMARK  status: ('A' for Active; 'I' for Inactive)
REMARK    1  A    between atoms: C_2  and  O_3
REMARK    2  A    between atoms: C_2  and  C_4
REMARK    3  A    between atoms: C_4  and  C_5
REMARK    4  A    between atoms: C_5  and  C_6
REMARK    5  A    between atoms: C_6  and  C_7
REMARK    6  A    between atoms: C_8  and  C_9
REMARK    7  A    between atoms: C_9  and  C_10
REMARK    8  A    between atoms: C_10  and  C_11
REMARK    9  A    between atoms: C_11  and  N_12
REMARK   10  A    between atoms: N_12  and  S_13
REMARK   11  A    between atoms: S_13  and  C_16
REMARK                            x       y       z     vdW  Elec       q    Type
REMARK                         _______ _______ _______ _____ _____    ______ ____
ROOT
ATOM      1  C   UNL     1       4.440   3.865  17.304  0.00  0.00    +0.000 C 
ENDROOT
BRANCH   1   2
ATOM      2  N   UNL     1       4.800   5.114  16.642  0.00  0.00    +0.000 NA
ATOM      3  H   UNL     1       4.412   5.968  17.050  0.00  0.00    +0.000 HD
BRANCH   2   4
ATOM      4  S   UNL     1       6.474   5.300  16.413  0.00  0.00    +0.000 S 
ATOM      5  O   UNL     1       6.724   6.722  16.500  0.00  0.00    +0.000 OA
ATOM      6  O   UNL     1       7.150   4.356  17.262  0.00  0.00    +0.000 OA
BRANCH   4   7
ATOM      7  C   UNL     1       6.681   4.827  14.719  0.00  0.00    +0.000 A 
ATOM      8  C   UNL     1       7.657   5.439  13.935  0.00  0.00    +0.000 A 
ATOM      9  C   UNL     1       7.776   5.089  12.588  0.00  0.00    +0.000 A 
ATOM     10  C   UNL     1       6.933   4.117  12.045  0.00  0.00    +0.000 A 
ATOM     11  C   UNL     1       5.974   3.490  12.841  0.00  0.00    +0.000 A 
ATOM     12  C   UNL     1       5.848   3.842  14.184  0.00  0.00    +0.000 A 
ENDBRANCH   4   7
ENDBRANCH   2   4
ENDBRANCH   1   2
BRANCH   1  13
ATOM     13  C   UNL     1       2.993   3.494  17.032  0.00  0.00    +0.000 C 
BRANCH  13  14
ATOM     14  C   UNL     1       2.666   2.185  17.747  0.00  0.00    +0.000 C 
BRANCH  14  16
ATOM     15  C   UNL     1       2.557   2.524  20.240  0.00  0.00    +0.000 C 
ATOM     16  C   UNL     1       3.227   2.110  19.141  0.00  0.00    +0.000 C 
BRANCH  15  17
ATOM     17  C   UNL     1       1.196   3.128  20.208  0.00  0.00    +0.000 C 
BRANCH  17  18
ATOM     18  C   UNL     1       1.219   4.621  20.553  0.00  0.00    +0.000 C 
BRANCH  18  19
ATOM     19  C   UNL     1       2.610   5.210  20.297  0.00  0.00    +0.000 C 
BRANCH  19  21
ATOM     20  O   UNL     1       2.931   6.811  18.504  0.00  0.00    +0.000 OA
ATOM     21  C   UNL     1       2.573   6.577  19.637  0.00  0.00    +0.000 C 
BRANCH  21  22
ATOM     22  O   UNL     1       2.093   7.551  20.444  0.00  0.00    +0.000 OA
ATOM     23  H   UNL     1       1.138   7.746  20.392  0.00  0.00    +0.000 HD
ENDBRANCH  21  22
ENDBRANCH  19  21
ENDBRANCH  18  19
ENDBRANCH  17  18
ENDBRANCH  15  17
ENDBRANCH  14  16
ENDBRANCH  13  14
ENDBRANCH   1  13
TORSDOF 11
ENDMDL
MODEL 9
REMARK VINA RESULT:      -6.3      2.741      6.921
REMARK  Name = 
REMARK  11 active torsions:
REMARK  status: ('A' for Active; 'I' for Inactive)
REMARK    1  A    between atoms: C_2  and  O_3
REMARK    2  A    between atoms: C_2  and  C_4
REMARK    3  A    between atoms: C_4  and  C_5
REMARK    4  A    between atoms: C_5  and  C_6
REMARK    5  A    between atoms: C_6  and  C_7
REMARK    6  A    between atoms: C_8  and  C_9
REMARK    7  A    between atoms: C_9  and  C_10
REMARK    8  A    between atoms: C_10  and  C_11
REMARK    9  A    between atoms: C_11  and  N_12
REMARK   10  A    between atoms: N_12  and  S_13
REMARK   11  A    between atoms: S_13  and  C_16
REMARK                            x       y       z     vdW  Elec       q    Type
REMARK                         _______ _______ _______ _____ _____    ______ ____
ROOT
ATOM      1  C   UNL     1       4.261   3.014  19.805  0.00  0.00    +0.000 C 
ENDROOT
BRANCH   1   2
ATOM      2  N   UNL     1       3.184   2.427  19.017  0.00  0.00    +0.000 NA
ATOM      3  H   UNL     1       3.159   1.405  18.980  0.00  0.00    +0.000 HD
BRANCH   2   4
ATOM      4  S   UNL     1       1.645   3.021  19.427  0.00  0.00    +0.000 S 
ATOM      5  O   UNL     1       0.772   2.625  18.343  0.00  0.00    +0.000 OA
ATOM      6  O   UNL     1       1.374   2.661  20.792  0.00  0.00    +0.000 OA
BRANCH   4   7
ATOM      7  C   UNL     1       1.872   4.774  19.311  0.00  0.00    +0.000 A 
ATOM      8  C   UNL     1       2.136   5.367  18.078  0.00  0.00    +0.000 A 
ATOM      9  C   UNL     1       2.359   6.745  18.011  0.00  0.00    +0.000 A 
ATOM     10  C   UNL     1       2.295   7.516  19.173  0.00  0.00    +0.000 A 
ATOM     11  C   UNL     1       2.005   6.921  20.401  0.00  0.00    +0.000 A 
ATOM     12  C   UNL     1       1.790   5.545  20.472  0.00  0.00    +0.000 A 
ENDBRANCH   4   7
ENDBRANCH   2   4
ENDBRANCH   1   2
BRANCH   1  13
ATOM     13  C   UNL     1       5.295   3.682  18.916  0.00  0.00    +0.000 C 
BRANCH  13  14
ATOM     14  C   UNL     1       5.477   5.132  19.357  0.00  0.00    +0.000 C 
BRANCH  14  16
ATOM     15  C   UNL     1       7.624   6.075  18.438  0.00  0.00    +0.000 C 
ATOM     16  C   UNL     1       6.920   5.547  19.464  0.00  0.00    +0.000 C 
BRANCH  15  17
ATOM     17  C   UNL     1       7.072   6.287  17.070  0.00  0.00    +0.000 C 
BRANCH  17  18
ATOM     18  C   UNL     1       7.213   5.040  16.191  0.00  0.00    +0.000 C 
BRANCH  18  19
ATOM     19  C   UNL     1       6.179   5.060  15.059  0.00  0.00    +0.000 C 
BRANCH  19  21
ATOM     20  O   UNL     1       6.366   3.658  13.090  0.00  0.00    +0.000 OA
ATOM     21  C   UNL     1       6.744   4.621  13.721  0.00  0.00    +0.000 C 
BRANCH  21  22
ATOM     22  O   UNL     1       7.743   5.415  13.272  0.00  0.00    +0.000 OA
ATOM     23  H   UNL     1       7.687   6.366  13.481  0.00  0.00    +0.000 HD
ENDBRANCH  21  22
ENDBRANCH  19  21
ENDBRANCH  18  19
ENDBRANCH  17  18
ENDBRANCH  15  17
ENDBRANCH  14  16
ENDBRANCH  13  14
ENDBRANCH   1  13
TORSDOF 11
ENDMDL
