MODEL 1
REMARK VINA RESULT:      -7.8      0.000      0.000
REMARK  Name = 
REMARK  5 active torsions:
REMARK  status: ('A' for Active; 'I' for Inactive)
REMARK    1  A    between atoms: C_1  and  O_2
REMARK    2  A    between atoms: O_2  and  C_3
REMARK    3  A    between atoms: C_8  and  C_9
REMARK    4  A    between atoms: C_11  and  N_12
REMARK    5  A    between atoms: C_15  and  C_16
REMARK                            x       y       z     vdW  Elec       q    Type
REMARK                         _______ _______ _______ _____ _____    ______ ____
ROOT
ATOM      1  C   UNL     1       3.099   3.714  20.442  0.00  0.00    +0.000 A 
ATOM      2  C   UNL     1       2.086   4.294  21.181  0.00  0.00    +0.000 A 
ATOM      3  C   UNL     1       1.664   5.586  20.856  0.00  0.00    +0.000 A 
ATOM      4  C   UNL     1       2.193   6.297  19.786  0.00  0.00    +0.000 A 
ATOM      5  N   UNL     1       1.717   7.531  19.589  0.00  0.00    +0.000 NA
ATOM      6  C   UNL     1       2.208   8.246  18.561  0.00  0.00    +0.000 A 
ATOM      7  C   UNL     1       1.703   9.649  18.402  0.00  0.00    +0.000 C 
ATOM      8  C   UNL     1       3.150   7.735  17.677  0.00  0.00    +0.000 A 
ATOM      9  C   UNL     1       3.684   6.449  17.852  0.00  0.00    +0.000 A 
ATOM     10  C   UNL     1       3.202   5.710  18.983  0.00  0.00    +0.000 A 
ATOM     11  C   UNL     1       3.673   4.443  19.401  0.00  0.00    +0.000 A 
ENDROOT
BRANCH   9  12
ATOM     12  N   UNL     1       4.647   5.969  16.962  0.00  0.00    +0.000 N 
ATOM     13  C   UNL     1       4.420   4.831  16.069  0.00  0.00    +0.000 C 
ATOM     14  C   UNL     1       5.571   3.838  16.284  0.00  0.00    +0.000 C 
ATOM     15  C   UNL     1       6.934   4.499  16.026  0.00  0.00    +0.000 C 
ATOM     16  C   UNL     1       7.063   5.838  16.772  0.00  0.00    +0.000 C 
ATOM     17  C   UNL     1       5.840   6.745  16.604  0.00  0.00    +0.000 C 
BRANCH  15  18
ATOM     18  C   UNL     1       7.182   4.649  14.534  0.00  0.00    +0.000 C 
ATOM     19  N   UNL     1       6.566   3.711  13.754  0.00  0.00    +0.000 N 
ATOM     20  O   UNL     1       7.870   5.526  14.027  0.00  0.00    +0.000 OA
ATOM     21  H   UNL     1       6.132   2.884  14.136  0.00  0.00    +0.000 HD
ATOM     22  H   UNL     1       6.746   3.744  12.759  0.00  0.00    +0.000 HD
ENDBRANCH  15  18
ENDBRANCH   9  12
BRANCH   1  24
ATOM     23  C   UNL     1       4.154   1.836  19.486  0.00  0.00    +0.000 C 
ATOM     24  O   UNL     1       3.633   2.474  20.646  0.00  0.00    +0.000 OA
ENDBRANCH   1  24
TORSDOF 3
ENDMDL
MODEL 2
REMARK VINA RESULT:      -7.6      2.459      6.329
REMARK  Name = 
REMARK  5 active torsions:
REMARK  status: ('A' for Active; 'I' for Inactive)
REMARK    1  A    between atoms: C_1  and  O_2
REMARK    2  A    between atoms: O_2  and  C_3
REMARK    3  A    between atoms: C_8  and  C_9
REMARK    4  A    between atoms: C_11  and  N_12
REMARK    5  A    between atoms: C_15  and  C_16
REMARK                            x       y       z     vdW  Elec       q    Type
REMARK                         _______ _______ _______ _____ _____    ______ ____
ROOT
ATOM      1  C   UNL     1       5.543   3.966  13.723  0.00  0.00    +0.000 A 
ATOM      2  C   UNL     1       6.725   4.565  13.331  0.00  0.00    +0.000 A 
ATOM      3  C   UNL     1       7.414   5.367  14.243  0.00  0.00    +0.000 A 
ATOM      4  C   UNL     1       6.980   5.554  15.550  0.00  0.00    +0.000 A 
ATOM      5  N   UNL     1       7.718   6.359  16.321  0.00  0.00    +0.000 NA
ATOM      6  C   UNL     1       7.326   6.560  17.592  0.00  0.00    +0.000 A 
ATOM      7  C   UNL     1       8.137   7.518  18.413  0.00  0.00    +0.000 C 
ATOM      8  C   UNL     1       6.217   5.928  18.141  0.00  0.00    +0.000 A 
ATOM      9  C   UNL     1       5.409   5.083  17.365  0.00  0.00    +0.000 A 
ATOM     10  C   UNL     1       5.795   4.916  15.994  0.00  0.00    +0.000 A 
ATOM     11  C   UNL     1       5.073   4.192  15.017  0.00  0.00    +0.000 A 
ENDROOT
BRANCH   9  12
ATOM     12  N   UNL     1       4.287   4.480  17.937  0.00  0.00    +0.000 N 
ATOM     13  C   UNL     1       4.278   3.100  18.428  0.00  0.00    +0.000 C 
ATOM     14  C   UNL     1       3.089   2.384  17.774  0.00  0.00    +0.000 C 
ATOM     15  C   UNL     1       1.766   3.103  18.080  0.00  0.00    +0.000 C 
ATOM     16  C   UNL     1       1.867   4.612  17.802  0.00  0.00    +0.000 C 
ATOM     17  C   UNL     1       3.126   5.254  18.392  0.00  0.00    +0.000 C 
BRANCH  15  18
ATOM     18  C   UNL     1       1.314   2.811  19.502  0.00  0.00    +0.000 C 
ATOM     19  N   UNL     1       0.414   3.704  20.011  0.00  0.00    +0.000 N 
ATOM     20  O   UNL     1       1.699   1.862  20.173  0.00  0.00    +0.000 OA
ATOM     21  H   UNL     1       0.200   4.581  19.559  0.00  0.00    +0.000 HD
ATOM     22  H   UNL     1       0.127   3.576  20.972  0.00  0.00    +0.000 HD
ENDBRANCH  15  18
ENDBRANCH   9  12
BRANCH   1  24
ATOM     23  C   UNL     1       5.358   2.663  11.769  0.00  0.00    +0.000 C 
ATOM     24  O   UNL     1       4.747   3.173  12.947  0.00  0.00    +0.000 OA
ENDBRANCH   1  24
TORSDOF 3
ENDMDL
MODEL 3
REMARK VINA RESULT:      -7.4      2.149      4.098
REMARK  Name = 
REMARK  5 active torsions:
REMARK  status: ('A' for Active; 'I' for Inactive)
REMARK    1  A    between atoms: C_1  and  O_2
REMARK    2  A    between atoms: O_2  and  C_3
REMARK    3  A    between atoms: C_8  and  C_9
REMARK    4  A    between atoms: C_11  and  N_12
REMARK    5  A    between atoms: C_15  and  C_16
REMARK                            x       y       z     vdW  Elec       q    Type
REMARK                         _______ _______ _______ _____ _____    ______ ____
ROOT
ATOM      1  C   UNL     1       1.968   8.479  19.017  0.00  0.00    +0.000 A 
ATOM      2  C   UNL     1       1.156   8.360  20.129  0.00  0.00    +0.000 A 
ATOM      3  C   UNL     1       1.124   7.145  20.818  0.00  0.00    +0.000 A 
ATOM      4  C   UNL     1       1.913   6.060  20.455  0.00  0.00    +0.000 A 
ATOM      5  N   UNL     1       1.778   4.947  21.184  0.00  0.00    +0.000 NA
ATOM      6  C   UNL     1       2.529   3.879  20.861  0.00  0.00    +0.000 A 
ATOM      7  C   UNL     1       2.310   2.625  21.654  0.00  0.00    +0.000 C 
ATOM      8  C   UNL     1       3.465   3.906  19.834  0.00  0.00    +0.000 A 
ATOM      9  C   UNL     1       3.632   5.050  19.038  0.00  0.00    +0.000 A 
ATOM     10  C   UNL     1       2.789   6.168  19.348  0.00  0.00    +0.000 A 
ATOM     11  C   UNL     1       2.723   7.377  18.616  0.00  0.00    +0.000 A 
ENDROOT
BRANCH   9  12
ATOM     12  N   UNL     1       4.564   5.041  17.998  0.00  0.00    +0.000 N 
ATOM     13  C   UNL     1       5.594   6.069  17.833  0.00  0.00    +0.000 C 
ATOM     14  C   UNL     1       5.491   6.601  16.397  0.00  0.00    +0.000 C 
ATOM     15  C   UNL     1       5.649   5.469  15.370  0.00  0.00    +0.000 C 
ATOM     16  C   UNL     1       4.740   4.273  15.703  0.00  0.00    +0.000 C 
ATOM     17  C   UNL     1       4.808   3.852  17.174  0.00  0.00    +0.000 C 
BRANCH  15  18
ATOM     18  C   UNL     1       7.108   5.062  15.242  0.00  0.00    +0.000 C 
ATOM     19  N   UNL     1       7.718   5.472  14.091  0.00  0.00    +0.000 N 
ATOM     20  O   UNL     1       7.727   4.420  16.081  0.00  0.00    +0.000 OA
ATOM     21  H   UNL     1       7.207   5.855  13.308  0.00  0.00    +0.000 HD
ATOM     22  H   UNL     1       8.675   5.178  13.942  0.00  0.00    +0.000 HD
ENDBRANCH  15  18
ENDBRANCH   9  12
BRANCH   1  24
ATOM     23  C   UNL     1       1.223  10.665  18.547  0.00  0.00    +0.000 C 
ATOM     24  O   UNL     1       2.096   9.588  18.230  0.00  0.00    +0.000 OA
ENDBRANCH   1  24
TORSDOF 3
ENDMDL
MODEL 4
REMARK VINA RESULT:      -7.3      2.002      3.861
REMARK  Name = 
REMARK  5 active torsions:
REMARK  status: ('A' for Active; 'I' for Inactive)
REMARK    1  A    between atoms: C_1  and  O_2
REMARK    2  A    between atoms: O_2  and  C_3
REMARK    3  A    between atoms: C_8  and  C_9
REMARK    4  A    between atoms: C_11  and  N_12
REMARK    5  A    between atoms: C_15  and  C_16
REMARK                            x       y       z     vdW  Elec       q    Type
REMARK                         _______ _______ _______ _____ _____    ______ ____
ROOT
ATOM      1  C   UNL     1       2.176   8.621  18.490  0.00  0.00    +0.000 A 
ATOM      2  C   UNL     1       1.387   8.614  19.625  0.00  0.00    +0.000 A 
ATOM      3  C   UNL     1       1.335   7.457  20.406  0.00  0.00    +0.000 A 
ATOM      4  C   UNL     1       2.083   6.323  20.112  0.00  0.00    +0.000 A 
ATOM      5  N   UNL     1       1.932   5.274  20.927  0.00  0.00    +0.000 NA
ATOM      6  C   UNL     1       2.642   4.161  20.671  0.00  0.00    +0.000 A 
ATOM      7  C   UNL     1       2.405   2.979  21.564  0.00  0.00    +0.000 C 
ATOM      8  C   UNL     1       3.553   4.079  19.625  0.00  0.00    +0.000 A 
ATOM      9  C   UNL     1       3.735   5.152  18.739  0.00  0.00    +0.000 A 
ATOM     10  C   UNL     1       2.934   6.318  18.980  0.00  0.00    +0.000 A 
ATOM     11  C   UNL     1       2.887   7.469  18.158  0.00  0.00    +0.000 A 
ENDROOT
BRANCH   9  12
ATOM     12  N   UNL     1       4.640   5.035  17.683  0.00  0.00    +0.000 N 
ATOM     13  C   UNL     1       4.302   4.418  16.399  0.00  0.00    +0.000 C 
ATOM     14  C   UNL     1       5.360   3.345  16.107  0.00  0.00    +0.000 C 
ATOM     15  C   UNL     1       6.775   3.946  16.092  0.00  0.00    +0.000 C 
ATOM     16  C   UNL     1       7.032   4.814  17.336  0.00  0.00    +0.000 C 
ATOM     17  C   UNL     1       5.895   5.794  17.637  0.00  0.00    +0.000 C 
BRANCH  15  18
ATOM     18  C   UNL     1       7.019   4.709  14.801  0.00  0.00    +0.000 C 
ATOM     19  N   UNL     1       6.312   4.253  13.724  0.00  0.00    +0.000 N 
ATOM     20  O   UNL     1       7.776   5.663  14.689  0.00  0.00    +0.000 OA
ATOM     21  H   UNL     1       5.809   3.377  13.733  0.00  0.00    +0.000 HD
ATOM     22  H   UNL     1       6.484   4.700  12.833  0.00  0.00    +0.000 HD
ENDBRANCH  15  18
ENDBRANCH   9  12
BRANCH   1  24
ATOM     23  C   UNL     1       1.887  10.928  18.102  0.00  0.00    +0.000 C 
ATOM     24  O   UNL     1       2.317   9.662  17.617  0.00  0.00    +0.000 OA
ENDBRANCH   1  24
TORSDOF 3
ENDMDL
MODEL 5
REMARK VINA RESULT:      -7.1      2.683      6.430
REMARK  Name = 
REMARK  5 active torsions:
REMARK  status: ('A' for Active; 'I' for Inactive)
REMARK    1  A    between atoms: C_1  and  O_2
REMARK    2  A    between atoms: O_2  and  C_3
REMARK    3  A    between atoms: C_8  and  C_9
REMARK    4  A    between atoms: C_11  and  N_12
REMARK    5  A    between atoms: C_15  and  C_16
REMARK                            x       y       z     vdW  Elec       q    Type
REMARK                         _______ _______ _______ _____ _____    ______ ____
ROOT
ATOM      1  C   UNL     1       5.489   3.970  13.695  0.00  0.00    +0.000 A 
ATOM      2  C   UNL     1       6.702   4.554  13.381  0.00  0.00    +0.000 A 
ATOM      3  C   UNL     1       7.402   5.239  14.376  0.00  0.00    +0.000 A 
ATOM      4  C   UNL     1       6.949   5.321  15.687  0.00  0.00    +0.000 A 
ATOM      5  N   UNL     1       7.702   6.021  16.542  0.00  0.00    +0.000 NA
ATOM      6  C   UNL     1       7.291   6.118  17.819  0.00  0.00    +0.000 A 
ATOM      7  C   UNL     1       8.121   6.963  18.740  0.00  0.00    +0.000 C 
ATOM      8  C   UNL     1       6.147   5.484  18.288  0.00  0.00    +0.000 A 
ATOM      9  C   UNL     1       5.323   4.748  17.423  0.00  0.00    +0.000 A 
ATOM     10  C   UNL     1       5.731   4.694  16.049  0.00  0.00    +0.000 A 
ATOM     11  C   UNL     1       5.002   4.093  14.996  0.00  0.00    +0.000 A 
ENDROOT
BRANCH   9  12
ATOM     12  N   UNL     1       4.167   4.140  17.916  0.00  0.00    +0.000 N 
ATOM     13  C   UNL     1       3.398   4.671  19.044  0.00  0.00    +0.000 C 
ATOM     14  C   UNL     1       3.224   3.535  20.061  0.00  0.00    +0.000 C 
ATOM     15  C   UNL     1       2.534   2.318  19.426  0.00  0.00    +0.000 C 
ATOM     16  C   UNL     1       3.196   1.923  18.095  0.00  0.00    +0.000 C 
ATOM     17  C   UNL     1       3.438   3.114  17.163  0.00  0.00    +0.000 C 
BRANCH  15  18
ATOM     18  C   UNL     1       1.043   2.569  19.272  0.00  0.00    +0.000 C 
ATOM     19  N   UNL     1       0.477   3.296  20.280  0.00  0.00    +0.000 N 
ATOM     20  O   UNL     1       0.364   2.172  18.334  0.00  0.00    +0.000 OA
ATOM     21  H   UNL     1       0.959   3.498  21.144  0.00  0.00    +0.000 HD
ATOM     22  H   UNL     1      -0.523   3.442  20.243  0.00  0.00    +0.000 HD
ENDBRANCH  15  18
ENDBRANCH   9  12
BRANCH   1  24
ATOM     23  C   UNL     1       5.345   2.633  11.760  0.00  0.00    +0.000 C 
ATOM     24  O   UNL     1       4.680   3.285  12.835  0.00  0.00    +0.000 OA
ENDBRANCH   1  24
TORSDOF 3
ENDMDL
MODEL 6
REMARK VINA RESULT:      -7.0      2.806      6.391
REMARK  Name = 
REMARK  5 active torsions:
REMARK  status: ('A' for Active; 'I' for Inactive)
REMARK    1  A    between atoms: C_1  and  O_2
REMARK    2  A    between atoms: O_2  and  C_3
REMARK    3  A    between atoms: C_8  and  C_9
REMARK    4  A    between atoms: C_11  and  N_12
REMARK    5  A    between atoms: C_15  and  C_16
REMARK                            x       y       z     vdW  Elec       q    Type
REMARK                         _______ _______ _______ _____ _____    ______ ____
ROOT
ATOM      1  C   UNL     1       5.684   6.021  17.386  0.00  0.00    +0.000 A 
ATOM      2  C   UNL     1       5.872   4.654  17.457  0.00  0.00    +0.000 A 
ATOM      3  C   UNL     1       4.993   3.887  18.225  0.00  0.00    +0.000 A 
ATOM      4  C   UNL     1       3.905   4.441  18.890  0.00  0.00    +0.000 A 
ATOM      5  N   UNL     1       3.148   3.604  19.607  0.00  0.00    +0.000 NA
ATOM      6  C   UNL     1       2.086   4.108  20.261  0.00  0.00    +0.000 A 
ATOM      7  C   UNL     1       1.293   3.158  21.109  0.00  0.00    +0.000 C 
ATOM      8  C   UNL     1       1.725   5.447  20.181  0.00  0.00    +0.000 A 
ATOM      9  C   UNL     1       2.497   6.362  19.448  0.00  0.00    +0.000 A 
ATOM     10  C   UNL     1       3.661   5.833  18.799  0.00  0.00    +0.000 A 
ATOM     11  C   UNL     1       4.627   6.591  18.094  0.00  0.00    +0.000 A 
ENDROOT
BRANCH   9  12
ATOM     12  N   UNL     1       2.123   7.707  19.404  0.00  0.00    +0.000 N 
ATOM     13  C   UNL     1       1.773   8.484  20.595  0.00  0.00    +0.000 C 
ATOM     14  C   UNL     1       0.405   9.131  20.340  0.00  0.00    +0.000 C 
ATOM     15  C   UNL     1       0.429  10.007  19.078  0.00  0.00    +0.000 C 
ATOM     16  C   UNL     1       1.044   9.259  17.882  0.00  0.00    +0.000 C 
ATOM     17  C   UNL     1       2.356   8.547  18.224  0.00  0.00    +0.000 C 
BRANCH  15  18
ATOM     18  C   UNL     1       1.135  11.324  19.354  0.00  0.00    +0.000 C 
ATOM     19  N   UNL     1       1.654  11.938  18.249  0.00  0.00    +0.000 N 
ATOM     20  O   UNL     1       1.251  11.833  20.461  0.00  0.00    +0.000 OA
ATOM     21  H   UNL     1       1.725  11.479  17.352  0.00  0.00    +0.000 HD
ATOM     22  H   UNL     1       2.177  12.792  18.395  0.00  0.00    +0.000 HD
ENDBRANCH  15  18
ENDBRANCH   9  12
BRANCH   1  24
ATOM     23  C   UNL     1       7.509   7.512  17.447  0.00  0.00    +0.000 C 
ATOM     24  O   UNL     1       6.464   6.905  16.696  0.00  0.00    +0.000 OA
ENDBRANCH   1  24
TORSDOF 3
ENDMDL
MODEL 7
REMARK VINA RESULT:      -7.0      2.759      6.519
REMARK  Name = 
REMARK  5 active torsions:
REMARK  status: ('A' for Active; 'I' for Inactive)
REMARK    1  A    between atoms: C_1  and  O_2
REMARK    2  A    between atoms: O_2  and  C_3
REMARK    3  A    between atoms: C_8  and  C_9
REMARK    4  A    between atoms: C_11  and  N_12
REMARK    5  A    between atoms: C_15  and  C_16
REMARK                            x       y       z     vdW  Elec       q    Type
REMARK                         _______ _______ _______ _____ _____    ______ ____
ROOT
ATOM      1  C   UNL     1       5.999   6.505  16.869  0.00  0.00    +0.000 A 
ATOM      2  C   UNL     1       6.177   5.194  16.471  0.00  0.00    +0.000 A 
ATOM      3  C   UNL     1       5.190   4.253  16.775  0.00  0.00    +0.000 A 
ATOM      4  C   UNL     1       4.009   4.593  17.425  0.00  0.00    +0.000 A 
ATOM      5  N   UNL     1       3.151   3.598  17.674  0.00  0.00    +0.000 NA
ATOM      6  C   UNL     1       1.999   3.893  18.301  0.00  0.00    +0.000 A 
ATOM      7  C   UNL     1       1.085   2.749  18.625  0.00  0.00    +0.000 C 
ATOM      8  C   UNL     1       1.651   5.191  18.655  0.00  0.00    +0.000 A 
ATOM      9  C   UNL     1       2.526   6.263  18.422  0.00  0.00    +0.000 A 
ATOM     10  C   UNL     1       3.780   5.938  17.805  0.00  0.00    +0.000 A 
ATOM     11  C   UNL     1       4.842   6.843  17.570  0.00  0.00    +0.000 A 
ENDROOT
BRANCH   9  12
ATOM     12  N   UNL     1       2.161   7.554  18.809  0.00  0.00    +0.000 N 
ATOM     13  C   UNL     1       2.003   7.960  20.207  0.00  0.00    +0.000 C 
ATOM     14  C   UNL     1       0.617   8.604  20.348  0.00  0.00    +0.000 C 
ATOM     15  C   UNL     1       0.455   9.795  19.390  0.00  0.00    +0.000 C 
ATOM     16  C   UNL     1       0.875   9.428  17.957  0.00  0.00    +0.000 C 
ATOM     17  C   UNL     1       2.218   8.695  17.888  0.00  0.00    +0.000 C 
BRANCH  15  18
ATOM     18  C   UNL     1       1.205  11.009  19.914  0.00  0.00    +0.000 C 
ATOM     19  N   UNL     1       1.691  11.843  18.946  0.00  0.00    +0.000 N 
ATOM     20  O   UNL     1       1.383  11.260  21.098  0.00  0.00    +0.000 OA
ATOM     21  H   UNL     1       1.711  11.591  17.968  0.00  0.00    +0.000 HD
ATOM     22  H   UNL     1       2.241  12.636  19.250  0.00  0.00    +0.000 HD
ENDBRANCH  15  18
ENDBRANCH   9  12
BRANCH   1  24
ATOM     23  C   UNL     1       7.750   7.812  17.752  0.00  0.00    +0.000 C 
ATOM     24  O   UNL     1       6.875   7.533  16.666  0.00  0.00    +0.000 OA
ENDBRANCH   1  24
TORSDOF 3
ENDMDL
MODEL 8
REMARK VINA RESULT:      -6.9      0.923      1.006
REMARK  Name = 
REMARK  5 active torsions:
REMARK  status: ('A' for Active; 'I' for Inactive)
REMARK    1  A    between atoms: C_1  and  O_2
REMARK    2  A    between atoms: O_2  and  C_3
REMARK    3  A    between atoms: C_8  and  C_9
REMARK    4  A    between atoms: C_11  and  N_12
REMARK    5  A    between atoms: C_15  and  C_16
REMARK                            x       y       z     vdW  Elec       q    Type
REMARK                         _______ _______ _______ _____ _____    ______ ____
ROOT
ATOM      1  C   UNL     1       3.627   3.407  19.657  0.00  0.00    +0.000 A 
ATOM      2  C   UNL     1       2.630   3.922  20.464  0.00  0.00    +0.000 A 
ATOM      3  C   UNL     1       2.201   5.235  20.257  0.00  0.00    +0.000 A 
ATOM      4  C   UNL     1       2.707   6.034  19.239  0.00  0.00    +0.000 A 
ATOM      5  N   UNL     1       2.227   7.279  19.156  0.00  0.00    +0.000 NA
ATOM      6  C   UNL     1       2.695   8.079  18.181  0.00  0.00    +0.000 A 
ATOM      7  C   UNL     1       2.187   9.490  18.151  0.00  0.00    +0.000 C 
ATOM      8  C   UNL     1       3.618   7.645  17.236  0.00  0.00    +0.000 A 
ATOM      9  C   UNL     1       4.155   6.349  17.292  0.00  0.00    +0.000 A 
ATOM     10  C   UNL     1       3.698   5.518  18.368  0.00  0.00    +0.000 A 
ATOM     11  C   UNL     1       4.178   4.221  18.668  0.00  0.00    +0.000 A 
ENDROOT
BRANCH   9  12
ATOM     12  N   UNL     1       5.097   5.948  16.343  0.00  0.00    +0.000 N 
ATOM     13  C   UNL     1       4.755   5.625  14.957  0.00  0.00    +0.000 C 
ATOM     14  C   UNL     1       5.332   4.236  14.650  0.00  0.00    +0.000 C 
ATOM     15  C   UNL     1       6.850   4.197  14.883  0.00  0.00    +0.000 C 
ATOM     16  C   UNL     1       7.225   4.784  16.254  0.00  0.00    +0.000 C 
ATOM     17  C   UNL     1       6.540   6.121  16.549  0.00  0.00    +0.000 C 
BRANCH  15  18
ATOM     18  C   UNL     1       7.584   4.886  13.745  0.00  0.00    +0.000 C 
ATOM     19  N   UNL     1       7.257   4.435  12.497  0.00  0.00    +0.000 N 
ATOM     20  O   UNL     1       8.409   5.778  13.888  0.00  0.00    +0.000 OA
ATOM     21  H   UNL     1       6.713   3.599  12.344  0.00  0.00    +0.000 HD
ATOM     22  H   UNL     1       7.761   4.831  11.714  0.00  0.00    +0.000 HD
ENDBRANCH  15  18
ENDBRANCH   9  12
BRANCH   1  24
ATOM     23  C   UNL     1       3.767   1.248  18.724  0.00  0.00    +0.000 C 
ATOM     24  O   UNL     1       4.166   2.155  19.744  0.00  0.00    +0.000 OA
ENDBRANCH   1  24
TORSDOF 3
ENDMDL
MODEL 9
REMARK VINA RESULT:      -6.9      2.709      6.225
REMARK  Name = 
REMARK  5 active torsions:
REMARK  status: ('A' for Active; 'I' for Inactive)
REMARK    1  A    between atoms: C_1  and  O_2
REMARK    2  A    between atoms: O_2  and  C_3
REMARK    3  A    between atoms: C_8  and  C_9
REMARK    4  A    between atoms: C_11  and  N_12
REMARK    5  A    between atoms: C_15  and  C_16
REMARK                            x       y       z     vdW  Elec       q    Type
REMARK                         _______ _______ _______ _____ _____    ______ ____
ROOT
ATOM      1  C   UNL     1       4.870   5.343  16.515  0.00  0.00    +0.000 A 
ATOM      2  C   UNL     1       4.992   3.978  16.693  0.00  0.00    +0.000 A 
ATOM      3  C   UNL     1       4.344   3.374  17.772  0.00  0.00    +0.000 A 
ATOM      4  C   UNL     1       3.540   4.087  18.654  0.00  0.00    +0.000 A 
ATOM      5  N   UNL     1       2.987   3.397  19.657  0.00  0.00    +0.000 NA
ATOM      6  C   UNL     1       2.203   4.057  20.527  0.00  0.00    +0.000 A 
ATOM      7  C   UNL     1       1.649   3.271  21.679  0.00  0.00    +0.000 C 
ATOM      8  C   UNL     1       1.911   5.409  20.395  0.00  0.00    +0.000 A 
ATOM      9  C   UNL     1       2.477   6.173  19.363  0.00  0.00    +0.000 A 
ATOM     10  C   UNL     1       3.360   5.480  18.470  0.00  0.00    +0.000 A 
ATOM     11  C   UNL     1       4.109   6.074  17.427  0.00  0.00    +0.000 A 
ENDROOT
BRANCH   9  12
ATOM     12  N   UNL     1       2.185   7.535  19.267  0.00  0.00    +0.000 N 
ATOM     13  C   UNL     1       1.830   8.365  20.421  0.00  0.00    +0.000 C 
ATOM     14  C   UNL     1       0.515   9.082  20.089  0.00  0.00    +0.000 C 
ATOM     15  C   UNL     1       0.643   9.919  18.807  0.00  0.00    +0.000 C 
ATOM     16  C   UNL     1       1.264   9.103  17.660  0.00  0.00    +0.000 C 
ATOM     17  C   UNL     1       2.517   8.327  18.077  0.00  0.00    +0.000 C 
BRANCH  15  18
ATOM     18  C   UNL     1       1.413  11.201  19.080  0.00  0.00    +0.000 C 
ATOM     19  N   UNL     1       2.133  11.673  18.019  0.00  0.00    +0.000 N 
ATOM     20  O   UNL     1       1.414  11.797  20.148  0.00  0.00    +0.000 OA
ATOM     21  H   UNL     1       2.291  11.131  17.182  0.00  0.00    +0.000 HD
ATOM     22  H   UNL     1       2.701  12.496  18.173  0.00  0.00    +0.000 HD
ENDBRANCH  15  18
ENDBRANCH   9  12
BRANCH   1  24
ATOM     23  C   UNL     1       6.497   5.426  14.811  0.00  0.00    +0.000 C 
ATOM     24  O   UNL     1       5.455   6.081  15.525  0.00  0.00    +0.000 OA
ENDBRANCH   1  24
TORSDOF 3
ENDMDL
