MODEL 1
REMARK VINA RESULT:      -7.3      0.000      0.000
REMARK  Name = 
REMARK  5 active torsions:
REMARK  status: ('A' for Active; 'I' for Inactive)
REMARK    1  A    between atoms: C_2  and  C_10
REMARK    2  A    between atoms: N_3  and  C_4
REMARK    3  A    between atoms: N_13  and  C_14
REMARK    4  A    between atoms: C_14  and  C_15
REMARK    5  A    between atoms: C_18  and  C_19
REMARK                            x       y       z     vdW  Elec       q    Type
REMARK                         _______ _______ _______ _____ _____    ______ ____
ROOT
ATOM      1  C   UNL     1       7.481   6.199  17.647  0.00  0.00    +0.000 C 
ATOM      2  C   UNL     1       7.024   5.684  19.009  0.00  0.00    +0.000 C 
ATOM      3  C   UNL     1       5.544   5.314  18.976  0.00  0.00    +0.000 C 
ATOM      4  N   UNL     1       4.714   6.488  18.666  0.00  0.00    +0.000 NA
ATOM      5  C   UNL     1       5.107   7.106  17.386  0.00  0.00    +0.000 C 
ATOM      6  C   UNL     1       6.611   7.417  17.297  0.00  0.00    +0.000 C 
ENDROOT
BRANCH   1   8
ATOM      7  O   UNL     1       7.860   3.999  16.726  0.00  0.00    +0.000 OA
ATOM      8  C   UNL     1       7.414   5.128  16.542  0.00  0.00    +0.000 C 
ATOM      9  N   UNL     1       6.817   5.572  15.371  0.00  0.00    +0.000 N 
ATOM     10  H   UNL     1       6.543   6.544  15.323  0.00  0.00    +0.000 HD
BRANCH   9  11
ATOM     11  C   UNL     1       6.720   4.856  14.159  0.00  0.00    +0.000 A 
ATOM     12  C   UNL     1       7.637   4.980  13.113  0.00  0.00    +0.000 A 
ATOM     13  C   UNL     1       7.448   4.281  11.920  0.00  0.00    +0.000 A 
ATOM     14  C   UNL     1       6.338   3.453  11.761  0.00  0.00    +0.000 A 
ATOM     15  C   UNL     1       5.432   3.302  12.801  0.00  0.00    +0.000 A 
ATOM     16  C   UNL     1       5.629   3.992  14.006  0.00  0.00    +0.000 A 
ENDBRANCH   9  11
ENDBRANCH   1   8
BRANCH   4  17
ATOM     17  C   UNL     1       3.279   6.121  18.614  0.00  0.00    +0.000 C 
BRANCH  17  18
ATOM     18  C   UNL     1       2.420   7.070  19.398  0.00  0.00    +0.000 A 
ATOM     19  C   UNL     1       1.786   6.880  20.609  0.00  0.00    +0.000 A 
ATOM     20  N   UNL     1       0.977   7.919  21.035  0.00  0.00    +0.000 NA
ATOM     21  C   UNL     1       0.995   8.896  20.144  0.00  0.00    +0.000 A 
ATOM     22  S   UNL     1       2.043   8.631  18.798  0.00  0.00    +0.000 S 
BRANCH  21  23
ATOM     23  C   UNL     1       0.182  10.166  20.199  0.00  0.00    +0.000 C 
ATOM     24  O   UNL     1       0.903  11.206  19.518  0.00  0.00    +0.000 OA
ATOM     25  C   UNL     1      -0.057  11.789  18.645  0.00  0.00    +0.000 C 
ATOM     26  C   UNL     1      -0.995  10.658  18.329  0.00  0.00    +0.000 C 
ATOM     27  O   UNL     1      -1.089   9.944  19.561  0.00  0.00    +0.000 OA
ENDBRANCH  21  23
ENDBRANCH  17  18
ENDBRANCH   4  17
TORSDOF 5
ENDMDL
MODEL 2
REMARK VINA RESULT:      -7.2      3.111      9.633
REMARK  Name = 
REMARK  5 active torsions:
REMARK  status: ('A' for Active; 'I' for Inactive)
REMARK    1  A    between atoms: C_2  and  C_10
REMARK    2  A    between atoms: N_3  and  C_4
REMARK    3  A    between atoms: N_13  and  C_14
REMARK    4  A    between atoms: C_14  and  C_15
REMARK    5  A    between atoms: C_18  and  C_19
REMARK                            x       y       z     vdW  Elec       q    Type
REMARK                         _______ _______ _______ _____ _____    ______ ____
ROOT
ATOM      1  C   UNL     1       0.496  12.061  19.887  0.00  0.00    +0.000 C 
ATOM      2  C   UNL     1       1.843  12.082  19.170  0.00  0.00    +0.000 C 
ATOM      3  C   UNL     1       1.937  10.937  18.165  0.00  0.00    +0.000 C 
ATOM      4  N   UNL     1       1.836   9.635  18.841  0.00  0.00    +0.000 NA
ATOM      5  C   UNL     1       0.587   9.523  19.618  0.00  0.00    +0.000 C 
ATOM      6  C   UNL     1       0.364  10.698  20.585  0.00  0.00    +0.000 C 
ENDROOT
BRANCH   1   8
ATOM      7  O   UNL     1      -0.609  13.134  18.026  0.00  0.00    +0.000 OA
ATOM      8  C   UNL     1      -0.694  12.325  18.946  0.00  0.00    +0.000 C 
ATOM      9  N   UNL     1      -1.821  11.573  19.248  0.00  0.00    +0.000 N 
ATOM     10  H   UNL     1      -1.786  10.983  20.068  0.00  0.00    +0.000 HD
BRANCH   9  11
ATOM     11  C   UNL     1      -3.087  11.684  18.637  0.00  0.00    +0.000 A 
ATOM     12  C   UNL     1      -4.210  12.215  19.276  0.00  0.00    +0.000 A 
ATOM     13  C   UNL     1      -5.446  12.243  18.629  0.00  0.00    +0.000 A 
ATOM     14  C   UNL     1      -5.572  11.736  17.336  0.00  0.00    +0.000 A 
ATOM     15  C   UNL     1      -4.460  11.227  16.680  0.00  0.00    +0.000 A 
ATOM     16  C   UNL     1      -3.215  11.213  17.324  0.00  0.00    +0.000 A 
ENDBRANCH   9  11
ENDBRANCH   1   8
BRANCH   4  17
ATOM     17  C   UNL     1       1.906   8.524  17.861  0.00  0.00    +0.000 C 
BRANCH  17  18
ATOM     18  C   UNL     1       2.649   7.337  18.400  0.00  0.00    +0.000 A 
ATOM     19  C   UNL     1       2.446   6.634  19.570  0.00  0.00    +0.000 A 
ATOM     20  N   UNL     1       3.366   5.637  19.841  0.00  0.00    +0.000 NA
ATOM     21  C   UNL     1       4.270   5.585  18.878  0.00  0.00    +0.000 A 
ATOM     22  S   UNL     1       4.003   6.686  17.574  0.00  0.00    +0.000 S 
BRANCH  21  23
ATOM     23  C   UNL     1       5.484   4.691  18.842  0.00  0.00    +0.000 C 
ATOM     24  O   UNL     1       5.979   4.637  17.493  0.00  0.00    +0.000 OA
ATOM     25  C   UNL     1       7.376   4.881  17.620  0.00  0.00    +0.000 C 
ATOM     26  C   UNL     1       7.484   5.752  18.840  0.00  0.00    +0.000 C 
ATOM     27  O   UNL     1       6.493   5.223  19.720  0.00  0.00    +0.000 OA
ENDBRANCH  21  23
ENDBRANCH  17  18
ENDBRANCH   4  17
TORSDOF 5
ENDMDL
MODEL 3
REMARK VINA RESULT:      -7.1      1.102      1.647
REMARK  Name = 
REMARK  5 active torsions:
REMARK  status: ('A' for Active; 'I' for Inactive)
REMARK    1  A    between atoms: C_2  and  C_10
REMARK    2  A    between atoms: N_3  and  C_4
REMARK    3  A    between atoms: N_13  and  C_14
REMARK    4  A    between atoms: C_14  and  C_15
REMARK    5  A    between atoms: C_18  and  C_19
REMARK                            x       y       z     vdW  Elec       q    Type
REMARK                         _______ _______ _______ _____ _____    ______ ____
ROOT
ATOM      1  C   UNL     1       7.525   6.221  17.743  0.00  0.00    +0.000 C 
ATOM      2  C   UNL     1       7.105   5.679  19.106  0.00  0.00    +0.000 C 
ATOM      3  C   UNL     1       5.626   5.303  19.105  0.00  0.00    +0.000 C 
ATOM      4  N   UNL     1       4.785   6.479  18.838  0.00  0.00    +0.000 NA
ATOM      5  C   UNL     1       5.143   7.123  17.560  0.00  0.00    +0.000 C 
ATOM      6  C   UNL     1       6.643   7.442  17.438  0.00  0.00    +0.000 C 
ENDROOT
BRANCH   1   8
ATOM      7  O   UNL     1       7.914   4.049  16.761  0.00  0.00    +0.000 OA
ATOM      8  C   UNL     1       7.434   5.171  16.620  0.00  0.00    +0.000 C 
ATOM      9  N   UNL     1       6.775   5.623  15.486  0.00  0.00    +0.000 N 
ATOM     10  H   UNL     1       6.476   6.589  15.471  0.00  0.00    +0.000 HD
BRANCH   9  11
ATOM     11  C   UNL     1       6.640   4.929  14.266  0.00  0.00    +0.000 A 
ATOM     12  C   UNL     1       5.632   3.996  14.015  0.00  0.00    +0.000 A 
ATOM     13  C   UNL     1       5.592   3.305  12.803  0.00  0.00    +0.000 A 
ATOM     14  C   UNL     1       6.564   3.539  11.831  0.00  0.00    +0.000 A 
ATOM     15  C   UNL     1       7.558   4.481  12.057  0.00  0.00    +0.000 A 
ATOM     16  C   UNL     1       7.589   5.186  13.268  0.00  0.00    +0.000 A 
ENDBRANCH   9  11
ENDBRANCH   1   8
BRANCH   4  17
ATOM     17  C   UNL     1       3.350   6.108  18.816  0.00  0.00    +0.000 C 
BRANCH  17  18
ATOM     18  C   UNL     1       2.452   7.309  18.739  0.00  0.00    +0.000 A 
ATOM     19  C   UNL     1       2.104   8.072  17.644  0.00  0.00    +0.000 A 
ATOM     20  N   UNL     1       1.329   9.187  17.908  0.00  0.00    +0.000 NA
ATOM     21  C   UNL     1       1.091   9.271  19.206  0.00  0.00    +0.000 A 
ATOM     22  S   UNL     1       1.731   7.972  20.146  0.00  0.00    +0.000 S 
BRANCH  21  23
ATOM     23  C   UNL     1       0.354  10.385  19.906  0.00  0.00    +0.000 C 
ATOM     24  O   UNL     1       1.169  10.872  20.987  0.00  0.00    +0.000 OA
ATOM     25  C   UNL     1       1.157  12.286  20.829  0.00  0.00    +0.000 C 
ATOM     26  C   UNL     1       0.989  12.485  19.348  0.00  0.00    +0.000 C 
ATOM     27  O   UNL     1       0.090  11.444  18.969  0.00  0.00    +0.000 OA
ENDBRANCH  21  23
ENDBRANCH  17  18
ENDBRANCH   4  17
TORSDOF 5
ENDMDL
MODEL 4
REMARK VINA RESULT:      -7.0      1.300      1.763
REMARK  Name = 
REMARK  5 active torsions:
REMARK  status: ('A' for Active; 'I' for Inactive)
REMARK    1  A    between atoms: C_2  and  C_10
REMARK    2  A    between atoms: N_3  and  C_4
REMARK    3  A    between atoms: N_13  and  C_14
REMARK    4  A    between atoms: C_14  and  C_15
REMARK    5  A    between atoms: C_18  and  C_19
REMARK                            x       y       z     vdW  Elec       q    Type
REMARK                         _______ _______ _______ _____ _____    ______ ____
ROOT
ATOM      1  C   UNL     1       7.324   6.066  17.805  0.00  0.00    +0.000 C 
ATOM      2  C   UNL     1       6.614   5.584  19.066  0.00  0.00    +0.000 C 
ATOM      3  C   UNL     1       5.121   5.399  18.807  0.00  0.00    +0.000 C 
ATOM      4  N   UNL     1       4.491   6.671  18.426  0.00  0.00    +0.000 NA
ATOM      5  C   UNL     1       5.139   7.262  17.239  0.00  0.00    +0.000 C 
ATOM      6  C   UNL     1       6.666   7.389  17.379  0.00  0.00    +0.000 C 
ENDROOT
BRANCH   1   8
ATOM      7  O   UNL     1       7.749   3.904  16.817  0.00  0.00    +0.000 OA
ATOM      8  C   UNL     1       7.294   5.034  16.662  0.00  0.00    +0.000 C 
ATOM      9  N   UNL     1       6.718   5.512  15.494  0.00  0.00    +0.000 N 
ATOM     10  H   UNL     1       6.434   6.482  15.473  0.00  0.00    +0.000 HD
BRANCH   9  11
ATOM     11  C   UNL     1       6.657   4.838  14.256  0.00  0.00    +0.000 A 
ATOM     12  C   UNL     1       7.593   5.011  13.234  0.00  0.00    +0.000 A 
ATOM     13  C   UNL     1       7.439   4.352  12.014  0.00  0.00    +0.000 A 
ATOM     14  C   UNL     1       6.344   3.515  11.803  0.00  0.00    +0.000 A 
ATOM     15  C   UNL     1       5.418   3.316  12.818  0.00  0.00    +0.000 A 
ATOM     16  C   UNL     1       5.581   3.965  14.049  0.00  0.00    +0.000 A 
ENDBRANCH   9  11
ENDBRANCH   1   8
BRANCH   4  17
ATOM     17  C   UNL     1       3.046   6.484  18.154  0.00  0.00    +0.000 C 
BRANCH  17  18
ATOM     18  C   UNL     1       2.233   7.683  18.549  0.00  0.00    +0.000 A 
ATOM     19  C   UNL     1       1.609   8.619  17.751  0.00  0.00    +0.000 A 
ATOM     20  N   UNL     1       1.011   9.675  18.414  0.00  0.00    +0.000 NA
ATOM     21  C   UNL     1       1.185   9.543  19.719  0.00  0.00    +0.000 A 
ATOM     22  S   UNL     1       2.011   8.103  20.196  0.00  0.00    +0.000 S 
BRANCH  21  23
ATOM     23  C   UNL     1       0.757  10.526  20.779  0.00  0.00    +0.000 C 
ATOM     24  O   UNL     1      -0.680  10.572  20.813  0.00  0.00    +0.000 OA
ATOM     25  C   UNL     1      -1.004  10.441  22.193  0.00  0.00    +0.000 C 
ATOM     26  C   UNL     1       0.124   9.623  22.755  0.00  0.00    +0.000 C 
ATOM     27  O   UNL     1       1.270  10.103  22.055  0.00  0.00    +0.000 OA
ENDBRANCH  21  23
ENDBRANCH  17  18
ENDBRANCH   4  17
TORSDOF 5
ENDMDL
MODEL 5
REMARK VINA RESULT:      -6.9      3.097      9.694
REMARK  Name = 
REMARK  5 active torsions:
REMARK  status: ('A' for Active; 'I' for Inactive)
REMARK    1  A    between atoms: C_2  and  C_10
REMARK    2  A    between atoms: N_3  and  C_4
REMARK    3  A    between atoms: N_13  and  C_14
REMARK    4  A    between atoms: C_14  and  C_15
REMARK    5  A    between atoms: C_18  and  C_19
REMARK                            x       y       z     vdW  Elec       q    Type
REMARK                         _______ _______ _______ _____ _____    ______ ____
ROOT
ATOM      1  C   UNL     1      -1.009  11.378  19.574  0.00  0.00    +0.000 C 
ATOM      2  C   UNL     1       0.135  10.872  20.448  0.00  0.00    +0.000 C 
ATOM      3  C   UNL     1       1.314  10.427  19.588  0.00  0.00    +0.000 C 
ATOM      4  N   UNL     1       0.932   9.317  18.704  0.00  0.00    +0.000 NA
ATOM      5  C   UNL     1      -0.211   9.676  17.844  0.00  0.00    +0.000 C 
ATOM      6  C   UNL     1      -1.412  10.234  18.629  0.00  0.00    +0.000 C 
ENDROOT
BRANCH   1   8
ATOM      7  O   UNL     1      -0.990  12.791  17.616  0.00  0.00    +0.000 OA
ATOM      8  C   UNL     1      -0.652  12.653  18.788  0.00  0.00    +0.000 C 
ATOM      9  N   UNL     1       0.064  13.582  19.529  0.00  0.00    +0.000 N 
ATOM     10  H   UNL     1       0.333  13.326  20.469  0.00  0.00    +0.000 HD
BRANCH   9  11
ATOM     11  C   UNL     1       0.623  14.784  19.046  0.00  0.00    +0.000 A 
ATOM     12  C   UNL     1      -0.118  15.947  18.824  0.00  0.00    +0.000 A 
ATOM     13  C   UNL     1       0.492  17.084  18.292  0.00  0.00    +0.000 A 
ATOM     14  C   UNL     1       1.849  17.067  17.973  0.00  0.00    +0.000 A 
ATOM     15  C   UNL     1       2.603  15.926  18.210  0.00  0.00    +0.000 A 
ATOM     16  C   UNL     1       1.994  14.789  18.760  0.00  0.00    +0.000 A 
ENDBRANCH   9  11
ENDBRANCH   1   8
BRANCH   4  17
ATOM     17  C   UNL     1       2.073   8.900  17.854  0.00  0.00    +0.000 C 
BRANCH  17  18
ATOM     18  C   UNL     1       2.712   7.632  18.340  0.00  0.00    +0.000 A 
ATOM     19  C   UNL     1       2.409   6.868  19.448  0.00  0.00    +0.000 A 
ATOM     20  N   UNL     1       3.248   5.796  19.689  0.00  0.00    +0.000 NA
ATOM     21  C   UNL     1       4.194   5.749  18.766  0.00  0.00    +0.000 A 
ATOM     22  S   UNL     1       4.062   6.950  17.532  0.00  0.00    +0.000 S 
BRANCH  21  23
ATOM     23  C   UNL     1       5.349   4.780  18.721  0.00  0.00    +0.000 C 
ATOM     24  O   UNL     1       5.922   4.804  17.403  0.00  0.00    +0.000 OA
ATOM     25  C   UNL     1       7.321   4.940  17.629  0.00  0.00    +0.000 C 
ATOM     26  C   UNL     1       7.408   5.699  18.924  0.00  0.00    +0.000 C 
ATOM     27  O   UNL     1       6.333   5.168  19.697  0.00  0.00    +0.000 OA
ENDBRANCH  21  23
ENDBRANCH  17  18
ENDBRANCH   4  17
TORSDOF 5
ENDMDL
MODEL 6
REMARK VINA RESULT:      -6.8      3.084      9.477
REMARK  Name = 
REMARK  5 active torsions:
REMARK  status: ('A' for Active; 'I' for Inactive)
REMARK    1  A    between atoms: C_2  and  C_10
REMARK    2  A    between atoms: N_3  and  C_4
REMARK    3  A    between atoms: N_13  and  C_14
REMARK    4  A    between atoms: C_14  and  C_15
REMARK    5  A    between atoms: C_18  and  C_19
REMARK                            x       y       z     vdW  Elec       q    Type
REMARK                         _______ _______ _______ _____ _____    ______ ____
ROOT
ATOM      1  C   UNL     1      -0.647  10.855  20.325  0.00  0.00    +0.000 C 
ATOM      2  C   UNL     1       0.099   9.681  20.951  0.00  0.00    +0.000 C 
ATOM      3  C   UNL     1       1.332   9.323  20.127  0.00  0.00    +0.000 C 
ATOM      4  N   UNL     1       0.954   8.910  18.767  0.00  0.00    +0.000 NA
ATOM      5  C   UNL     1       0.174   9.956  18.079  0.00  0.00    +0.000 C 
ATOM      6  C   UNL     1      -1.035  10.448  18.894  0.00  0.00    +0.000 C 
ENDROOT
BRANCH   1   8
ATOM      7  O   UNL     1       0.824  12.494  21.315  0.00  0.00    +0.000 OA
ATOM      8  C   UNL     1       0.168  12.162  20.332  0.00  0.00    +0.000 C 
ATOM      9  N   UNL     1       0.076  12.884  19.150  0.00  0.00    +0.000 N 
ATOM     10  H   UNL     1      -0.544  12.533  18.434  0.00  0.00    +0.000 HD
BRANCH   9  11
ATOM     11  C   UNL     1       0.617  14.164  18.909  0.00  0.00    +0.000 A 
ATOM     12  C   UNL     1      -0.136  15.340  18.947  0.00  0.00    +0.000 A 
ATOM     13  C   UNL     1       0.454  16.568  18.644  0.00  0.00    +0.000 A 
ATOM     14  C   UNL     1       1.802  16.631  18.296  0.00  0.00    +0.000 A 
ATOM     15  C   UNL     1       2.568  15.473  18.277  0.00  0.00    +0.000 A 
ATOM     16  C   UNL     1       1.980  14.242  18.597  0.00  0.00    +0.000 A 
ENDBRANCH   9  11
ENDBRANCH   1   8
BRANCH   4  17
ATOM     17  C   UNL     1       2.155   8.583  17.961  0.00  0.00    +0.000 C 
BRANCH  17  18
ATOM     18  C   UNL     1       2.828   7.325  18.427  0.00  0.00    +0.000 A 
ATOM     19  C   UNL     1       2.507   6.500  19.485  0.00  0.00    +0.000 A 
ATOM     20  N   UNL     1       3.383   5.458  19.725  0.00  0.00    +0.000 NA
ATOM     21  C   UNL     1       4.373   5.493  18.849  0.00  0.00    +0.000 A 
ATOM     22  S   UNL     1       4.245   6.739  17.661  0.00  0.00    +0.000 S 
BRANCH  21  23
ATOM     23  C   UNL     1       5.573   4.579  18.824  0.00  0.00    +0.000 C 
ATOM     24  O   UNL     1       6.089   4.530  17.483  0.00  0.00    +0.000 OA
ATOM     25  C   UNL     1       7.487   4.749  17.634  0.00  0.00    +0.000 C 
ATOM     26  C   UNL     1       7.589   5.607  18.864  0.00  0.00    +0.000 C 
ATOM     27  O   UNL     1       6.576   5.087  19.723  0.00  0.00    +0.000 OA
ENDBRANCH  21  23
ENDBRANCH  17  18
ENDBRANCH   4  17
TORSDOF 5
ENDMDL
MODEL 7
REMARK VINA RESULT:      -6.7      1.212      1.809
REMARK  Name = 
REMARK  5 active torsions:
REMARK  status: ('A' for Active; 'I' for Inactive)
REMARK    1  A    between atoms: C_2  and  C_10
REMARK    2  A    between atoms: N_3  and  C_4
REMARK    3  A    between atoms: N_13  and  C_14
REMARK    4  A    between atoms: C_14  and  C_15
REMARK    5  A    between atoms: C_18  and  C_19
REMARK                            x       y       z     vdW  Elec       q    Type
REMARK                         _______ _______ _______ _____ _____    ______ ____
ROOT
ATOM      1  C   UNL     1       5.761   4.064  18.163  0.00  0.00    +0.000 C 
ATOM      2  C   UNL     1       4.275   3.818  17.917  0.00  0.00    +0.000 C 
ATOM      3  C   UNL     1       3.628   5.036  17.264  0.00  0.00    +0.000 C 
ATOM      4  N   UNL     1       3.724   6.215  18.138  0.00  0.00    +0.000 NA
ATOM      5  C   UNL     1       5.124   6.516  18.490  0.00  0.00    +0.000 C 
ATOM      6  C   UNL     1       5.883   5.306  19.061  0.00  0.00    +0.000 C 
ENDROOT
BRANCH   1   8
ATOM      7  O   UNL     1       7.736   4.615  16.887  0.00  0.00    +0.000 OA
ATOM      8  C   UNL     1       6.569   4.234  16.863  0.00  0.00    +0.000 C 
ATOM      9  N   UNL     1       5.854   3.917  15.716  0.00  0.00    +0.000 N 
ATOM     10  H   UNL     1       4.880   3.671  15.824  0.00  0.00    +0.000 HD
BRANCH   9  11
ATOM     11  C   UNL     1       6.292   4.084  14.386  0.00  0.00    +0.000 A 
ATOM     12  C   UNL     1       5.833   3.310  13.318  0.00  0.00    +0.000 A 
ATOM     13  C   UNL     1       6.351   3.494  12.036  0.00  0.00    +0.000 A 
ATOM     14  C   UNL     1       7.338   4.453  11.810  0.00  0.00    +0.000 A 
ATOM     15  C   UNL     1       7.787   5.245  12.857  0.00  0.00    +0.000 A 
ATOM     16  C   UNL     1       7.255   5.072  14.142  0.00  0.00    +0.000 A 
ENDBRANCH   9  11
ENDBRANCH   1   8
BRANCH   4  17
ATOM     17  C   UNL     1       3.113   7.402  17.494  0.00  0.00    +0.000 C 
BRANCH  17  18
ATOM     18  C   UNL     1       2.334   8.239  18.465  0.00  0.00    +0.000 A 
ATOM     19  C   UNL     1       1.883   7.922  19.730  0.00  0.00    +0.000 A 
ATOM     20  N   UNL     1       1.099   8.879  20.348  0.00  0.00    +0.000 NA
ATOM     21  C   UNL     1       0.951   9.923  19.550  0.00  0.00    +0.000 A 
ATOM     22  S   UNL     1       1.811   9.820  18.057  0.00  0.00    +0.000 S 
BRANCH  21  23
ATOM     23  C   UNL     1       0.101  11.139  19.822  0.00  0.00    +0.000 C 
ATOM     24  O   UNL     1       0.444  12.164  18.874  0.00  0.00    +0.000 OA
ATOM     25  C   UNL     1      -0.809  12.613  18.371  0.00  0.00    +0.000 C 
ATOM     26  C   UNL     1      -1.695  11.402  18.471  0.00  0.00    +0.000 C 
ATOM     27  O   UNL     1      -1.288  10.788  19.692  0.00  0.00    +0.000 OA
ENDBRANCH  21  23
ENDBRANCH  17  18
ENDBRANCH   4  17
TORSDOF 5
ENDMDL
MODEL 8
REMARK VINA RESULT:      -6.7      3.102      9.289
REMARK  Name = 
REMARK  5 active torsions:
REMARK  status: ('A' for Active; 'I' for Inactive)
REMARK    1  A    between atoms: C_2  and  C_10
REMARK    2  A    between atoms: N_3  and  C_4
REMARK    3  A    between atoms: N_13  and  C_14
REMARK    4  A    between atoms: C_14  and  C_15
REMARK    5  A    between atoms: C_18  and  C_19
REMARK                            x       y       z     vdW  Elec       q    Type
REMARK                         _______ _______ _______ _____ _____    ______ ____
ROOT
ATOM      1  C   UNL     1      -0.268  11.028  20.556  0.00  0.00    +0.000 C 
ATOM      2  C   UNL     1       0.470   9.826  21.138  0.00  0.00    +0.000 C 
ATOM      3  C   UNL     1       1.572   9.359  20.192  0.00  0.00    +0.000 C 
ATOM      4  N   UNL     1       1.011   8.930  18.902  0.00  0.00    +0.000 NA
ATOM      5  C   UNL     1       0.224  10.005  18.268  0.00  0.00    +0.000 C 
ATOM      6  C   UNL     1      -0.847  10.604  19.197  0.00  0.00    +0.000 C 
ENDROOT
BRANCH   1   8
ATOM      7  O   UNL     1       1.297  12.682  21.362  0.00  0.00    +0.000 OA
ATOM      8  C   UNL     1       0.625  12.276  20.418  0.00  0.00    +0.000 C 
ATOM      9  N   UNL     1       0.579  12.858  19.159  0.00  0.00    +0.000 N 
ATOM     10  H   UNL     1      -0.060  12.464  18.483  0.00  0.00    +0.000 HD
BRANCH   9  11
ATOM     11  C   UNL     1       1.196  14.067  18.775  0.00  0.00    +0.000 A 
ATOM     12  C   UNL     1       2.504  14.147  18.291  0.00  0.00    +0.000 A 
ATOM     13  C   UNL     1       3.069  15.385  17.981  0.00  0.00    +0.000 A 
ATOM     14  C   UNL     1       2.333  16.556  18.157  0.00  0.00    +0.000 A 
ATOM     15  C   UNL     1       1.024  16.489  18.615  0.00  0.00    +0.000 A 
ATOM     16  C   UNL     1       0.450  15.245  18.911  0.00  0.00    +0.000 A 
ENDBRANCH   9  11
ENDBRANCH   1   8
BRANCH   4  17
ATOM     17  C   UNL     1       2.085   8.497  17.977  0.00  0.00    +0.000 C 
BRANCH  17  18
ATOM     18  C   UNL     1       2.785   7.259  18.456  0.00  0.00    +0.000 A 
ATOM     19  C   UNL     1       2.510   6.466  19.551  0.00  0.00    +0.000 A 
ATOM     20  N   UNL     1       3.402   5.438  19.791  0.00  0.00    +0.000 NA
ATOM     21  C   UNL     1       4.360   5.452  18.879  0.00  0.00    +0.000 A 
ATOM     22  S   UNL     1       4.178   6.659  17.657  0.00  0.00    +0.000 S 
BRANCH  21  23
ATOM     23  C   UNL     1       5.566   4.546  18.838  0.00  0.00    +0.000 C 
ATOM     24  O   UNL     1       6.056   4.491  17.488  0.00  0.00    +0.000 OA
ATOM     25  C   UNL     1       7.455   4.721  17.610  0.00  0.00    +0.000 C 
ATOM     26  C   UNL     1       7.575   5.589  18.832  0.00  0.00    +0.000 C 
ATOM     27  O   UNL     1       6.582   5.067  19.714  0.00  0.00    +0.000 OA
ENDBRANCH  21  23
ENDBRANCH  17  18
ENDBRANCH   4  17
TORSDOF 5
ENDMDL
MODEL 9
REMARK VINA RESULT:      -6.7      3.887      9.251
REMARK  Name = 
REMARK  5 active torsions:
REMARK  status: ('A' for Active; 'I' for Inactive)
REMARK    1  A    between atoms: C_2  and  C_10
REMARK    2  A    between atoms: N_3  and  C_4
REMARK    3  A    between atoms: N_13  and  C_14
REMARK    4  A    between atoms: C_14  and  C_15
REMARK    5  A    between atoms: C_18  and  C_19
REMARK                            x       y       z     vdW  Elec       q    Type
REMARK                         _______ _______ _______ _____ _____    ______ ____
ROOT
ATOM      1  C   UNL     1      -0.595  11.580  19.690  0.00  0.00    +0.000 C 
ATOM      2  C   UNL     1       0.571  10.988  20.475  0.00  0.00    +0.000 C 
ATOM      3  C   UNL     1       1.643  10.456  19.528  0.00  0.00    +0.000 C 
ATOM      4  N   UNL     1       1.110   9.377  18.683  0.00  0.00    +0.000 NA
ATOM      5  C   UNL     1      -0.066   9.824  17.912  0.00  0.00    +0.000 C 
ATOM      6  C   UNL     1      -1.156  10.471  18.785  0.00  0.00    +0.000 C 
ENDROOT
BRANCH   1   8
ATOM      7  O   UNL     1      -0.792  13.110  17.832  0.00  0.00    +0.000 OA
ATOM      8  C   UNL     1      -0.204  12.825  18.871  0.00  0.00    +0.000 C 
ATOM      9  N   UNL     1       0.842  13.549  19.424  0.00  0.00    +0.000 N 
ATOM     10  H   UNL     1       1.283  13.178  20.254  0.00  0.00    +0.000 HD
BRANCH   9  11
ATOM     11  C   UNL     1       1.486  14.662  18.843  0.00  0.00    +0.000 A 
ATOM     12  C   UNL     1       0.944  15.949  18.831  0.00  0.00    +0.000 A 
ATOM     13  C   UNL     1       1.613  16.993  18.189  0.00  0.00    +0.000 A 
ATOM     14  C   UNL     1       2.829  16.757  17.549  0.00  0.00    +0.000 A 
ATOM     15  C   UNL     1       3.390  15.488  17.573  0.00  0.00    +0.000 A 
ATOM     16  C   UNL     1       2.727  14.443  18.232  0.00  0.00    +0.000 A 
ENDBRANCH   9  11
ENDBRANCH   1   8
BRANCH   4  17
ATOM     17  C   UNL     1       2.147   8.876  17.749  0.00  0.00    +0.000 C 
BRANCH  17  18
ATOM     18  C   UNL     1       2.757   7.587  18.216  0.00  0.00    +0.000 A 
ATOM     19  C   UNL     1       3.761   6.835  17.641  0.00  0.00    +0.000 A 
ATOM     20  N   UNL     1       4.043   5.631  18.261  0.00  0.00    +0.000 NA
ATOM     21  C   UNL     1       3.249   5.467  19.306  0.00  0.00    +0.000 A 
ATOM     22  S   UNL     1       2.186   6.790  19.623  0.00  0.00    +0.000 S 
BRANCH  21  23
ATOM     23  C   UNL     1       3.186   4.250  20.195  0.00  0.00    +0.000 C 
ATOM     24  O   UNL     1       2.172   4.459  21.193  0.00  0.00    +0.000 OA
ATOM     25  C   UNL     1       1.396   3.266  21.162  0.00  0.00    +0.000 C 
ATOM     26  C   UNL     1       1.516   2.791  19.741  0.00  0.00    +0.000 C 
ATOM     27  O   UNL     1       2.867   3.095  19.398  0.00  0.00    +0.000 OA
ENDBRANCH  21  23
ENDBRANCH  17  18
ENDBRANCH   4  17
TORSDOF 5
ENDMDL
