MODEL 1
REMARK VINA RESULT:      -7.8      0.000      0.000
REMARK  Name = 
REMARK  7 active torsions:
REMARK  status: ('A' for Active; 'I' for Inactive)
REMARK    1  A    between atoms: C_1  and  C_2
REMARK    2  A    between atoms: C_2  and  C_3
REMARK    3  A    between atoms: C_2  and  O_4
REMARK    4  A    between atoms: C_2  and  C_5
REMARK    5  A    between atoms: C_8  and  C_9
REMARK    6  A    between atoms: C_13  and  C_14
REMARK    7  A    between atoms: C_20  and  O_21
REMARK                            x       y       z     vdW  Elec       q    Type
REMARK                         _______ _______ _______ _____ _____    ______ ____
ROOT
ATOM      1  C   UNL     1       2.546   3.758  19.064  0.00  0.00    +0.000 A 
ATOM      2  N   UNL     1       2.958   5.000  18.733  0.00  0.00    +0.000 NA
ATOM      3  N   UNL     1       3.852   5.162  17.711  0.00  0.00    +0.000 NA
ATOM      4  C   UNL     1       4.303   4.080  17.037  0.00  0.00    +0.000 A 
ATOM      5  N   UNL     1       3.899   2.822  17.290  0.00  0.00    +0.000 NA
ATOM      6  C   UNL     1       3.028   2.707  18.307  0.00  0.00    +0.000 A 
ENDROOT
BRANCH   4   7
ATOM      7  C   UNL     1       5.315   4.285  15.982  0.00  0.00    +0.000 A 
ATOM      8  C   UNL     1       6.517   4.970  16.238  0.00  0.00    +0.000 A 
ATOM      9  C   UNL     1       7.487   5.142  15.246  0.00  0.00    +0.000 A 
ATOM     10  C   UNL     1       7.273   4.640  13.965  0.00  0.00    +0.000 A 
ATOM     11  C   UNL     1       6.087   3.963  13.662  0.00  0.00    +0.000 A 
ATOM     12  C   UNL     1       5.126   3.789  14.675  0.00  0.00    +0.000 A 
BRANCH  11  13
ATOM     13  C   UNL     1       5.821   3.430  12.275  0.00  0.00    +0.000 C 
ATOM     14  F   UNL     1       5.960   2.078  12.176  0.00  0.00    +0.000 F 
ATOM     15  F   UNL     1       4.562   3.709  11.840  0.00  0.00    +0.000 F 
ATOM     16  F   UNL     1       6.664   3.960  11.346  0.00  0.00    +0.000 F 
ENDBRANCH  11  13
ENDBRANCH   4   7
BRANCH   1  18
ATOM     17  C   UNL     1       1.056   4.935  20.720  0.00  0.00    +0.000 C 
ATOM     18  C   UNL     1       1.596   3.583  20.233  0.00  0.00    +0.000 C 
ATOM     19  C   UNL     1       2.252   2.851  21.415  0.00  0.00    +0.000 C 
BRANCH  18  20
ATOM     20  O   UNL     1       0.493   2.763  19.818  0.00  0.00    +0.000 OA
ATOM     21  H   UNL     1       0.006   3.244  19.128  0.00  0.00    +0.000 HD
ENDBRANCH  18  20
ENDBRANCH   1  18
BRANCH   6  22
ATOM     22  O   UNL     1       2.651   1.419  18.513  0.00  0.00    +0.000 OA
ATOM     23  H   UNL     1       1.687   1.521  18.606  0.00  0.00    +0.000 HD
ENDBRANCH   6  22
TORSDOF 5
ENDMDL
MODEL 2
REMARK VINA RESULT:      -7.6      4.502      5.590
REMARK  Name = 
REMARK  7 active torsions:
REMARK  status: ('A' for Active; 'I' for Inactive)
REMARK    1  A    between atoms: C_1  and  C_2
REMARK    2  A    between atoms: C_2  and  C_3
REMARK    3  A    between atoms: C_2  and  O_4
REMARK    4  A    between atoms: C_2  and  C_5
REMARK    5  A    between atoms: C_8  and  C_9
REMARK    6  A    between atoms: C_13  and  C_14
REMARK    7  A    between atoms: C_20  and  O_21
REMARK                            x       y       z     vdW  Elec       q    Type
REMARK                         _______ _______ _______ _____ _____    ______ ____
ROOT
ATOM      1  C   UNL     1       1.389   9.170  19.472  0.00  0.00    +0.000 A 
ATOM      2  N   UNL     1       1.611   8.078  20.233  0.00  0.00    +0.000 NA
ATOM      3  N   UNL     1       2.322   7.031  19.714  0.00  0.00    +0.000 NA
ATOM      4  C   UNL     1       2.804   7.106  18.453  0.00  0.00    +0.000 A 
ATOM      5  N   UNL     1       2.653   8.183  17.661  0.00  0.00    +0.000 NA
ATOM      6  C   UNL     1       1.942   9.185  18.206  0.00  0.00    +0.000 A 
ENDROOT
BRANCH   4   7
ATOM      7  C   UNL     1       3.511   5.934  17.902  0.00  0.00    +0.000 A 
ATOM      8  C   UNL     1       2.851   4.710  17.687  0.00  0.00    +0.000 A 
ATOM      9  C   UNL     1       3.515   3.607  17.142  0.00  0.00    +0.000 A 
ATOM     10  C   UNL     1       4.863   3.697  16.808  0.00  0.00    +0.000 A 
ATOM     11  C   UNL     1       5.563   4.891  17.017  0.00  0.00    +0.000 A 
ATOM     12  C   UNL     1       4.877   5.996  17.555  0.00  0.00    +0.000 A 
BRANCH  11  13
ATOM     13  C   UNL     1       7.031   5.008  16.683  0.00  0.00    +0.000 C 
ATOM     14  F   UNL     1       7.494   6.289  16.703  0.00  0.00    +0.000 F 
ATOM     15  F   UNL     1       7.819   4.312  17.547  0.00  0.00    +0.000 F 
ATOM     16  F   UNL     1       7.320   4.526  15.443  0.00  0.00    +0.000 F 
ENDBRANCH  11  13
ENDBRANCH   4   7
BRANCH   1  18
ATOM     17  C   UNL     1       0.441  10.206  21.564  0.00  0.00    +0.000 C 
ATOM     18  C   UNL     1       0.555  10.304  20.037  0.00  0.00    +0.000 C 
ATOM     19  C   UNL     1      -0.858  10.348  19.431  0.00  0.00    +0.000 C 
BRANCH  18  20
ATOM     20  O   UNL     1       1.175  11.554  19.694  0.00  0.00    +0.000 OA
ATOM     21  H   UNL     1       1.543  11.469  18.798  0.00  0.00    +0.000 HD
ENDBRANCH  18  20
ENDBRANCH   1  18
BRANCH   6  22
ATOM     22  O   UNL     1       1.827  10.245  17.366  0.00  0.00    +0.000 OA
ATOM     23  H   UNL     1       2.361  10.911  17.835  0.00  0.00    +0.000 HD
ENDBRANCH   6  22
TORSDOF 5
ENDMDL
MODEL 3
REMARK VINA RESULT:      -7.6      1.238      1.724
REMARK  Name = 
REMARK  7 active torsions:
REMARK  status: ('A' for Active; 'I' for Inactive)
REMARK    1  A    between atoms: C_1  and  C_2
REMARK    2  A    between atoms: C_2  and  C_3
REMARK    3  A    between atoms: C_2  and  O_4
REMARK    4  A    between atoms: C_2  and  C_5
REMARK    5  A    between atoms: C_8  and  C_9
REMARK    6  A    between atoms: C_13  and  C_14
REMARK    7  A    between atoms: C_20  and  O_21
REMARK                            x       y       z     vdW  Elec       q    Type
REMARK                         _______ _______ _______ _____ _____    ______ ____
ROOT
ATOM      1  C   UNL     1       2.767   3.764  19.216  0.00  0.00    +0.000 A 
ATOM      2  N   UNL     1       2.916   2.829  18.254  0.00  0.00    +0.000 NA
ATOM      3  N   UNL     1       3.829   3.031  17.257  0.00  0.00    +0.000 NA
ATOM      4  C   UNL     1       4.581   4.156  17.252  0.00  0.00    +0.000 A 
ATOM      5  N   UNL     1       4.509   5.103  18.204  0.00  0.00    +0.000 NA
ATOM      6  C   UNL     1       3.594   4.869  19.160  0.00  0.00    +0.000 A 
ENDROOT
BRANCH   4   7
ATOM      7  C   UNL     1       5.510   4.371  16.126  0.00  0.00    +0.000 A 
ATOM      8  C   UNL     1       6.708   5.091  16.288  0.00  0.00    +0.000 A 
ATOM      9  C   UNL     1       7.601   5.274  15.228  0.00  0.00    +0.000 A 
ATOM     10  C   UNL     1       7.312   4.748  13.972  0.00  0.00    +0.000 A 
ATOM     11  C   UNL     1       6.126   4.036  13.762  0.00  0.00    +0.000 A 
ATOM     12  C   UNL     1       5.243   3.851  14.842  0.00  0.00    +0.000 A 
BRANCH  11  13
ATOM     13  C   UNL     1       5.779   3.475  12.404  0.00  0.00    +0.000 C 
ATOM     14  F   UNL     1       5.958   2.128  12.309  0.00  0.00    +0.000 F 
ATOM     15  F   UNL     1       4.482   3.705  12.060  0.00  0.00    +0.000 F 
ATOM     16  F   UNL     1       6.531   4.022  11.410  0.00  0.00    +0.000 F 
ENDBRANCH  11  13
ENDBRANCH   4   7
BRANCH   1  18
ATOM     17  C   UNL     1       2.325   2.949  21.560  0.00  0.00    +0.000 C 
ATOM     18  C   UNL     1       1.715   3.556  20.289  0.00  0.00    +0.000 C 
ATOM     19  C   UNL     1       0.561   2.660  19.809  0.00  0.00    +0.000 C 
BRANCH  18  20
ATOM     20  O   UNL     1       1.125   4.825  20.614  0.00  0.00    +0.000 OA
ATOM     21  H   UNL     1       1.845   5.441  20.833  0.00  0.00    +0.000 HD
ENDBRANCH  18  20
ENDBRANCH   1  18
BRANCH   6  22
ATOM     22  O   UNL     1       3.571   5.853  20.096  0.00  0.00    +0.000 OA
ATOM     23  H   UNL     1       3.486   5.329  20.913  0.00  0.00    +0.000 HD
ENDBRANCH   6  22
TORSDOF 5
ENDMDL
MODEL 4
REMARK VINA RESULT:      -7.5      0.912      1.284
REMARK  Name = 
REMARK  7 active torsions:
REMARK  status: ('A' for Active; 'I' for Inactive)
REMARK    1  A    between atoms: C_1  and  C_2
REMARK    2  A    between atoms: C_2  and  C_3
REMARK    3  A    between atoms: C_2  and  O_4
REMARK    4  A    between atoms: C_2  and  C_5
REMARK    5  A    between atoms: C_8  and  C_9
REMARK    6  A    between atoms: C_13  and  C_14
REMARK    7  A    between atoms: C_20  and  O_21
REMARK                            x       y       z     vdW  Elec       q    Type
REMARK                         _______ _______ _______ _____ _____    ______ ____
ROOT
ATOM      1  C   UNL     1       2.802   3.738  19.157  0.00  0.00    +0.000 A 
ATOM      2  N   UNL     1       4.118   3.884  19.419  0.00  0.00    +0.000 NA
ATOM      3  N   UNL     1       4.988   4.101  18.386  0.00  0.00    +0.000 NA
ATOM      4  C   UNL     1       4.521   4.180  17.119  0.00  0.00    +0.000 A 
ATOM      5  N   UNL     1       3.218   4.084  16.800  0.00  0.00    +0.000 NA
ATOM      6  C   UNL     1       2.399   3.863  17.842  0.00  0.00    +0.000 A 
ENDROOT
BRANCH   4   7
ATOM      7  C   UNL     1       5.494   4.351  16.024  0.00  0.00    +0.000 A 
ATOM      8  C   UNL     1       6.724   5.004  16.226  0.00  0.00    +0.000 A 
ATOM      9  C   UNL     1       7.656   5.144  15.194  0.00  0.00    +0.000 A 
ATOM     10  C   UNL     1       7.377   4.642  13.926  0.00  0.00    +0.000 A 
ATOM     11  C   UNL     1       6.161   3.996  13.676  0.00  0.00    +0.000 A 
ATOM     12  C   UNL     1       5.238   3.853  14.729  0.00  0.00    +0.000 A 
BRANCH  11  13
ATOM     13  C   UNL     1       5.825   3.462  12.305  0.00  0.00    +0.000 C 
ATOM     14  F   UNL     1       6.577   4.008  11.308  0.00  0.00    +0.000 F 
ATOM     15  F   UNL     1       6.001   2.116  12.211  0.00  0.00    +0.000 F 
ATOM     16  F   UNL     1       4.528   3.694  11.961  0.00  0.00    +0.000 F 
ENDBRANCH  11  13
ENDBRANCH   4   7
BRANCH   1  18
ATOM     17  C   UNL     1       1.174   4.725  20.808  0.00  0.00    +0.000 C 
ATOM     18  C   UNL     1       1.852   3.444  20.303  0.00  0.00    +0.000 C 
ATOM     19  C   UNL     1       2.555   2.751  21.482  0.00  0.00    +0.000 C 
BRANCH  18  20
ATOM     20  O   UNL     1       0.842   2.530  19.846  0.00  0.00    +0.000 OA
ATOM     21  H   UNL     1       0.732   1.843  20.526  0.00  0.00    +0.000 HD
ENDBRANCH  18  20
ENDBRANCH   1  18
BRANCH   6  22
ATOM     22  O   UNL     1       1.098   3.782  17.461  0.00  0.00    +0.000 OA
ATOM     23  H   UNL     1       0.882   2.872  17.732  0.00  0.00    +0.000 HD
ENDBRANCH   6  22
TORSDOF 5
ENDMDL
MODEL 5
REMARK VINA RESULT:      -7.4      4.854      6.020
REMARK  Name = 
REMARK  7 active torsions:
REMARK  status: ('A' for Active; 'I' for Inactive)
REMARK    1  A    between atoms: C_1  and  C_2
REMARK    2  A    between atoms: C_2  and  C_3
REMARK    3  A    between atoms: C_2  and  O_4
REMARK    4  A    between atoms: C_2  and  C_5
REMARK    5  A    between atoms: C_8  and  C_9
REMARK    6  A    between atoms: C_13  and  C_14
REMARK    7  A    between atoms: C_20  and  O_21
REMARK                            x       y       z     vdW  Elec       q    Type
REMARK                         _______ _______ _______ _____ _____    ______ ____
ROOT
ATOM      1  C   UNL     1       1.325   9.303  19.485  0.00  0.00    +0.000 A 
ATOM      2  N   UNL     1       1.508   8.206  20.248  0.00  0.00    +0.000 NA
ATOM      3  N   UNL     1       2.189   7.136  19.735  0.00  0.00    +0.000 NA
ATOM      4  C   UNL     1       2.680   7.194  18.477  0.00  0.00    +0.000 A 
ATOM      5  N   UNL     1       2.567   8.274  17.682  0.00  0.00    +0.000 NA
ATOM      6  C   UNL     1       1.885   9.298  18.222  0.00  0.00    +0.000 A 
ENDROOT
BRANCH   4   7
ATOM      7  C   UNL     1       3.353   5.999  17.932  0.00  0.00    +0.000 A 
ATOM      8  C   UNL     1       4.423   6.106  17.024  0.00  0.00    +0.000 A 
ATOM      9  C   UNL     1       5.077   4.974  16.528  0.00  0.00    +0.000 A 
ATOM     10  C   UNL     1       4.669   3.703  16.921  0.00  0.00    +0.000 A 
ATOM     11  C   UNL     1       3.601   3.548  17.812  0.00  0.00    +0.000 A 
ATOM     12  C   UNL     1       2.961   4.698  18.311  0.00  0.00    +0.000 A 
BRANCH  11  13
ATOM     13  C   UNL     1       3.125   2.180  18.236  0.00  0.00    +0.000 C 
ATOM     14  F   UNL     1       3.861   1.160  17.710  0.00  0.00    +0.000 F 
ATOM     15  F   UNL     1       3.162   2.010  19.586  0.00  0.00    +0.000 F 
ATOM     16  F   UNL     1       1.838   1.940  17.864  0.00  0.00    +0.000 F 
ENDBRANCH  11  13
ENDBRANCH   4   7
BRANCH   1  18
ATOM     17  C   UNL     1       0.401  10.374  21.571  0.00  0.00    +0.000 C 
ATOM     18  C   UNL     1       0.523  10.464  20.043  0.00  0.00    +0.000 C 
ATOM     19  C   UNL     1      -0.886  10.548  19.433  0.00  0.00    +0.000 C 
BRANCH  18  20
ATOM     20  O   UNL     1       1.182  11.693  19.699  0.00  0.00    +0.000 OA
ATOM     21  H   UNL     1       0.497  12.368  19.555  0.00  0.00    +0.000 HD
ENDBRANCH  18  20
ENDBRANCH   1  18
BRANCH   6  22
ATOM     22  O   UNL     1       1.808  10.361  17.380  0.00  0.00    +0.000 OA
ATOM     23  H   UNL     1       0.979  10.164  16.909  0.00  0.00    +0.000 HD
ENDBRANCH   6  22
TORSDOF 5
ENDMDL
MODEL 6
REMARK VINA RESULT:      -7.3      0.734      1.209
REMARK  Name = 
REMARK  7 active torsions:
REMARK  status: ('A' for Active; 'I' for Inactive)
REMARK    1  A    between atoms: C_1  and  C_2
REMARK    2  A    between atoms: C_2  and  C_3
REMARK    3  A    between atoms: C_2  and  O_4
REMARK    4  A    between atoms: C_2  and  C_5
REMARK    5  A    between atoms: C_8  and  C_9
REMARK    6  A    between atoms: C_13  and  C_14
REMARK    7  A    between atoms: C_20  and  O_21
REMARK                            x       y       z     vdW  Elec       q    Type
REMARK                         _______ _______ _______ _____ _____    ______ ____
ROOT
ATOM      1  C   UNL     1       2.961   3.720  19.162  0.00  0.00    +0.000 A 
ATOM      2  N   UNL     1       3.375   4.964  18.841  0.00  0.00    +0.000 NA
ATOM      3  N   UNL     1       4.182   5.143  17.752  0.00  0.00    +0.000 NA
ATOM      4  C   UNL     1       4.545   4.077  17.002  0.00  0.00    +0.000 A 
ATOM      5  N   UNL     1       4.131   2.821  17.246  0.00  0.00    +0.000 NA
ATOM      6  C   UNL     1       3.348   2.688  18.330  0.00  0.00    +0.000 A 
ENDROOT
BRANCH   4   7
ATOM      7  C   UNL     1       5.468   4.297  15.872  0.00  0.00    +0.000 A 
ATOM      8  C   UNL     1       6.663   5.023  16.028  0.00  0.00    +0.000 A 
ATOM      9  C   UNL     1       7.549   5.210  14.963  0.00  0.00    +0.000 A 
ATOM     10  C   UNL     1       7.256   4.683  13.708  0.00  0.00    +0.000 A 
ATOM     11  C   UNL     1       6.072   3.965  13.504  0.00  0.00    +0.000 A 
ATOM     12  C   UNL     1       5.196   3.776  14.590  0.00  0.00    +0.000 A 
BRANCH  11  13
ATOM     13  C   UNL     1       5.721   3.402  12.149  0.00  0.00    +0.000 C 
ATOM     14  F   UNL     1       6.495   3.890  11.139  0.00  0.00    +0.000 F 
ATOM     15  F   UNL     1       5.848   2.048  12.097  0.00  0.00    +0.000 F 
ATOM     16  F   UNL     1       4.434   3.670  11.794  0.00  0.00    +0.000 F 
ENDBRANCH  11  13
ENDBRANCH   4   7
BRANCH   1  18
ATOM     17  C   UNL     1       0.687   3.081  20.040  0.00  0.00    +0.000 C 
ATOM     18  C   UNL     1       2.110   3.525  20.403  0.00  0.00    +0.000 C 
ATOM     19  C   UNL     1       2.034   4.796  21.265  0.00  0.00    +0.000 C 
BRANCH  18  20
ATOM     20  O   UNL     1       2.717   2.518  21.229  0.00  0.00    +0.000 OA
ATOM     21  H   UNL     1       3.525   2.213  20.783  0.00  0.00    +0.000 HD
ENDBRANCH  18  20
ENDBRANCH   1  18
BRANCH   6  22
ATOM     22  O   UNL     1       2.956   1.402  18.522  0.00  0.00    +0.000 OA
ATOM     23  H   UNL     1       3.406   1.196  19.361  0.00  0.00    +0.000 HD
ENDBRANCH   6  22
TORSDOF 5
ENDMDL
MODEL 7
REMARK VINA RESULT:      -7.3      4.293      5.410
REMARK  Name = 
REMARK  7 active torsions:
REMARK  status: ('A' for Active; 'I' for Inactive)
REMARK    1  A    between atoms: C_1  and  C_2
REMARK    2  A    between atoms: C_2  and  C_3
REMARK    3  A    between atoms: C_2  and  O_4
REMARK    4  A    between atoms: C_2  and  C_5
REMARK    5  A    between atoms: C_8  and  C_9
REMARK    6  A    between atoms: C_13  and  C_14
REMARK    7  A    between atoms: C_20  and  O_21
REMARK                            x       y       z     vdW  Elec       q    Type
REMARK                         _______ _______ _______ _____ _____    ______ ____
ROOT
ATOM      1  C   UNL     1       1.350   9.219  19.511  0.00  0.00    +0.000 A 
ATOM      2  N   UNL     1       1.514   8.157  20.327  0.00  0.00    +0.000 NA
ATOM      3  N   UNL     1       2.142   7.038  19.855  0.00  0.00    +0.000 NA
ATOM      4  C   UNL     1       2.601   7.011  18.583  0.00  0.00    +0.000 A 
ATOM      5  N   UNL     1       2.505   8.052  17.735  0.00  0.00    +0.000 NA
ATOM      6  C   UNL     1       1.875   9.128  18.236  0.00  0.00    +0.000 A 
ENDROOT
BRANCH   4   7
ATOM      7  C   UNL     1       3.215   5.765  18.086  0.00  0.00    +0.000 A 
ATOM      8  C   UNL     1       2.773   4.502  18.521  0.00  0.00    +0.000 A 
ATOM      9  C   UNL     1       3.339   3.321  18.031  0.00  0.00    +0.000 A 
ATOM     10  C   UNL     1       4.372   3.374  17.099  0.00  0.00    +0.000 A 
ATOM     11  C   UNL     1       4.852   4.609  16.648  0.00  0.00    +0.000 A 
ATOM     12  C   UNL     1       4.264   5.789  17.142  0.00  0.00    +0.000 A 
BRANCH  11  13
ATOM     13  C   UNL     1       5.985   4.694  15.655  0.00  0.00    +0.000 C 
ATOM     14  F   UNL     1       6.127   3.573  14.893  0.00  0.00    +0.000 F 
ATOM     15  F   UNL     1       5.836   5.725  14.779  0.00  0.00    +0.000 F 
ATOM     16  F   UNL     1       7.190   4.889  16.259  0.00  0.00    +0.000 F 
ENDBRANCH  11  13
ENDBRANCH   4   7
BRANCH   1  18
ATOM     17  C   UNL     1       0.499  10.419  21.558  0.00  0.00    +0.000 C 
ATOM     18  C   UNL     1       0.606  10.437  20.027  0.00  0.00    +0.000 C 
ATOM     19  C   UNL     1      -0.806  10.556  19.428  0.00  0.00    +0.000 C 
BRANCH  18  20
ATOM     20  O   UNL     1       1.312  11.620  19.622  0.00  0.00    +0.000 OA
ATOM     21  H   UNL     1       2.048  11.755  20.242  0.00  0.00    +0.000 HD
ENDBRANCH  18  20
ENDBRANCH   1  18
BRANCH   6  22
ATOM     22  O   UNL     1       1.814  10.146  17.341  0.00  0.00    +0.000 OA
ATOM     23  H   UNL     1       2.326   9.774  16.601  0.00  0.00    +0.000 HD
ENDBRANCH   6  22
TORSDOF 5
ENDMDL
MODEL 8
REMARK VINA RESULT:      -7.3      4.810      5.969
REMARK  Name = 
REMARK  7 active torsions:
REMARK  status: ('A' for Active; 'I' for Inactive)
REMARK    1  A    between atoms: C_1  and  C_2
REMARK    2  A    between atoms: C_2  and  C_3
REMARK    3  A    between atoms: C_2  and  O_4
REMARK    4  A    between atoms: C_2  and  C_5
REMARK    5  A    between atoms: C_8  and  C_9
REMARK    6  A    between atoms: C_13  and  C_14
REMARK    7  A    between atoms: C_20  and  O_21
REMARK                            x       y       z     vdW  Elec       q    Type
REMARK                         _______ _______ _______ _____ _____    ______ ____
ROOT
ATOM      1  C   UNL     1       1.200   9.304  19.650  0.00  0.00    +0.000 A 
ATOM      2  N   UNL     1       1.482   8.231  20.418  0.00  0.00    +0.000 NA
ATOM      3  N   UNL     1       2.179   7.185  19.879  0.00  0.00    +0.000 NA
ATOM      4  C   UNL     1       2.588   7.242  18.592  0.00  0.00    +0.000 A 
ATOM      5  N   UNL     1       2.375   8.300  17.789  0.00  0.00    +0.000 NA
ATOM      6  C   UNL     1       1.680   9.302  18.355  0.00  0.00    +0.000 A 
ENDROOT
BRANCH   4   7
ATOM      7  C   UNL     1       3.281   6.069  18.025  0.00  0.00    +0.000 A 
ATOM      8  C   UNL     1       4.362   6.212  17.134  0.00  0.00    +0.000 A 
ATOM      9  C   UNL     1       5.035   5.101  16.617  0.00  0.00    +0.000 A 
ATOM     10  C   UNL     1       4.636   3.815  16.971  0.00  0.00    +0.000 A 
ATOM     11  C   UNL     1       3.558   3.625  17.843  0.00  0.00    +0.000 A 
ATOM     12  C   UNL     1       2.899   4.754  18.364  0.00  0.00    +0.000 A 
BRANCH  11  13
ATOM     13  C   UNL     1       3.093   2.241  18.224  0.00  0.00    +0.000 C 
ATOM     14  F   UNL     1       3.054   2.030  19.570  0.00  0.00    +0.000 F 
ATOM     15  F   UNL     1       1.841   1.967  17.766  0.00  0.00    +0.000 F 
ATOM     16  F   UNL     1       3.897   1.266  17.717  0.00  0.00    +0.000 F 
ENDBRANCH  11  13
ENDBRANCH   4   7
BRANCH   1  18
ATOM     17  C   UNL     1       1.249  11.673  20.511  0.00  0.00    +0.000 C 
ATOM     18  C   UNL     1       0.380  10.437  20.240  0.00  0.00    +0.000 C 
ATOM     19  C   UNL     1      -0.329  10.028  21.541  0.00  0.00    +0.000 C 
BRANCH  18  20
ATOM     20  O   UNL     1      -0.658  10.791  19.313  0.00  0.00    +0.000 OA
ATOM     21  H   UNL     1      -0.324  11.509  18.749  0.00  0.00    +0.000 HD
ENDBRANCH  18  20
ENDBRANCH   1  18
BRANCH   6  22
ATOM     22  O   UNL     1       1.502  10.344  17.503  0.00  0.00    +0.000 OA
ATOM     23  H   UNL     1       0.646  10.111  17.102  0.00  0.00    +0.000 HD
ENDBRANCH   6  22
TORSDOF 5
ENDMDL
MODEL 9
REMARK VINA RESULT:      -7.2      4.472      5.604
REMARK  Name = 
REMARK  7 active torsions:
REMARK  status: ('A' for Active; 'I' for Inactive)
REMARK    1  A    between atoms: C_1  and  C_2
REMARK    2  A    between atoms: C_2  and  C_3
REMARK    3  A    between atoms: C_2  and  O_4
REMARK    4  A    between atoms: C_2  and  C_5
REMARK    5  A    between atoms: C_8  and  C_9
REMARK    6  A    between atoms: C_13  and  C_14
REMARK    7  A    between atoms: C_20  and  O_21
REMARK                            x       y       z     vdW  Elec       q    Type
REMARK                         _______ _______ _______ _____ _____    ______ ____
ROOT
ATOM      1  C   UNL     1       1.360   9.476  19.398  0.00  0.00    +0.000 A 
ATOM      2  N   UNL     1       1.729   9.441  18.100  0.00  0.00    +0.000 NA
ATOM      3  N   UNL     1       2.378   8.339  17.616  0.00  0.00    +0.000 NA
ATOM      4  C   UNL     1       2.631   7.294  18.436  0.00  0.00    +0.000 A 
ATOM      5  N   UNL     1       2.251   7.251  19.726  0.00  0.00    +0.000 NA
ATOM      6  C   UNL     1       1.624   8.357  20.163  0.00  0.00    +0.000 A 
ENDROOT
BRANCH   4   7
ATOM      7  C   UNL     1       3.389   6.148  17.897  0.00  0.00    +0.000 A 
ATOM      8  C   UNL     1       2.802   4.877  17.756  0.00  0.00    +0.000 A 
ATOM      9  C   UNL     1       3.513   3.798  17.222  0.00  0.00    +0.000 A 
ATOM     10  C   UNL     1       4.836   3.961  16.824  0.00  0.00    +0.000 A 
ATOM     11  C   UNL     1       5.465   5.204  16.958  0.00  0.00    +0.000 A 
ATOM     12  C   UNL     1       4.732   6.283  17.487  0.00  0.00    +0.000 A 
BRANCH  11  13
ATOM     13  C   UNL     1       6.906   5.401  16.555  0.00  0.00    +0.000 C 
ATOM     14  F   UNL     1       7.764   4.530  17.156  0.00  0.00    +0.000 F 
ATOM     15  F   UNL     1       7.098   5.251  15.216  0.00  0.00    +0.000 F 
ATOM     16  F   UNL     1       7.365   6.646  16.861  0.00  0.00    +0.000 F 
ENDBRANCH  11  13
ENDBRANCH   4   7
BRANCH   1  18
ATOM     17  C   UNL     1      -0.839  10.578  19.945  0.00  0.00    +0.000 C 
ATOM     18  C   UNL     1       0.689  10.724  19.939  0.00  0.00    +0.000 C 
ATOM     19  C   UNL     1       1.068  11.983  19.143  0.00  0.00    +0.000 C 
BRANCH  18  20
ATOM     20  O   UNL     1       1.141  10.950  21.284  0.00  0.00    +0.000 OA
ATOM     21  H   UNL     1       0.372  10.879  21.874  0.00  0.00    +0.000 HD
ENDBRANCH  18  20
ENDBRANCH   1  18
BRANCH   6  22
ATOM     22  O   UNL     1       1.259   8.255  21.467  0.00  0.00    +0.000 OA
ATOM     23  H   UNL     1       2.039   8.636  21.908  0.00  0.00    +0.000 HD
ENDBRANCH   6  22
TORSDOF 5
ENDMDL
