MODEL 1
REMARK VINA RESULT:      -7.5      0.000      0.000
REMARK  Name = 
REMARK  1 active torsions:
REMARK  status: ('A' for Active; 'I' for Inactive)
REMARK    1  A    between atoms: C_16  and  N_17
REMARK                            x       y       z     vdW  Elec       q    Type
REMARK                         _______ _______ _______ _____ _____    ______ ____
ROOT
ATOM      1  O   UNL     1       0.112   9.328  23.024  0.00  0.00    +0.000 OA
ATOM      2  C   UNL     1       0.476   9.264  21.857  0.00  0.00    +0.000 A 
ATOM      3  N   UNL     1       1.010   8.087  21.367  0.00  0.00    +0.000 NA
ATOM      4  C   UNL     1       1.485   8.085  20.169  0.00  0.00    +0.000 A 
ATOM      5  N   UNL     1       1.494   9.145  19.308  0.00  0.00    +0.000 N 
ATOM      6  C   UNL     1       0.879  10.333  19.654  0.00  0.00    +0.000 A 
ATOM      7  C   UNL     1       0.767  11.406  18.759  0.00  0.00    +0.000 A 
ATOM      8  C   UNL     1       0.134  12.587  19.136  0.00  0.00    +0.000 A 
ATOM      9  C   UNL     1      -0.379  12.715  20.422  0.00  0.00    +0.000 A 
ATOM     10  C   UNL     1      -0.276  11.662  21.341  0.00  0.00    +0.000 A 
ATOM     11 CL   UNL     1      -0.944  11.975  22.903  0.00  0.00    +0.000 Cl
ATOM     12  C   UNL     1       0.340  10.460  20.957  0.00  0.00    +0.000 A 
ATOM     13  C   UNL     1       2.114   8.830  18.034  0.00  0.00    +0.000 C 
ATOM     14  C   UNL     1       2.579   7.365  18.166  0.00  0.00    +0.000 C 
ATOM     15  C   UNL     1       2.119   6.900  19.518  0.00  0.00    +0.000 C 
ATOM     16  C   UNL     1       2.253   5.728  20.147  0.00  0.00    +0.000 C 
ENDROOT
BRANCH  16  17
ATOM     17  N   UNL     1       2.815   4.513  19.769  0.00  0.00    +0.000 N 
ATOM     18  C   UNL     1       4.180   4.355  19.257  0.00  0.00    +0.000 C 
ATOM     19  C   UNL     1       4.233   3.273  18.179  0.00  0.00    +0.000 C 
ATOM     20  C   UNL     1       3.625   1.961  18.659  0.00  0.00    +0.000 C 
ATOM     21  C   UNL     1       2.215   2.194  19.187  0.00  0.00    +0.000 C 
ATOM     22  C   UNL     1       2.214   3.262  20.273  0.00  0.00    +0.000 C 
ENDBRANCH  16  17
TORSDOF 1
ENDMDL
MODEL 2
REMARK VINA RESULT:      -7.5      0.982      1.090
REMARK  Name = 
REMARK  1 active torsions:
REMARK  status: ('A' for Active; 'I' for Inactive)
REMARK    1  A    between atoms: C_16  and  N_17
REMARK                            x       y       z     vdW  Elec       q    Type
REMARK                         _______ _______ _______ _____ _____    ______ ____
ROOT
ATOM      1  O   UNL     1       0.165   9.517  22.971  0.00  0.00    +0.000 OA
ATOM      2  C   UNL     1       0.436   9.612  21.781  0.00  0.00    +0.000 A 
ATOM      3  N   UNL     1       1.062   8.565  21.132  0.00  0.00    +0.000 NA
ATOM      4  C   UNL     1       1.432   8.738  19.910  0.00  0.00    +0.000 A 
ATOM      5  N   UNL     1       1.245   9.868  19.168  0.00  0.00    +0.000 N 
ATOM      6  C   UNL     1       0.525  10.930  19.680  0.00  0.00    +0.000 A 
ATOM      7  C   UNL     1       0.214  12.063  18.914  0.00  0.00    +0.000 A 
ATOM      8  C   UNL     1      -0.520  13.112  19.457  0.00  0.00    +0.000 A 
ATOM      9  C   UNL     1      -0.936  13.051  20.783  0.00  0.00    +0.000 A 
ATOM     10  C   UNL     1      -0.634  11.936  21.575  0.00  0.00    +0.000 A 
ATOM     11 CL   UNL     1      -1.201  12.011  23.206  0.00  0.00    +0.000 Cl
ATOM     12  C   UNL     1       0.086  10.863  21.024  0.00  0.00    +0.000 A 
ATOM     13  C   UNL     1       1.789   9.758  17.826  0.00  0.00    +0.000 C 
ATOM     14  C   UNL     1       2.433   8.356  17.770  0.00  0.00    +0.000 C 
ATOM     15  C   UNL     1       2.145   7.709  19.094  0.00  0.00    +0.000 C 
ATOM     16  C   UNL     1       2.467   6.508  19.584  0.00  0.00    +0.000 C 
ENDROOT
BRANCH  16  17
ATOM     17  N   UNL     1       3.135   5.416  19.041  0.00  0.00    +0.000 N 
ATOM     18  C   UNL     1       4.583   5.200  19.130  0.00  0.00    +0.000 C 
ATOM     19  C   UNL     1       5.115   4.560  17.849  0.00  0.00    +0.000 C 
ATOM     20  C   UNL     1       4.351   3.294  17.484  0.00  0.00    +0.000 C 
ATOM     21  C   UNL     1       2.856   3.581  17.418  0.00  0.00    +0.000 C 
ATOM     22  C   UNL     1       2.365   4.196  18.722  0.00  0.00    +0.000 C 
ENDBRANCH  16  17
TORSDOF 1
ENDMDL
MODEL 3
REMARK VINA RESULT:      -7.4      3.269      7.397
REMARK  Name = 
REMARK  1 active torsions:
REMARK  status: ('A' for Active; 'I' for Inactive)
REMARK    1  A    between atoms: C_16  and  N_17
REMARK                            x       y       z     vdW  Elec       q    Type
REMARK                         _______ _______ _______ _____ _____    ______ ____
ROOT
ATOM      1  O   UNL     1       2.280   3.344  20.608  0.00  0.00    +0.000 OA
ATOM      2  C   UNL     1       2.520   4.369  19.984  0.00  0.00    +0.000 A 
ATOM      3  N   UNL     1       2.058   5.585  20.453  0.00  0.00    +0.000 NA
ATOM      4  C   UNL     1       2.232   6.628  19.718  0.00  0.00    +0.000 A 
ATOM      5  N   UNL     1       2.859   6.660  18.505  0.00  0.00    +0.000 N 
ATOM      6  C   UNL     1       3.462   5.525  18.000  0.00  0.00    +0.000 A 
ATOM      7  C   UNL     1       4.212   5.540  16.815  0.00  0.00    +0.000 A 
ATOM      8  C   UNL     1       4.814   4.380  16.337  0.00  0.00    +0.000 A 
ATOM      9  C   UNL     1       4.657   3.184  17.029  0.00  0.00    +0.000 A 
ATOM     10  C   UNL     1       3.908   3.137  18.211  0.00  0.00    +0.000 A 
ATOM     11 CL   UNL     1       3.787   1.579  18.949  0.00  0.00    +0.000 Cl
ATOM     12  C   UNL     1       3.319   4.310  18.711  0.00  0.00    +0.000 A 
ATOM     13  C   UNL     1       2.881   7.988  17.918  0.00  0.00    +0.000 C 
ATOM     14  C   UNL     1       2.118   8.881  18.917  0.00  0.00    +0.000 C 
ATOM     15  C   UNL     1       1.761   7.999  20.079  0.00  0.00    +0.000 C 
ATOM     16  C   UNL     1       1.100   8.250  21.214  0.00  0.00    +0.000 C 
ENDROOT
BRANCH  16  17
ATOM     17  N   UNL     1       0.551   9.410  21.750  0.00  0.00    +0.000 N 
ATOM     18  C   UNL     1       0.086   9.546  23.134  0.00  0.00    +0.000 C 
ATOM     19  C   UNL     1      -1.153  10.437  23.204  0.00  0.00    +0.000 C 
ATOM     20  C   UNL     1      -0.929  11.780  22.522  0.00  0.00    +0.000 C 
ATOM     21  C   UNL     1      -0.437  11.571  21.095  0.00  0.00    +0.000 C 
ATOM     22  C   UNL     1       0.811  10.698  21.074  0.00  0.00    +0.000 C 
ENDBRANCH  16  17
TORSDOF 1
ENDMDL
MODEL 4
REMARK VINA RESULT:      -7.3      0.923      1.473
REMARK  Name = 
REMARK  1 active torsions:
REMARK  status: ('A' for Active; 'I' for Inactive)
REMARK    1  A    between atoms: C_16  and  N_17
REMARK                            x       y       z     vdW  Elec       q    Type
REMARK                         _______ _______ _______ _____ _____    ______ ____
ROOT
ATOM      1  O   UNL     1       0.169  10.078  23.120  0.00  0.00    +0.000 OA
ATOM      2  C   UNL     1       0.376  10.006  21.916  0.00  0.00    +0.000 A 
ATOM      3  N   UNL     1       0.965   8.874  21.386  0.00  0.00    +0.000 NA
ATOM      4  C   UNL     1       1.270   8.874  20.134  0.00  0.00    +0.000 A 
ATOM      5  N   UNL     1       1.047   9.894  19.254  0.00  0.00    +0.000 N 
ATOM      6  C   UNL     1       0.357  11.023  19.653  0.00  0.00    +0.000 A 
ATOM      7  C   UNL     1       0.008  12.042  18.755  0.00  0.00    +0.000 A 
ATOM      8  C   UNL     1      -0.694  13.163  19.187  0.00  0.00    +0.000 A 
ATOM      9  C   UNL     1      -1.039  13.288  20.528  0.00  0.00    +0.000 A 
ATOM     10  C   UNL     1      -0.698  12.290  21.449  0.00  0.00    +0.000 A 
ATOM     11 CL   UNL     1      -1.178  12.592  23.081  0.00  0.00    +0.000 Cl
ATOM     12  C   UNL     1      -0.011  11.145  21.014  0.00  0.00    +0.000 A 
ATOM     13  C   UNL     1       1.519   9.595  17.914  0.00  0.00    +0.000 C 
ATOM     14  C   UNL     1       2.155   8.193  18.017  0.00  0.00    +0.000 C 
ATOM     15  C   UNL     1       1.936   7.736  19.431  0.00  0.00    +0.000 C 
ATOM     16  C   UNL     1       2.282   6.611  20.064  0.00  0.00    +0.000 C 
ENDROOT
BRANCH  16  17
ATOM     17  N   UNL     1       2.918   5.448  19.642  0.00  0.00    +0.000 N 
ATOM     18  C   UNL     1       2.257   4.148  19.496  0.00  0.00    +0.000 C 
ATOM     19  C   UNL     1       3.200   3.013  19.893  0.00  0.00    +0.000 C 
ATOM     20  C   UNL     1       4.527   3.088  19.150  0.00  0.00    +0.000 C 
ATOM     21  C   UNL     1       5.157   4.464  19.332  0.00  0.00    +0.000 C 
ATOM     22  C   UNL     1       4.192   5.562  18.903  0.00  0.00    +0.000 C 
ENDBRANCH  16  17
TORSDOF 1
ENDMDL
MODEL 5
REMARK VINA RESULT:      -7.2      4.713      6.692
REMARK  Name = 
REMARK  1 active torsions:
REMARK  status: ('A' for Active; 'I' for Inactive)
REMARK    1  A    between atoms: C_16  and  N_17
REMARK                            x       y       z     vdW  Elec       q    Type
REMARK                         _______ _______ _______ _____ _____    ______ ____
ROOT
ATOM      1  O   UNL     1       3.133   2.200  19.248  0.00  0.00    +0.000 OA
ATOM      2  C   UNL     1       3.291   3.320  18.780  0.00  0.00    +0.000 A 
ATOM      3  N   UNL     1       4.009   3.482  17.610  0.00  0.00    +0.000 NA
ATOM      4  C   UNL     1       4.252   4.680  17.204  0.00  0.00    +0.000 A 
ATOM      5  N   UNL     1       3.845   5.832  17.815  0.00  0.00    +0.000 N 
ATOM      6  C   UNL     1       3.022   5.783  18.923  0.00  0.00    +0.000 A 
ATOM      7  C   UNL     1       2.490   6.939  19.513  0.00  0.00    +0.000 A 
ATOM      8  C   UNL     1       1.657   6.855  20.624  0.00  0.00    +0.000 A 
ATOM      9  C   UNL     1       1.362   5.612  21.173  0.00  0.00    +0.000 A 
ATOM     10  C   UNL     1       1.884   4.440  20.611  0.00  0.00    +0.000 A 
ATOM     11 CL   UNL     1       1.443   2.974  21.412  0.00  0.00    +0.000 Cl
ATOM     12  C   UNL     1       2.705   4.518  19.474  0.00  0.00    +0.000 A 
ATOM     13  C   UNL     1       4.291   7.026  17.119  0.00  0.00    +0.000 C 
ATOM     14  C   UNL     1       5.124   6.508  15.929  0.00  0.00    +0.000 C 
ATOM     15  C   UNL     1       5.039   5.009  15.978  0.00  0.00    +0.000 C 
ATOM     16  C   UNL     1       5.570   4.063  15.197  0.00  0.00    +0.000 C 
ENDROOT
BRANCH  16  17
ATOM     17  N   UNL     1       6.344   4.118  14.042  0.00  0.00    +0.000 N 
ATOM     18  C   UNL     1       7.617   4.836  13.930  0.00  0.00    +0.000 C 
ATOM     19  C   UNL     1       7.767   5.460  12.544  0.00  0.00    +0.000 C 
ATOM     20  C   UNL     1       7.567   4.437  11.433  0.00  0.00    +0.000 C 
ATOM     21  C   UNL     1       6.235   3.719  11.612  0.00  0.00    +0.000 C 
ATOM     22  C   UNL     1       6.138   3.093  12.998  0.00  0.00    +0.000 C 
ENDBRANCH  16  17
TORSDOF 1
ENDMDL
MODEL 6
REMARK VINA RESULT:      -7.2      1.036      1.174
REMARK  Name = 
REMARK  1 active torsions:
REMARK  status: ('A' for Active; 'I' for Inactive)
REMARK    1  A    between atoms: C_16  and  N_17
REMARK                            x       y       z     vdW  Elec       q    Type
REMARK                         _______ _______ _______ _____ _____    ______ ____
ROOT
ATOM      1  O   UNL     1      -0.124  10.587  23.217  0.00  0.00    +0.000 OA
ATOM      2  C   UNL     1       0.186  10.449  22.041  0.00  0.00    +0.000 A 
ATOM      3  N   UNL     1       0.665   9.232  21.594  0.00  0.00    +0.000 NA
ATOM      4  C   UNL     1       1.086   9.151  20.379  0.00  0.00    +0.000 A 
ATOM      5  N   UNL     1       1.089  10.162  19.462  0.00  0.00    +0.000 N 
ATOM      6  C   UNL     1       0.523  11.385  19.767  0.00  0.00    +0.000 A 
ATOM      7  C   UNL     1       0.403  12.412  18.820  0.00  0.00    +0.000 A 
ATOM      8  C   UNL     1      -0.179  13.630  19.158  0.00  0.00    +0.000 A 
ATOM      9  C   UNL     1      -0.631  13.843  20.455  0.00  0.00    +0.000 A 
ATOM     10  C   UNL     1      -0.519  12.839  21.425  0.00  0.00    +0.000 A 
ATOM     11 CL   UNL     1      -1.108  13.256  22.995  0.00  0.00    +0.000 Cl
ATOM     12  C   UNL     1       0.046  11.599  21.082  0.00  0.00    +0.000 A 
ATOM     13  C   UNL     1       1.642   9.760  18.181  0.00  0.00    +0.000 C 
ATOM     14  C   UNL     1       2.070   8.290  18.375  0.00  0.00    +0.000 C 
ATOM     15  C   UNL     1       1.657   7.913  19.768  0.00  0.00    +0.000 C 
ATOM     16  C   UNL     1       1.784   6.773  20.454  0.00  0.00    +0.000 C 
ENDROOT
BRANCH  16  17
ATOM     17  N   UNL     1       2.295   5.523  20.120  0.00  0.00    +0.000 N 
ATOM     18  C   UNL     1       3.662   5.284  19.648  0.00  0.00    +0.000 C 
ATOM     19  C   UNL     1       3.687   4.174  18.599  0.00  0.00    +0.000 C 
ATOM     20  C   UNL     1       3.003   2.906  19.094  0.00  0.00    +0.000 C 
ATOM     21  C   UNL     1       1.594   3.222  19.579  0.00  0.00    +0.000 C 
ATOM     22  C   UNL     1       1.619   4.316  20.639  0.00  0.00    +0.000 C 
ENDBRANCH  16  17
TORSDOF 1
ENDMDL
MODEL 7
REMARK VINA RESULT:      -7.2      3.491      7.914
REMARK  Name = 
REMARK  1 active torsions:
REMARK  status: ('A' for Active; 'I' for Inactive)
REMARK    1  A    between atoms: C_16  and  N_17
REMARK                            x       y       z     vdW  Elec       q    Type
REMARK                         _______ _______ _______ _____ _____    ______ ____
ROOT
ATOM      1  O   UNL     1       4.626   6.647  16.446  0.00  0.00    +0.000 OA
ATOM      2  C   UNL     1       3.872   6.670  17.410  0.00  0.00    +0.000 A 
ATOM      3  N   UNL     1       3.142   7.811  17.686  0.00  0.00    +0.000 NA
ATOM      4  C   UNL     1       2.444   7.841  18.768  0.00  0.00    +0.000 A 
ATOM      5  N   UNL     1       2.333   6.831  19.680  0.00  0.00    +0.000 N 
ATOM      6  C   UNL     1       2.925   5.606  19.441  0.00  0.00    +0.000 A 
ATOM      7  C   UNL     1       2.743   4.508  20.295  0.00  0.00    +0.000 A 
ATOM      8  C   UNL     1       3.347   3.284  20.022  0.00  0.00    +0.000 A 
ATOM      9  C   UNL     1       4.159   3.149  18.901  0.00  0.00    +0.000 A 
ATOM     10  C   UNL     1       4.365   4.230  18.035  0.00  0.00    +0.000 A 
ATOM     11 CL   UNL     1       5.411   3.916  16.695  0.00  0.00    +0.000 Cl
ATOM     12  C   UNL     1       3.737   5.460  18.292  0.00  0.00    +0.000 A 
ATOM     13  C   UNL     1       1.482   7.178  20.804  0.00  0.00    +0.000 C 
ATOM     14  C   UNL     1       1.045   8.634  20.541  0.00  0.00    +0.000 C 
ATOM     15  C   UNL     1       1.631   9.014  19.211  0.00  0.00    +0.000 C 
ATOM     16  C   UNL     1       1.573  10.148  18.507  0.00  0.00    +0.000 C 
ENDROOT
BRANCH  16  17
ATOM     17  N   UNL     1       0.921  11.358  18.719  0.00  0.00    +0.000 N 
ATOM     18  C   UNL     1      -0.535  11.512  18.799  0.00  0.00    +0.000 C 
ATOM     19  C   UNL     1      -0.976  12.833  18.169  0.00  0.00    +0.000 C 
ATOM     20  C   UNL     1      -0.223  14.022  18.751  0.00  0.00    +0.000 C 
ATOM     21  C   UNL     1       1.280  13.796  18.648  0.00  0.00    +0.000 C 
ATOM     22  C   UNL     1       1.677  12.482  19.308  0.00  0.00    +0.000 C 
ENDBRANCH  16  17
TORSDOF 1
ENDMDL
MODEL 8
REMARK VINA RESULT:      -7.1      2.999      7.304
REMARK  Name = 
REMARK  1 active torsions:
REMARK  status: ('A' for Active; 'I' for Inactive)
REMARK    1  A    between atoms: C_16  and  N_17
REMARK                            x       y       z     vdW  Elec       q    Type
REMARK                         _______ _______ _______ _____ _____    ______ ____
ROOT
ATOM      1  O   UNL     1       2.130   4.553  21.229  0.00  0.00    +0.000 OA
ATOM      2  C   UNL     1       2.331   5.459  20.431  0.00  0.00    +0.000 A 
ATOM      3  N   UNL     1       1.687   6.672  20.590  0.00  0.00    +0.000 NA
ATOM      4  C   UNL     1       1.834   7.566  19.674  0.00  0.00    +0.000 A 
ATOM      5  N   UNL     1       2.596   7.442  18.548  0.00  0.00    +0.000 N 
ATOM      6  C   UNL     1       3.375   6.318  18.351  0.00  0.00    +0.000 A 
ATOM      7  C   UNL     1       4.256   6.199  17.266  0.00  0.00    +0.000 A 
ATOM      8  C   UNL     1       5.034   5.057  17.100  0.00  0.00    +0.000 A 
ATOM      9  C   UNL     1       4.924   4.009  18.007  0.00  0.00    +0.000 A 
ATOM     10  C   UNL     1       4.047   4.096  19.096  0.00  0.00    +0.000 A 
ATOM     11 CL   UNL     1       4.008   2.710  20.127  0.00  0.00    +0.000 Cl
ATOM     12  C   UNL     1       3.279   5.257  19.282  0.00  0.00    +0.000 A 
ATOM     13  C   UNL     1       2.545   8.620  17.702  0.00  0.00    +0.000 C 
ATOM     14  C   UNL     1       1.575   9.584  18.415  0.00  0.00    +0.000 C 
ATOM     15  C   UNL     1       1.177   8.907  19.695  0.00  0.00    +0.000 C 
ATOM     16  C   UNL     1       0.361   9.286  20.684  0.00  0.00    +0.000 C 
ENDROOT
BRANCH  16  17
ATOM     17  N   UNL     1      -0.370  10.447  20.911  0.00  0.00    +0.000 N 
ATOM     18  C   UNL     1      -1.140  11.157  19.885  0.00  0.00    +0.000 C 
ATOM     19  C   UNL     1      -1.068  12.667  20.102  0.00  0.00    +0.000 C 
ATOM     20  C   UNL     1      -1.470  13.060  21.518  0.00  0.00    +0.000 C 
ATOM     21  C   UNL     1      -0.644  12.282  22.535  0.00  0.00    +0.000 C 
ATOM     22  C   UNL     1      -0.763  10.782  22.296  0.00  0.00    +0.000 C 
ENDBRANCH  16  17
TORSDOF 1
ENDMDL
MODEL 9
REMARK VINA RESULT:      -7.1      2.068      3.322
REMARK  Name = 
REMARK  1 active torsions:
REMARK  status: ('A' for Active; 'I' for Inactive)
REMARK    1  A    between atoms: C_16  and  N_17
REMARK                            x       y       z     vdW  Elec       q    Type
REMARK                         _______ _______ _______ _____ _____    ______ ____
ROOT
ATOM      1  O   UNL     1       0.822  11.568  18.511  0.00  0.00    +0.000 OA
ATOM      2  C   UNL     1       0.986  10.560  19.185  0.00  0.00    +0.000 A 
ATOM      3  N   UNL     1       1.762   9.525  18.697  0.00  0.00    +0.000 NA
ATOM      4  C   UNL     1       1.824   8.434  19.380  0.00  0.00    +0.000 A 
ATOM      5  N   UNL     1       1.206   8.200  20.574  0.00  0.00    +0.000 N 
ATOM      6  C   UNL     1       0.505   9.207  21.209  0.00  0.00    +0.000 A 
ATOM      7  C   UNL     1      -0.049   9.043  22.487  0.00  0.00    +0.000 A 
ATOM      8  C   UNL     1      -0.743  10.081  23.102  0.00  0.00    +0.000 A 
ATOM      9  C   UNL     1      -0.910  11.290  22.437  0.00  0.00    +0.000 A 
ATOM     10  C   UNL     1      -0.374  11.481  21.157  0.00  0.00    +0.000 A 
ATOM     11 CL   UNL     1      -0.676  13.029  20.451  0.00  0.00    +0.000 Cl
ATOM     12  C   UNL     1       0.349  10.446  20.542  0.00  0.00    +0.000 A 
ATOM     13  C   UNL     1       1.460   6.866  21.087  0.00  0.00    +0.000 C 
ATOM     14  C   UNL     1       2.336   6.185  20.016  0.00  0.00    +0.000 C 
ATOM     15  C   UNL     1       2.596   7.225  18.964  0.00  0.00    +0.000 C 
ATOM     16  C   UNL     1       3.287   7.179  17.820  0.00  0.00    +0.000 C 
ENDROOT
BRANCH  16  17
ATOM     17  N   UNL     1       4.047   6.182  17.218  0.00  0.00    +0.000 N 
ATOM     18  C   UNL     1       3.683   4.762  17.191  0.00  0.00    +0.000 C 
ATOM     19  C   UNL     1       4.926   3.882  17.310  0.00  0.00    +0.000 C 
ATOM     20  C   UNL     1       5.980   4.240  16.270  0.00  0.00    +0.000 C 
ATOM     21  C   UNL     1       6.306   5.727  16.341  0.00  0.00    +0.000 C 
ATOM     22  C   UNL     1       5.043   6.566  16.196  0.00  0.00    +0.000 C 
ENDBRANCH  16  17
TORSDOF 1
ENDMDL
