MODEL 1
REMARK VINA RESULT:      -7.5      0.000      0.000
REMARK  Name = 
REMARK  6 active torsions:
REMARK  status: ('A' for Active; 'I' for Inactive)
REMARK    1  A    between atoms: C_1  and  C_2
REMARK    2  A    between atoms: C_8  and  S_9
REMARK    3  A    between atoms: S_9  and  C_10
REMARK    4  A    between atoms: C_10  and  C_11
REMARK    5  A    between atoms: C_17  and  C_18
REMARK    6  A    between atoms: C_23  and  C_24
REMARK                            x       y       z     vdW  Elec       q    Type
REMARK                         _______ _______ _______ _____ _____    ______ ____
ROOT
ATOM      1  C   UNL     1       0.872   7.859  20.968  0.00  0.00    +0.000 C 
ENDROOT
BRANCH   1   2
ATOM      2  C   UNL     1       1.057   9.328  21.337  0.00  0.00    +0.000 C 
ATOM      3  O   UNL     1       1.527   9.623  22.441  0.00  0.00    +0.000 OA
ATOM      4  N   UNL     1       0.688  10.310  20.422  0.00  0.00    +0.000 N 
ATOM      5  C   UNL     1       0.980  11.711  20.723  0.00  0.00    +0.000 C 
ATOM      6  C   UNL     1      -0.303  12.531  20.777  0.00  0.00    +0.000 C 
ATOM      7  C   UNL     1      -1.107  12.375  19.487  0.00  0.00    +0.000 C 
ATOM      8  C   UNL     1      -1.370  10.893  19.172  0.00  0.00    +0.000 C 
ATOM      9  C   UNL     1      -0.057  10.093  19.175  0.00  0.00    +0.000 C 
BRANCH   8  10
ATOM     10  C   UNL     1      -2.070  10.744  17.831  0.00  0.00    +0.000 C 
ATOM     11  N   UNL     1      -1.851  11.759  16.946  0.00  0.00    +0.000 N 
ATOM     12  O   UNL     1      -2.793   9.803  17.532  0.00  0.00    +0.000 OA
ATOM     13  H   UNL     1      -1.339  12.599  17.175  0.00  0.00    +0.000 HD
ATOM     14  H   UNL     1      -2.319  11.708  16.048  0.00  0.00    +0.000 HD
ENDBRANCH   8  10
ENDBRANCH   1   2
BRANCH   1  15
ATOM     15  S   UNL     1       2.236   7.383  19.865  0.00  0.00    +0.000 S 
BRANCH  15  23
ATOM     16  C   UNL     1       5.337   3.910  16.135  0.00  0.00    +0.000 C 
ATOM     17  C   UNL     1       4.329   4.015  17.236  0.00  0.00    +0.000 A 
ATOM     18  S   UNL     1       3.651   2.604  17.903  0.00  0.00    +0.000 S 
ATOM     19  C   UNL     1       2.704   3.495  18.995  0.00  0.00    +0.000 A 
ATOM     20  N   UNL     1       1.898   2.838  19.844  0.00  0.00    +0.000 NA
ATOM     21  C   UNL     1       1.224   3.655  20.652  0.00  0.00    +0.000 A 
ATOM     22  N   UNL     1       1.287   4.995  20.686  0.00  0.00    +0.000 NA
ATOM     23  C   UNL     1       2.107   5.617  19.815  0.00  0.00    +0.000 A 
ATOM     24  C   UNL     1       2.877   4.871  18.890  0.00  0.00    +0.000 A 
ATOM     25  C   UNL     1       3.834   5.175  17.824  0.00  0.00    +0.000 A 
ATOM     26  C   UNL     1       4.291   6.522  17.351  0.00  0.00    +0.000 C 
ENDBRANCH  15  23
ENDBRANCH   1  15
TORSDOF 4
ENDMDL
MODEL 2
REMARK VINA RESULT:      -7.2      2.396      3.789
REMARK  Name = 
REMARK  6 active torsions:
REMARK  status: ('A' for Active; 'I' for Inactive)
REMARK    1  A    between atoms: C_1  and  C_2
REMARK    2  A    between atoms: C_8  and  S_9
REMARK    3  A    between atoms: S_9  and  C_10
REMARK    4  A    between atoms: C_10  and  C_11
REMARK    5  A    between atoms: C_17  and  C_18
REMARK    6  A    between atoms: C_23  and  C_24
REMARK                            x       y       z     vdW  Elec       q    Type
REMARK                         _______ _______ _______ _____ _____    ______ ____
ROOT
ATOM      1  C   UNL     1       2.278   7.841  18.789  0.00  0.00    +0.000 C 
ENDROOT
BRANCH   1   2
ATOM      2  C   UNL     1       1.648   9.175  18.396  0.00  0.00    +0.000 C 
ATOM      3  O   UNL     1       2.004   9.730  17.351  0.00  0.00    +0.000 OA
ATOM      4  N   UNL     1       0.686   9.742  19.226  0.00  0.00    +0.000 N 
ATOM      5  C   UNL     1      -0.006  10.954  18.790  0.00  0.00    +0.000 C 
ATOM      6  C   UNL     1       0.235  12.097  19.769  0.00  0.00    +0.000 C 
ATOM      7  C   UNL     1      -0.153  11.691  21.190  0.00  0.00    +0.000 C 
ATOM      8  C   UNL     1       0.559  10.395  21.613  0.00  0.00    +0.000 C 
ATOM      9  C   UNL     1       0.330   9.283  20.576  0.00  0.00    +0.000 C 
BRANCH   8  10
ATOM     10  C   UNL     1       0.079   9.940  22.982  0.00  0.00    +0.000 C 
ATOM     11  N   UNL     1      -1.259  10.078  23.204  0.00  0.00    +0.000 N 
ATOM     12  O   UNL     1       0.810   9.485  23.852  0.00  0.00    +0.000 OA
ATOM     13  H   UNL     1      -1.889  10.531  22.555  0.00  0.00    +0.000 HD
ATOM     14  H   UNL     1      -1.615   9.808  24.113  0.00  0.00    +0.000 HD
ENDBRANCH   8  10
ENDBRANCH   1   2
BRANCH   1  15
ATOM     15  S   UNL     1       3.310   7.279  17.403  0.00  0.00    +0.000 S 
BRANCH  15  23
ATOM     16  C   UNL     1       1.512   1.751  18.743  0.00  0.00    +0.000 C 
ATOM     17  C   UNL     1       2.610   2.767  18.739  0.00  0.00    +0.000 A 
ATOM     18  S   UNL     1       4.158   2.345  19.308  0.00  0.00    +0.000 S 
ATOM     19  C   UNL     1       4.772   3.896  18.988  0.00  0.00    +0.000 A 
ATOM     20  N   UNL     1       6.057   4.157  19.267  0.00  0.00    +0.000 NA
ATOM     21  C   UNL     1       6.411   5.403  18.955  0.00  0.00    +0.000 A 
ATOM     22  N   UNL     1       5.634   6.354  18.414  0.00  0.00    +0.000 NA
ATOM     23  C   UNL     1       4.346   6.052  18.151  0.00  0.00    +0.000 A 
ATOM     24  C   UNL     1       3.833   4.765  18.442  0.00  0.00    +0.000 A 
ATOM     25  C   UNL     1       2.540   4.090  18.315  0.00  0.00    +0.000 A 
ATOM     26  C   UNL     1       1.249   4.657  17.805  0.00  0.00    +0.000 C 
ENDBRANCH  15  23
ENDBRANCH   1  15
TORSDOF 4
ENDMDL
MODEL 3
REMARK VINA RESULT:      -7.2      3.138      8.380
REMARK  Name = 
REMARK  6 active torsions:
REMARK  status: ('A' for Active; 'I' for Inactive)
REMARK    1  A    between atoms: C_1  and  C_2
REMARK    2  A    between atoms: C_8  and  S_9
REMARK    3  A    between atoms: S_9  and  C_10
REMARK    4  A    between atoms: C_10  and  C_11
REMARK    5  A    between atoms: C_17  and  C_18
REMARK    6  A    between atoms: C_23  and  C_24
REMARK                            x       y       z     vdW  Elec       q    Type
REMARK                         _______ _______ _______ _____ _____    ______ ____
ROOT
ATOM      1  C   UNL     1       2.416   6.851  19.857  0.00  0.00    +0.000 C 
ENDROOT
BRANCH   1   2
ATOM      2  C   UNL     1       1.865   5.428  19.804  0.00  0.00    +0.000 C 
ATOM      3  O   UNL     1       1.120   5.030  20.706  0.00  0.00    +0.000 OA
ATOM      4  N   UNL     1       2.217   4.603  18.739  0.00  0.00    +0.000 N 
ATOM      5  C   UNL     1       1.592   3.286  18.622  0.00  0.00    +0.000 C 
ATOM      6  C   UNL     1       2.643   2.183  18.669  0.00  0.00    +0.000 C 
ATOM      7  C   UNL     1       3.719   2.407  17.607  0.00  0.00    +0.000 C 
ATOM      8  C   UNL     1       4.335   3.811  17.727  0.00  0.00    +0.000 C 
ATOM      9  C   UNL     1       3.239   4.890  17.724  0.00  0.00    +0.000 C 
BRANCH   8  10
ATOM     10  C   UNL     1       5.321   4.064  16.598  0.00  0.00    +0.000 C 
ATOM     11  N   UNL     1       6.635   4.059  16.963  0.00  0.00    +0.000 N 
ATOM     12  O   UNL     1       4.999   4.270  15.436  0.00  0.00    +0.000 OA
ATOM     13  H   UNL     1       6.949   3.984  17.921  0.00  0.00    +0.000 HD
ATOM     14  H   UNL     1       7.323   4.247  16.243  0.00  0.00    +0.000 HD
ENDBRANCH   8  10
ENDBRANCH   1   2
BRANCH   1  15
ATOM     15  S   UNL     1       1.398   7.802  21.024  0.00  0.00    +0.000 S 
BRANCH  15  23
ATOM     16  C   UNL     1      -1.637  12.429  23.254  0.00  0.00    +0.000 C 
ATOM     17  C   UNL     1      -0.921  11.818  22.092  0.00  0.00    +0.000 A 
ATOM     18  S   UNL     1      -0.746  12.696  20.645  0.00  0.00    +0.000 S 
ATOM     19  C   UNL     1       0.109  11.431  19.901  0.00  0.00    +0.000 A 
ATOM     20  N   UNL     1       0.533  11.588  18.638  0.00  0.00    +0.000 NA
ATOM     21  C   UNL     1       1.200  10.528  18.183  0.00  0.00    +0.000 A 
ATOM     22  N   UNL     1       1.469   9.393  18.846  0.00  0.00    +0.000 NA
ATOM     23  C   UNL     1       1.023   9.275  20.114  0.00  0.00    +0.000 A 
ATOM     24  C   UNL     1       0.290  10.323  20.722  0.00  0.00    +0.000 A 
ATOM     25  C   UNL     1      -0.344  10.552  22.021  0.00  0.00    +0.000 A 
ATOM     26  C   UNL     1      -0.419   9.616  23.190  0.00  0.00    +0.000 C 
ENDBRANCH  15  23
ENDBRANCH   1  15
TORSDOF 4
ENDMDL
MODEL 4
REMARK VINA RESULT:      -7.2      3.097      8.335
REMARK  Name = 
REMARK  6 active torsions:
REMARK  status: ('A' for Active; 'I' for Inactive)
REMARK    1  A    between atoms: C_1  and  C_2
REMARK    2  A    between atoms: C_8  and  S_9
REMARK    3  A    between atoms: S_9  and  C_10
REMARK    4  A    between atoms: C_10  and  C_11
REMARK    5  A    between atoms: C_17  and  C_18
REMARK    6  A    between atoms: C_23  and  C_24
REMARK                            x       y       z     vdW  Elec       q    Type
REMARK                         _______ _______ _______ _____ _____    ______ ____
ROOT
ATOM      1  C   UNL     1       1.929   7.865  19.443  0.00  0.00    +0.000 C 
ENDROOT
BRANCH   1   2
ATOM      2  C   UNL     1       2.840   7.627  18.241  0.00  0.00    +0.000 C 
ATOM      3  O   UNL     1       2.738   8.355  17.247  0.00  0.00    +0.000 OA
ATOM      4  N   UNL     1       3.767   6.590  18.286  0.00  0.00    +0.000 N 
ATOM      5  C   UNL     1       4.722   6.439  17.189  0.00  0.00    +0.000 C 
ATOM      6  C   UNL     1       4.562   5.082  16.516  0.00  0.00    +0.000 C 
ATOM      7  C   UNL     1       4.672   3.948  17.535  0.00  0.00    +0.000 C 
ATOM      8  C   UNL     1       3.684   4.148  18.696  0.00  0.00    +0.000 C 
ATOM      9  C   UNL     1       3.846   5.546  19.317  0.00  0.00    +0.000 C 
BRANCH   8  10
ATOM     10  C   UNL     1       3.880   3.079  19.759  0.00  0.00    +0.000 C 
ATOM     11  N   UNL     1       5.008   2.324  19.622  0.00  0.00    +0.000 N 
ATOM     12  O   UNL     1       3.102   2.872  20.681  0.00  0.00    +0.000 OA
ATOM     13  H   UNL     1       5.634   2.393  18.831  0.00  0.00    +0.000 HD
ATOM     14  H   UNL     1       5.164   1.585  20.297  0.00  0.00    +0.000 HD
ENDBRANCH   8  10
ENDBRANCH   1   2
BRANCH   1  15
ATOM     15  S   UNL     1       1.129   9.484  19.227  0.00  0.00    +0.000 S 
BRANCH  15  23
ATOM     16  C   UNL     1      -2.232  14.224  20.574  0.00  0.00    +0.000 C 
ATOM     17  C   UNL     1      -1.518  12.996  21.042  0.00  0.00    +0.000 A 
ATOM     18  S   UNL     1      -1.606  12.535  22.677  0.00  0.00    +0.000 S 
ATOM     19  C   UNL     1      -0.635  11.166  22.413  0.00  0.00    +0.000 A 
ATOM     20  N   UNL     1      -0.349  10.361  23.448  0.00  0.00    +0.000 NA
ATOM     21  C   UNL     1       0.407   9.321  23.099  0.00  0.00    +0.000 A 
ATOM     22  N   UNL     1       0.870   9.030  21.874  0.00  0.00    +0.000 NA
ATOM     23  C   UNL     1       0.562   9.866  20.860  0.00  0.00    +0.000 A 
ATOM     24  C   UNL     1      -0.228  11.019  21.091  0.00  0.00    +0.000 A 
ATOM     25  C   UNL     1      -0.742  12.125  20.282  0.00  0.00    +0.000 A 
ATOM     26  C   UNL     1      -0.524  12.379  18.820  0.00  0.00    +0.000 C 
ENDBRANCH  15  23
ENDBRANCH   1  15
TORSDOF 4
ENDMDL
MODEL 5
REMARK VINA RESULT:      -7.2      2.328      3.884
REMARK  Name = 
REMARK  6 active torsions:
REMARK  status: ('A' for Active; 'I' for Inactive)
REMARK    1  A    between atoms: C_1  and  C_2
REMARK    2  A    between atoms: C_8  and  S_9
REMARK    3  A    between atoms: S_9  and  C_10
REMARK    4  A    between atoms: C_10  and  C_11
REMARK    5  A    between atoms: C_17  and  C_18
REMARK    6  A    between atoms: C_23  and  C_24
REMARK                            x       y       z     vdW  Elec       q    Type
REMARK                         _______ _______ _______ _____ _____    ______ ____
ROOT
ATOM      1  C   UNL     1       2.245   7.951  19.107  0.00  0.00    +0.000 C 
ENDROOT
BRANCH   1   2
ATOM      2  C   UNL     1       1.589   9.207  18.540  0.00  0.00    +0.000 C 
ATOM      3  O   UNL     1       1.988   9.670  17.467  0.00  0.00    +0.000 OA
ATOM      4  N   UNL     1       0.553   9.810  19.248  0.00  0.00    +0.000 N 
ATOM      5  C   UNL     1      -0.159  10.937  18.647  0.00  0.00    +0.000 C 
ATOM      6  C   UNL     1      -0.028  12.183  19.514  0.00  0.00    +0.000 C 
ATOM      7  C   UNL     1      -0.491  11.906  20.944  0.00  0.00    +0.000 C 
ATOM      8  C   UNL     1       0.245  10.695  21.542  0.00  0.00    +0.000 C 
ATOM      9  C   UNL     1       0.128   9.474  20.613  0.00  0.00    +0.000 C 
BRANCH   8  10
ATOM     10  C   UNL     1      -0.304  10.358  22.919  0.00  0.00    +0.000 C 
ATOM     11  N   UNL     1      -1.515  10.912  23.213  0.00  0.00    +0.000 N 
ATOM     12  O   UNL     1       0.273   9.653  23.736  0.00  0.00    +0.000 OA
ATOM     13  H   UNL     1      -1.988  11.572  22.611  0.00  0.00    +0.000 HD
ATOM     14  H   UNL     1      -1.904  10.730  24.131  0.00  0.00    +0.000 HD
ENDBRANCH   8  10
ENDBRANCH   1   2
BRANCH   1  15
ATOM     15  S   UNL     1       2.192   6.664  17.825  0.00  0.00    +0.000 S 
BRANCH  15  23
ATOM     16  C   UNL     1       1.868   2.174  21.739  0.00  0.00    +0.000 C 
ATOM     17  C   UNL     1       2.698   2.974  20.785  0.00  0.00    +0.000 A 
ATOM     18  S   UNL     1       4.325   2.555  20.518  0.00  0.00    +0.000 S 
ATOM     19  C   UNL     1       4.538   3.818  19.403  0.00  0.00    +0.000 A 
ATOM     20  N   UNL     1       5.737   3.979  18.823  0.00  0.00    +0.000 NA
ATOM     21  C   UNL     1       5.761   4.996  17.962  0.00  0.00    +0.000 A 
ATOM     22  N   UNL     1       4.746   5.814  17.645  0.00  0.00    +0.000 NA
ATOM     23  C   UNL     1       3.557   5.620  18.253  0.00  0.00    +0.000 A 
ATOM     24  C   UNL     1       3.392   4.581  19.200  0.00  0.00    +0.000 A 
ATOM     25  C   UNL     1       2.304   4.083  20.043  0.00  0.00    +0.000 A 
ATOM     26  C   UNL     1       0.909   4.622  20.164  0.00  0.00    +0.000 C 
ENDBRANCH  15  23
ENDBRANCH   1  15
TORSDOF 4
ENDMDL
MODEL 6
REMARK VINA RESULT:      -7.1      2.850      8.251
REMARK  Name = 
REMARK  6 active torsions:
REMARK  status: ('A' for Active; 'I' for Inactive)
REMARK    1  A    between atoms: C_1  and  C_2
REMARK    2  A    between atoms: C_8  and  S_9
REMARK    3  A    between atoms: S_9  and  C_10
REMARK    4  A    between atoms: C_10  and  C_11
REMARK    5  A    between atoms: C_17  and  C_18
REMARK    6  A    between atoms: C_23  and  C_24
REMARK                            x       y       z     vdW  Elec       q    Type
REMARK                         _______ _______ _______ _____ _____    ______ ____
ROOT
ATOM      1  C   UNL     1       1.600   8.782  19.201  0.00  0.00    +0.000 C 
ENDROOT
BRANCH   1   2
ATOM      2  C   UNL     1       2.527   7.996  18.277  0.00  0.00    +0.000 C 
ATOM      3  O   UNL     1       2.848   8.476  17.185  0.00  0.00    +0.000 OA
ATOM      4  N   UNL     1       2.991   6.747  18.683  0.00  0.00    +0.000 N 
ATOM      5  C   UNL     1       3.975   6.050  17.857  0.00  0.00    +0.000 C 
ATOM      6  C   UNL     1       3.430   4.708  17.383  0.00  0.00    +0.000 C 
ATOM      7  C   UNL     1       2.964   3.859  18.564  0.00  0.00    +0.000 C 
ATOM      8  C   UNL     1       1.957   4.626  19.438  0.00  0.00    +0.000 C 
ATOM      9  C   UNL     1       2.527   5.992  19.855  0.00  0.00    +0.000 C 
BRANCH   8  10
ATOM     10  C   UNL     1       1.588   3.816  20.670  0.00  0.00    +0.000 C 
ATOM     11  N   UNL     1       0.510   2.993  20.523  0.00  0.00    +0.000 N 
ATOM     12  O   UNL     1       2.184   3.876  21.738  0.00  0.00    +0.000 OA
ATOM     13  H   UNL     1      -0.069   2.975  19.695  0.00  0.00    +0.000 HD
ATOM     14  H   UNL     1       0.218   2.453  21.329  0.00  0.00    +0.000 HD
ENDBRANCH   8  10
ENDBRANCH   1   2
BRANCH   1  15
ATOM     15  S   UNL     1       0.548   9.843  18.166  0.00  0.00    +0.000 S 
BRANCH  15  23
ATOM     16  C   UNL     1      -5.102  11.721  17.788  0.00  0.00    +0.000 C 
ATOM     17  C   UNL     1      -3.807  11.725  18.536  0.00  0.00    +0.000 A 
ATOM     18  S   UNL     1      -3.679  12.570  20.008  0.00  0.00    +0.000 S 
ATOM     19  C   UNL     1      -2.055  12.114  20.206  0.00  0.00    +0.000 A 
ATOM     20  N   UNL     1      -1.389  12.535  21.292  0.00  0.00    +0.000 NA
ATOM     21  C   UNL     1      -0.132  12.095  21.329  0.00  0.00    +0.000 A 
ATOM     22  N   UNL     1       0.479  11.310  20.429  0.00  0.00    +0.000 NA
ATOM     23  C   UNL     1      -0.225  10.910  19.350  0.00  0.00    +0.000 A 
ATOM     24  C   UNL     1      -1.571  11.313  19.177  0.00  0.00    +0.000 A 
ATOM     25  C   UNL     1      -2.616  11.101  18.174  0.00  0.00    +0.000 A 
ATOM     26  C   UNL     1      -2.522  10.329  16.892  0.00  0.00    +0.000 C 
ENDBRANCH  15  23
ENDBRANCH   1  15
TORSDOF 4
ENDMDL
MODEL 7
REMARK VINA RESULT:      -7.1      1.861      2.769
REMARK  Name = 
REMARK  6 active torsions:
REMARK  status: ('A' for Active; 'I' for Inactive)
REMARK    1  A    between atoms: C_1  and  C_2
REMARK    2  A    between atoms: C_8  and  S_9
REMARK    3  A    between atoms: S_9  and  C_10
REMARK    4  A    between atoms: C_10  and  C_11
REMARK    5  A    between atoms: C_17  and  C_18
REMARK    6  A    between atoms: C_23  and  C_24
REMARK                            x       y       z     vdW  Elec       q    Type
REMARK                         _______ _______ _______ _____ _____    ______ ____
ROOT
ATOM      1  C   UNL     1       1.247   9.292  19.059  0.00  0.00    +0.000 C 
ENDROOT
BRANCH   1   2
ATOM      2  C   UNL     1       0.739  10.299  20.088  0.00  0.00    +0.000 C 
ATOM      3  O   UNL     1       1.150  10.240  21.251  0.00  0.00    +0.000 OA
ATOM      4  N   UNL     1      -0.184  11.264  19.694  0.00  0.00    +0.000 N 
ATOM      5  C   UNL     1      -0.576  12.304  20.645  0.00  0.00    +0.000 C 
ATOM      6  C   UNL     1      -2.075  12.253  20.913  0.00  0.00    +0.000 C 
ATOM      7  C   UNL     1      -2.868  12.336  19.609  0.00  0.00    +0.000 C 
ATOM      8  C   UNL     1      -2.413  11.257  18.612  0.00  0.00    +0.000 C 
ATOM      9  C   UNL     1      -0.890  11.311  18.407  0.00  0.00    +0.000 C 
BRANCH   8  10
ATOM     10  C   UNL     1      -3.126  11.420  17.280  0.00  0.00    +0.000 C 
ATOM     11  N   UNL     1      -2.311  11.486  16.188  0.00  0.00    +0.000 N 
ATOM     12  O   UNL     1      -4.341  11.499  17.154  0.00  0.00    +0.000 OA
ATOM     13  H   UNL     1      -1.302  11.517  16.246  0.00  0.00    +0.000 HD
ATOM     14  H   UNL     1      -2.747  11.618  15.283  0.00  0.00    +0.000 HD
ENDBRANCH   8  10
ENDBRANCH   1   2
BRANCH   1  15
ATOM     15  S   UNL     1       1.743   7.786  19.947  0.00  0.00    +0.000 S 
BRANCH  15  23
ATOM     16  C   UNL     1       1.816   1.870  19.176  0.00  0.00    +0.000 C 
ATOM     17  C   UNL     1       2.345   3.213  18.779  0.00  0.00    +0.000 A 
ATOM     18  S   UNL     1       3.479   3.339  17.518  0.00  0.00    +0.000 S 
ATOM     19  C   UNL     1       3.556   5.029  17.665  0.00  0.00    +0.000 A 
ATOM     20  N   UNL     1       4.367   5.717  16.848  0.00  0.00    +0.000 NA
ATOM     21  C   UNL     1       4.320   7.032  17.061  0.00  0.00    +0.000 A 
ATOM     22  N   UNL     1       3.570   7.680  17.966  0.00  0.00    +0.000 NA
ATOM     23  C   UNL     1       2.770   6.951  18.771  0.00  0.00    +0.000 A 
ATOM     24  C   UNL     1       2.728   5.540  18.660  0.00  0.00    +0.000 A 
ATOM     25  C   UNL     1       2.023   4.448  19.334  0.00  0.00    +0.000 A 
ATOM     26  C   UNL     1       1.058   4.540  20.478  0.00  0.00    +0.000 C 
ENDBRANCH  15  23
ENDBRANCH   1  15
TORSDOF 4
ENDMDL
MODEL 8
REMARK VINA RESULT:      -7.1      2.838      8.127
REMARK  Name = 
REMARK  6 active torsions:
REMARK  status: ('A' for Active; 'I' for Inactive)
REMARK    1  A    between atoms: C_1  and  C_2
REMARK    2  A    between atoms: C_8  and  S_9
REMARK    3  A    between atoms: S_9  and  C_10
REMARK    4  A    between atoms: C_10  and  C_11
REMARK    5  A    between atoms: C_17  and  C_18
REMARK    6  A    between atoms: C_23  and  C_24
REMARK                            x       y       z     vdW  Elec       q    Type
REMARK                         _______ _______ _______ _____ _____    ______ ____
ROOT
ATOM      1  C   UNL     1       1.799   8.131  19.015  0.00  0.00    +0.000 C 
ENDROOT
BRANCH   1   2
ATOM      2  C   UNL     1       2.943   7.461  18.258  0.00  0.00    +0.000 C 
ATOM      3  O   UNL     1       3.606   8.119  17.450  0.00  0.00    +0.000 OA
ATOM      4  N   UNL     1       3.214   6.115  18.491  0.00  0.00    +0.000 N 
ATOM      5  C   UNL     1       4.385   5.506  17.861  0.00  0.00    +0.000 C 
ATOM      6  C   UNL     1       3.972   4.352  16.955  0.00  0.00    +0.000 C 
ATOM      7  C   UNL     1       3.131   3.330  17.719  0.00  0.00    +0.000 C 
ATOM      8  C   UNL     1       1.927   4.000  18.402  0.00  0.00    +0.000 C 
ATOM      9  C   UNL     1       2.382   5.187  19.267  0.00  0.00    +0.000 C 
BRANCH   8  10
ATOM     10  C   UNL     1       1.163   2.997  19.250  0.00  0.00    +0.000 C 
ATOM     11  N   UNL     1       1.017   1.759  18.696  0.00  0.00    +0.000 N 
ATOM     12  O   UNL     1       0.690   3.244  20.351  0.00  0.00    +0.000 OA
ATOM     13  H   UNL     1       1.309   1.530  17.755  0.00  0.00    +0.000 HD
ATOM     14  H   UNL     1       0.494   1.068  19.220  0.00  0.00    +0.000 HD
ENDBRANCH   8  10
ENDBRANCH   1   2
BRANCH   1  15
ATOM     15  S   UNL     1       1.104   9.427  17.946  0.00  0.00    +0.000 S 
BRANCH  15  23
ATOM     16  C   UNL     1      -4.489  11.483  17.686  0.00  0.00    +0.000 C 
ATOM     17  C   UNL     1      -3.168  11.475  18.386  0.00  0.00    +0.000 A 
ATOM     18  S   UNL     1      -2.958  12.377  19.814  0.00  0.00    +0.000 S 
ATOM     19  C   UNL     1      -1.344  11.873  19.974  0.00  0.00    +0.000 A 
ATOM     20  N   UNL     1      -0.625  12.317  21.016  0.00  0.00    +0.000 NA
ATOM     21  C   UNL     1       0.618  11.835  21.028  0.00  0.00    +0.000 A 
ATOM     22  N   UNL     1       1.169  10.991  20.143  0.00  0.00    +0.000 NA
ATOM     23  C   UNL     1       0.412  10.570  19.108  0.00  0.00    +0.000 A 
ATOM     24  C   UNL     1      -0.925  11.012  18.965  0.00  0.00    +0.000 A 
ATOM     25  C   UNL     1      -2.013  10.794  18.010  0.00  0.00    +0.000 A 
ATOM     26  C   UNL     1      -1.992   9.965  16.761  0.00  0.00    +0.000 C 
ENDBRANCH  15  23
ENDBRANCH   1  15
TORSDOF 4
ENDMDL
MODEL 9
REMARK VINA RESULT:      -7.0      2.988      8.320
REMARK  Name = 
REMARK  6 active torsions:
REMARK  status: ('A' for Active; 'I' for Inactive)
REMARK    1  A    between atoms: C_1  and  C_2
REMARK    2  A    between atoms: C_8  and  S_9
REMARK    3  A    between atoms: S_9  and  C_10
REMARK    4  A    between atoms: C_10  and  C_11
REMARK    5  A    between atoms: C_17  and  C_18
REMARK    6  A    between atoms: C_23  and  C_24
REMARK                            x       y       z     vdW  Elec       q    Type
REMARK                         _______ _______ _______ _____ _____    ______ ____
ROOT
ATOM      1  C   UNL     1       1.936   7.863  20.037  0.00  0.00    +0.000 C 
ENDROOT
BRANCH   1   2
ATOM      2  C   UNL     1       2.407   7.095  18.805  0.00  0.00    +0.000 C 
ATOM      3  O   UNL     1       2.308   7.616  17.689  0.00  0.00    +0.000 OA
ATOM      4  N   UNL     1       2.935   5.816  18.963  0.00  0.00    +0.000 N 
ATOM      5  C   UNL     1       3.500   5.131  17.801  0.00  0.00    +0.000 C 
ATOM      6  C   UNL     1       2.757   3.828  17.529  0.00  0.00    +0.000 C 
ATOM      7  C   UNL     1       2.739   2.938  18.771  0.00  0.00    +0.000 C 
ATOM      8  C   UNL     1       2.175   3.692  19.987  0.00  0.00    +0.000 C 
ATOM      9  C   UNL     1       2.920   5.021  20.198  0.00  0.00    +0.000 C 
BRANCH   8  10
ATOM     10  C   UNL     1       2.268   2.837  21.240  0.00  0.00    +0.000 C 
ATOM     11  N   UNL     1       1.095   2.666  21.915  0.00  0.00    +0.000 N 
ATOM     12  O   UNL     1       3.301   2.328  21.652  0.00  0.00    +0.000 OA
ATOM     13  H   UNL     1       0.235   3.137  21.668  0.00  0.00    +0.000 HD
ATOM     14  H   UNL     1       1.118   2.121  22.769  0.00  0.00    +0.000 HD
ENDBRANCH   8  10
ENDBRANCH   1   2
BRANCH   1  15
ATOM     15  S   UNL     1       1.094   9.371  19.469  0.00  0.00    +0.000 S 
BRANCH  15  23
ATOM     16  C   UNL     1      -0.708  15.021  20.114  0.00  0.00    +0.000 C 
ATOM     17  C   UNL     1      -0.529  13.665  20.720  0.00  0.00    +0.000 A 
ATOM     18  S   UNL     1      -1.044  13.373  22.315  0.00  0.00    +0.000 S 
ATOM     19  C   UNL     1      -0.546  11.751  22.250  0.00  0.00    +0.000 A 
ATOM     20  N   UNL     1      -0.723  10.973  23.329  0.00  0.00    +0.000 NA
ATOM     21  C   UNL     1      -0.301   9.723  23.139  0.00  0.00    +0.000 A 
ATOM     22  N   UNL     1       0.246   9.213  22.025  0.00  0.00    +0.000 NA
ATOM     23  C   UNL     1       0.409  10.029  20.963  0.00  0.00    +0.000 A 
ATOM     24  C   UNL     1       0.014  11.387  21.030  0.00  0.00    +0.000 A 
ATOM     25  C   UNL     1       0.038  12.540  20.128  0.00  0.00    +0.000 A 
ATOM     26  C   UNL     1       0.578  12.607  18.730  0.00  0.00    +0.000 C 
ENDBRANCH  15  23
ENDBRANCH   1  15
TORSDOF 4
ENDMDL
