MODEL 1
REMARK VINA RESULT:      -7.9      0.000      0.000
REMARK  Name = 
REMARK  11 active torsions:
REMARK  status: ('A' for Active; 'I' for Inactive)
REMARK    1  A    between atoms: C_1  and  O_2
REMARK    2  A    between atoms: O_2  and  C_3
REMARK    3  A    between atoms: C_6  and  C_7
REMARK    4  A    between atoms: N_8  and  N_9
REMARK    5  A    between atoms: C_10  and  C_12
REMARK    6  A    between atoms: C_12  and  N_13
REMARK    7  A    between atoms: N_13  and  C_14
REMARK    8  A    between atoms: N_13  and  S_15
REMARK    9  A    between atoms: S_15  and  C_18
REMARK   10  A    between atoms: C_21  and  N_22
REMARK   11  A    between atoms: C_23  and  C_24
REMARK                            x       y       z     vdW  Elec       q    Type
REMARK                         _______ _______ _______ _____ _____    ______ ____
ROOT
ATOM      1  N   UNL     1       5.829   4.982  17.176  0.00  0.00    +0.000 NA
ATOM      2  C   UNL     1       6.081   4.107  15.993  0.00  0.00    +0.000 C 
ENDROOT
BRANCH   1   3
ATOM      3  S   UNL     1       4.714   4.249  18.268  0.00  0.00    +0.000 S 
ATOM      4  O   UNL     1       3.923   3.289  17.526  0.00  0.00    +0.000 OA
ATOM      5  O   UNL     1       5.449   3.867  19.451  0.00  0.00    +0.000 OA
BRANCH   3   6
ATOM      6  C   UNL     1       3.634   5.595  18.687  0.00  0.00    +0.000 A 
ATOM      7  C   UNL     1       2.881   5.507  19.856  0.00  0.00    +0.000 A 
ATOM      8  C   UNL     1       2.061   6.574  20.235  0.00  0.00    +0.000 A 
ATOM      9  C   UNL     1       1.990   7.734  19.457  0.00  0.00    +0.000 A 
ATOM     10  C   UNL     1       2.744   7.803  18.275  0.00  0.00    +0.000 A 
ATOM     11  C   UNL     1       3.572   6.739  17.890  0.00  0.00    +0.000 A 
BRANCH   9  12
ATOM     12  N   UNL     1       1.214   8.862  19.810  0.00  0.00    +0.000 N 
ATOM     13  C   UNL     1       1.046   9.389  21.081  0.00  0.00    +0.000 C 
ATOM     14  C   UNL     1       0.193  10.634  21.106  0.00  0.00    +0.000 C 
ATOM     15  O   UNL     1       1.491   8.933  22.128  0.00  0.00    +0.000 OA
ATOM     16  H   UNL     1       0.756   9.348  19.047  0.00  0.00    +0.000 HD
ENDBRANCH   9  12
ENDBRANCH   3   6
ENDBRANCH   1   3
BRANCH   1  17
ATOM     17  C   UNL     1       7.111   5.371  17.843  0.00  0.00    +0.000 C 
BRANCH  17  19
ATOM     18  N   UNL     1       7.902   7.590  18.475  0.00  0.00    +0.000 N 
ATOM     19  C   UNL     1       7.642   6.726  17.418  0.00  0.00    +0.000 C 
ATOM     20  O   UNL     1       7.838   6.985  16.231  0.00  0.00    +0.000 OA
ATOM     21  H   UNL     1       7.627   7.355  19.423  0.00  0.00    +0.000 HD
BRANCH  18  23
ATOM     22  C   UNL     1       8.993   9.479  19.133  0.00  0.00    +0.000 C 
ATOM     23  N   UNL     1       8.419   8.813  18.185  0.00  0.00    +0.000 NA
BRANCH  22  27
ATOM     24  C   UNL     1      10.664  13.337  18.311  0.00  0.00    +0.000 A 
ATOM     25  C   UNL     1      11.251  12.501  19.260  0.00  0.00    +0.000 A 
ATOM     26  C   UNL     1      10.710  11.244  19.524  0.00  0.00    +0.000 A 
ATOM     27  C   UNL     1       9.560  10.819  18.850  0.00  0.00    +0.000 A 
ATOM     28  C   UNL     1       8.952  11.660  17.915  0.00  0.00    +0.000 A 
ATOM     29  C   UNL     1       9.507  12.921  17.646  0.00  0.00    +0.000 A 
BRANCH  24  31
ATOM     30  C   UNL     1      10.934  15.272  16.977  0.00  0.00    +0.000 C 
ATOM     31  O   UNL     1      11.283  14.545  18.148  0.00  0.00    +0.000 OA
ENDBRANCH  24  31
ENDBRANCH  22  27
ENDBRANCH  18  23
ENDBRANCH  17  19
ENDBRANCH   1  17
TORSDOF 8
ENDMDL
MODEL 2
REMARK VINA RESULT:      -7.9      1.224      1.481
REMARK  Name = 
REMARK  11 active torsions:
REMARK  status: ('A' for Active; 'I' for Inactive)
REMARK    1  A    between atoms: C_1  and  O_2
REMARK    2  A    between atoms: O_2  and  C_3
REMARK    3  A    between atoms: C_6  and  C_7
REMARK    4  A    between atoms: N_8  and  N_9
REMARK    5  A    between atoms: C_10  and  C_12
REMARK    6  A    between atoms: C_12  and  N_13
REMARK    7  A    between atoms: N_13  and  C_14
REMARK    8  A    between atoms: N_13  and  S_15
REMARK    9  A    between atoms: S_15  and  C_18
REMARK   10  A    between atoms: C_21  and  N_22
REMARK   11  A    between atoms: C_23  and  C_24
REMARK                            x       y       z     vdW  Elec       q    Type
REMARK                         _______ _______ _______ _____ _____    ______ ____
ROOT
ATOM      1  N   UNL     1       5.574   5.018  17.096  0.00  0.00    +0.000 NA
ATOM      2  C   UNL     1       5.332   4.534  15.705  0.00  0.00    +0.000 C 
ENDROOT
BRANCH   1   3
ATOM      3  S   UNL     1       4.502   4.262  18.216  0.00  0.00    +0.000 S 
ATOM      4  O   UNL     1       3.672   3.329  17.482  0.00  0.00    +0.000 OA
ATOM      5  O   UNL     1       5.285   3.840  19.354  0.00  0.00    +0.000 OA
BRANCH   3   6
ATOM      6  C   UNL     1       3.453   5.603  18.720  0.00  0.00    +0.000 A 
ATOM      7  C   UNL     1       2.644   5.431  19.841  0.00  0.00    +0.000 A 
ATOM      8  C   UNL     1       1.846   6.488  20.288  0.00  0.00    +0.000 A 
ATOM      9  C   UNL     1       1.853   7.721  19.628  0.00  0.00    +0.000 A 
ATOM     10  C   UNL     1       2.664   7.875  18.493  0.00  0.00    +0.000 A 
ATOM     11  C   UNL     1       3.470   6.821  18.039  0.00  0.00    +0.000 A 
BRANCH   9  12
ATOM     12  N   UNL     1       1.103   8.840  20.059  0.00  0.00    +0.000 N 
ATOM     13  C   UNL     1       1.093   9.392  21.329  0.00  0.00    +0.000 C 
ATOM     14  C   UNL     1       0.219  10.618  21.443  0.00  0.00    +0.000 C 
ATOM     15  O   UNL     1       1.684   8.972  22.317  0.00  0.00    +0.000 OA
ATOM     16  H   UNL     1       0.535   9.297  19.354  0.00  0.00    +0.000 HD
ENDBRANCH   9  12
ENDBRANCH   3   6
ENDBRANCH   1   3
BRANCH   1  17
ATOM     17  C   UNL     1       7.012   4.856  17.482  0.00  0.00    +0.000 C 
BRANCH  17  19
ATOM     18  N   UNL     1       7.712   7.186  17.654  0.00  0.00    +0.000 N 
ATOM     19  C   UNL     1       7.553   5.985  18.335  0.00  0.00    +0.000 C 
ATOM     20  O   UNL     1       7.791   5.817  19.531  0.00  0.00    +0.000 OA
ATOM     21  H   UNL     1       7.594   7.236  16.647  0.00  0.00    +0.000 HD
BRANCH  18  23
ATOM     22  C   UNL     1       8.442   9.343  17.708  0.00  0.00    +0.000 C 
ATOM     23  N   UNL     1       8.156   8.263  18.356  0.00  0.00    +0.000 NA
BRANCH  22  27
ATOM     24  C   UNL     1       9.898  12.762  19.840  0.00  0.00    +0.000 A 
ATOM     25  C   UNL     1       9.955  11.494  20.416  0.00  0.00    +0.000 A 
ATOM     26  C   UNL     1       9.485  10.380  19.720  0.00  0.00    +0.000 A 
ATOM     27  C   UNL     1       8.935  10.532  18.443  0.00  0.00    +0.000 A 
ATOM     28  C   UNL     1       8.853  11.802  17.868  0.00  0.00    +0.000 A 
ATOM     29  C   UNL     1       9.335  12.918  18.569  0.00  0.00    +0.000 A 
BRANCH  24  31
ATOM     30  C   UNL     1       9.560  14.159  21.718  0.00  0.00    +0.000 C 
ATOM     31  O   UNL     1      10.382  13.772  20.624  0.00  0.00    +0.000 OA
ENDBRANCH  24  31
ENDBRANCH  22  27
ENDBRANCH  18  23
ENDBRANCH  17  19
ENDBRANCH   1  17
TORSDOF 8
ENDMDL
MODEL 3
REMARK VINA RESULT:      -7.8      1.568      1.669
REMARK  Name = 
REMARK  11 active torsions:
REMARK  status: ('A' for Active; 'I' for Inactive)
REMARK    1  A    between atoms: C_1  and  O_2
REMARK    2  A    between atoms: O_2  and  C_3
REMARK    3  A    between atoms: C_6  and  C_7
REMARK    4  A    between atoms: N_8  and  N_9
REMARK    5  A    between atoms: C_10  and  C_12
REMARK    6  A    between atoms: C_12  and  N_13
REMARK    7  A    between atoms: N_13  and  C_14
REMARK    8  A    between atoms: N_13  and  S_15
REMARK    9  A    between atoms: S_15  and  C_18
REMARK   10  A    between atoms: C_21  and  N_22
REMARK   11  A    between atoms: C_23  and  C_24
REMARK                            x       y       z     vdW  Elec       q    Type
REMARK                         _______ _______ _______ _____ _____    ______ ____
ROOT
ATOM      1  N   UNL     1       5.394   5.299  17.348  0.00  0.00    +0.000 NA
ATOM      2  C   UNL     1       5.259   5.222  15.863  0.00  0.00    +0.000 C 
ENDROOT
BRANCH   1   3
ATOM      3  S   UNL     1       4.066   4.531  18.136  0.00  0.00    +0.000 S 
ATOM      4  O   UNL     1       3.264   3.873  17.125  0.00  0.00    +0.000 OA
ATOM      5  O   UNL     1       4.590   3.809  19.271  0.00  0.00    +0.000 OA
BRANCH   3   6
ATOM      6  C   UNL     1       3.116   5.907  18.734  0.00  0.00    +0.000 A 
ATOM      7  C   UNL     1       2.520   5.811  19.989  0.00  0.00    +0.000 A 
ATOM      8  C   UNL     1       1.808   6.898  20.504  0.00  0.00    +0.000 A 
ATOM      9  C   UNL     1       1.692   8.088  19.778  0.00  0.00    +0.000 A 
ATOM     10  C   UNL     1       2.287   8.166  18.509  0.00  0.00    +0.000 A 
ATOM     11  C   UNL     1       3.005   7.080  17.986  0.00  0.00    +0.000 A 
BRANCH   9  12
ATOM     12  N   UNL     1       1.024   9.235  20.264  0.00  0.00    +0.000 N 
ATOM     13  C   UNL     1       0.858  10.441  19.602  0.00  0.00    +0.000 C 
ATOM     14  C   UNL     1       0.049  11.447  20.384  0.00  0.00    +0.000 C 
ATOM     15  O   UNL     1       1.313  10.744  18.505  0.00  0.00    +0.000 OA
ATOM     16  H   UNL     1       0.603   9.153  21.182  0.00  0.00    +0.000 HD
ENDBRANCH   9  12
ENDBRANCH   3   6
ENDBRANCH   1   3
BRANCH   1  17
ATOM     17  C   UNL     1       6.716   4.762  17.800  0.00  0.00    +0.000 C 
BRANCH  17  19
ATOM     18  N   UNL     1       7.631   7.021  17.891  0.00  0.00    +0.000 N 
ATOM     19  C   UNL     1       7.585   5.778  18.512  0.00  0.00    +0.000 C 
ATOM     20  O   UNL     1       8.160   5.493  19.562  0.00  0.00    +0.000 OA
ATOM     21  H   UNL     1       7.217   7.163  16.975  0.00  0.00    +0.000 HD
BRANCH  18  23
ATOM     22  C   UNL     1       8.311   9.193  17.983  0.00  0.00    +0.000 C 
ATOM     23  N   UNL     1       8.357   8.003  18.487  0.00  0.00    +0.000 NA
BRANCH  22  27
ATOM     24  C   UNL     1      10.599  12.325  19.801  0.00  0.00    +0.000 A 
ATOM     25  C   UNL     1       9.902  11.411  20.590  0.00  0.00    +0.000 A 
ATOM     26  C   UNL     1       9.161  10.389  19.998  0.00  0.00    +0.000 A 
ATOM     27  C   UNL     1       9.097  10.285  18.605  0.00  0.00    +0.000 A 
ATOM     28  C   UNL     1       9.774  11.210  17.807  0.00  0.00    +0.000 A 
ATOM     29  C   UNL     1      10.526  12.231  18.408  0.00  0.00    +0.000 A 
BRANCH  24  31
ATOM     30  C   UNL     1      10.846  14.623  20.304  0.00  0.00    +0.000 C 
ATOM     31  O   UNL     1      11.281  13.283  20.499  0.00  0.00    +0.000 OA
ENDBRANCH  24  31
ENDBRANCH  22  27
ENDBRANCH  18  23
ENDBRANCH  17  19
ENDBRANCH   1  17
TORSDOF 8
ENDMDL
MODEL 4
REMARK VINA RESULT:      -7.8      1.751      2.212
REMARK  Name = 
REMARK  11 active torsions:
REMARK  status: ('A' for Active; 'I' for Inactive)
REMARK    1  A    between atoms: C_1  and  O_2
REMARK    2  A    between atoms: O_2  and  C_3
REMARK    3  A    between atoms: C_6  and  C_7
REMARK    4  A    between atoms: N_8  and  N_9
REMARK    5  A    between atoms: C_10  and  C_12
REMARK    6  A    between atoms: C_12  and  N_13
REMARK    7  A    between atoms: N_13  and  C_14
REMARK    8  A    between atoms: N_13  and  S_15
REMARK    9  A    between atoms: S_15  and  C_18
REMARK   10  A    between atoms: C_21  and  N_22
REMARK   11  A    between atoms: C_23  and  C_24
REMARK                            x       y       z     vdW  Elec       q    Type
REMARK                         _______ _______ _______ _____ _____    ______ ____
ROOT
ATOM      1  N   UNL     1       4.534   5.186  17.395  0.00  0.00    +0.000 NA
ATOM      2  C   UNL     1       4.197   3.948  16.632  0.00  0.00    +0.000 C 
ENDROOT
BRANCH   1   3
ATOM      3  S   UNL     1       3.793   5.181  18.951  0.00  0.00    +0.000 S 
ATOM      4  O   UNL     1       2.800   4.127  18.973  0.00  0.00    +0.000 OA
ATOM      5  O   UNL     1       4.846   5.245  19.937  0.00  0.00    +0.000 OA
BRANCH   3   6
ATOM      6  C   UNL     1       2.911   6.723  18.970  0.00  0.00    +0.000 A 
ATOM      7  C   UNL     1       2.920   7.511  17.821  0.00  0.00    +0.000 A 
ATOM      8  C   UNL     1       2.193   8.705  17.793  0.00  0.00    +0.000 A 
ATOM      9  C   UNL     1       1.449   9.117  18.903  0.00  0.00    +0.000 A 
ATOM     10  C   UNL     1       1.459   8.319  20.058  0.00  0.00    +0.000 A 
ATOM     11  C   UNL     1       2.184   7.119  20.094  0.00  0.00    +0.000 A 
BRANCH   9  12
ATOM     12  N   UNL     1       0.659  10.290  18.920  0.00  0.00    +0.000 N 
ATOM     13  C   UNL     1      -0.534  10.495  18.245  0.00  0.00    +0.000 C 
ATOM     14  C   UNL     1      -1.151  11.845  18.519  0.00  0.00    +0.000 C 
ATOM     15  O   UNL     1      -1.081   9.720  17.470  0.00  0.00    +0.000 OA
ATOM     16  H   UNL     1       0.992  11.045  19.507  0.00  0.00    +0.000 HD
ENDBRANCH   9  12
ENDBRANCH   3   6
ENDBRANCH   1   3
BRANCH   1  17
ATOM     17  C   UNL     1       6.015   5.389  17.467  0.00  0.00    +0.000 C 
BRANCH  17  19
ATOM     18  N   UNL     1       7.531   7.261  17.855  0.00  0.00    +0.000 N 
ATOM     19  C   UNL     1       6.466   6.788  17.097  0.00  0.00    +0.000 C 
ATOM     20  O   UNL     1       5.926   7.405  16.179  0.00  0.00    +0.000 OA
ATOM     21  H   UNL     1       7.867   6.745  18.663  0.00  0.00    +0.000 HD
BRANCH  18  23
ATOM     22  C   UNL     1       8.527   9.198  18.521  0.00  0.00    +0.000 C 
ATOM     23  N   UNL     1       8.024   8.493  17.562  0.00  0.00    +0.000 NA
BRANCH  22  27
ATOM     24  C   UNL     1      10.060  13.116  17.712  0.00  0.00    +0.000 A 
ATOM     25  C   UNL     1       8.714  12.825  17.491  0.00  0.00    +0.000 A 
ATOM     26  C   UNL     1       8.214  11.551  17.758  0.00  0.00    +0.000 A 
ATOM     27  C   UNL     1       9.066  10.549  18.235  0.00  0.00    +0.000 A 
ATOM     28  C   UNL     1      10.420  10.826  18.437  0.00  0.00    +0.000 A 
ATOM     29  C   UNL     1      10.916  12.112  18.175  0.00  0.00    +0.000 A 
BRANCH  24  31
ATOM     30  C   UNL     1      11.349  15.010  18.297  0.00  0.00    +0.000 C 
ATOM     31  O   UNL     1      10.428  14.396  17.405  0.00  0.00    +0.000 OA
ENDBRANCH  24  31
ENDBRANCH  22  27
ENDBRANCH  18  23
ENDBRANCH  17  19
ENDBRANCH   1  17
TORSDOF 8
ENDMDL
MODEL 5
REMARK VINA RESULT:      -7.7      2.749      3.531
REMARK  Name = 
REMARK  11 active torsions:
REMARK  status: ('A' for Active; 'I' for Inactive)
REMARK    1  A    between atoms: C_1  and  O_2
REMARK    2  A    between atoms: O_2  and  C_3
REMARK    3  A    between atoms: C_6  and  C_7
REMARK    4  A    between atoms: N_8  and  N_9
REMARK    5  A    between atoms: C_10  and  C_12
REMARK    6  A    between atoms: C_12  and  N_13
REMARK    7  A    between atoms: N_13  and  C_14
REMARK    8  A    between atoms: N_13  and  S_15
REMARK    9  A    between atoms: S_15  and  C_18
REMARK   10  A    between atoms: C_21  and  N_22
REMARK   11  A    between atoms: C_23  and  C_24
REMARK                            x       y       z     vdW  Elec       q    Type
REMARK                         _______ _______ _______ _____ _____    ______ ____
ROOT
ATOM      1  N   UNL     1       6.905   5.131  16.249  0.00  0.00    +0.000 NA
ATOM      2  C   UNL     1       7.073   3.911  15.406  0.00  0.00    +0.000 C 
ENDROOT
BRANCH   1   3
ATOM      3  S   UNL     1       5.417   5.930  15.899  0.00  0.00    +0.000 S 
ATOM      4  O   UNL     1       5.582   7.338  16.197  0.00  0.00    +0.000 OA
ATOM      5  O   UNL     1       4.975   5.481  14.600  0.00  0.00    +0.000 OA
BRANCH   3   6
ATOM      6  C   UNL     1       4.318   5.267  17.128  0.00  0.00    +0.000 A 
ATOM      7  C   UNL     1       3.927   3.934  17.023  0.00  0.00    +0.000 A 
ATOM      8  C   UNL     1       3.103   3.374  18.004  0.00  0.00    +0.000 A 
ATOM      9  C   UNL     1       2.670   4.134  19.095  0.00  0.00    +0.000 A 
ATOM     10  C   UNL     1       3.063   5.480  19.181  0.00  0.00    +0.000 A 
ATOM     11  C   UNL     1       3.891   6.048  18.203  0.00  0.00    +0.000 A 
BRANCH   9  12
ATOM     12  N   UNL     1       1.874   3.612  20.141  0.00  0.00    +0.000 N 
ATOM     13  C   UNL     1       2.306   2.835  21.204  0.00  0.00    +0.000 C 
ATOM     14  C   UNL     1       1.206   2.486  22.176  0.00  0.00    +0.000 C 
ATOM     15  O   UNL     1       3.442   2.414  21.391  0.00  0.00    +0.000 OA
ATOM     16  H   UNL     1       0.891   3.857  20.120  0.00  0.00    +0.000 HD
ENDBRANCH   9  12
ENDBRANCH   3   6
ENDBRANCH   1   3
BRANCH   1  17
ATOM     17  C   UNL     1       7.053   4.808  17.703  0.00  0.00    +0.000 C 
BRANCH  17  19
ATOM     18  N   UNL     1       7.855   7.109  17.823  0.00  0.00    +0.000 N 
ATOM     19  C   UNL     1       7.677   5.920  18.522  0.00  0.00    +0.000 C 
ATOM     20  O   UNL     1       7.959   5.750  19.708  0.00  0.00    +0.000 OA
ATOM     21  H   UNL     1       7.695   7.156  16.822  0.00  0.00    +0.000 HD
BRANCH  18  23
ATOM     22  C   UNL     1       8.406   9.318  17.901  0.00  0.00    +0.000 C 
ATOM     23  N   UNL     1       8.372   8.171  18.496  0.00  0.00    +0.000 NA
BRANCH  22  27
ATOM     24  C   UNL     1      10.009  12.735  19.928  0.00  0.00    +0.000 A 
ATOM     25  C   UNL     1       9.507  12.854  18.632  0.00  0.00    +0.000 A 
ATOM     26  C   UNL     1       8.981  11.742  17.974  0.00  0.00    +0.000 A 
ATOM     27  C   UNL     1       8.971  10.494  18.605  0.00  0.00    +0.000 A 
ATOM     28  C   UNL     1       9.493  10.361  19.893  0.00  0.00    +0.000 A 
ATOM     29  C   UNL     1      10.013  11.485  20.554  0.00  0.00    +0.000 A 
BRANCH  24  31
ATOM     30  C   UNL     1      11.323  14.673  19.601  0.00  0.00    +0.000 C 
ATOM     31  O   UNL     1      10.502  13.893  20.460  0.00  0.00    +0.000 OA
ENDBRANCH  24  31
ENDBRANCH  22  27
ENDBRANCH  18  23
ENDBRANCH  17  19
ENDBRANCH   1  17
TORSDOF 8
ENDMDL
MODEL 6
REMARK VINA RESULT:      -7.6      1.106      1.424
REMARK  Name = 
REMARK  11 active torsions:
REMARK  status: ('A' for Active; 'I' for Inactive)
REMARK    1  A    between atoms: C_1  and  O_2
REMARK    2  A    between atoms: O_2  and  C_3
REMARK    3  A    between atoms: C_6  and  C_7
REMARK    4  A    between atoms: N_8  and  N_9
REMARK    5  A    between atoms: C_10  and  C_12
REMARK    6  A    between atoms: C_12  and  N_13
REMARK    7  A    between atoms: N_13  and  C_14
REMARK    8  A    between atoms: N_13  and  S_15
REMARK    9  A    between atoms: S_15  and  C_18
REMARK   10  A    between atoms: C_21  and  N_22
REMARK   11  A    between atoms: C_23  and  C_24
REMARK                            x       y       z     vdW  Elec       q    Type
REMARK                         _______ _______ _______ _____ _____    ______ ____
ROOT
ATOM      1  N   UNL     1       5.915   5.048  16.993  0.00  0.00    +0.000 NA
ATOM      2  C   UNL     1       6.312   4.132  15.883  0.00  0.00    +0.000 C 
ENDROOT
BRANCH   1   3
ATOM      3  S   UNL     1       4.687   4.340  17.976  0.00  0.00    +0.000 S 
ATOM      4  O   UNL     1       3.834   3.540  17.123  0.00  0.00    +0.000 OA
ATOM      5  O   UNL     1       5.331   3.777  19.140  0.00  0.00    +0.000 OA
BRANCH   3   6
ATOM      6  C   UNL     1       3.733   5.749  18.487  0.00  0.00    +0.000 A 
ATOM      7  C   UNL     1       3.709   6.872  17.662  0.00  0.00    +0.000 A 
ATOM      8  C   UNL     1       2.927   7.975  18.016  0.00  0.00    +0.000 A 
ATOM      9  C   UNL     1       2.161   7.964  19.187  0.00  0.00    +0.000 A 
ATOM     10  C   UNL     1       2.205   6.830  20.013  0.00  0.00    +0.000 A 
ATOM     11  C   UNL     1       2.985   5.719  19.664  0.00  0.00    +0.000 A 
BRANCH   9  12
ATOM     12  N   UNL     1       1.316   9.030  19.574  0.00  0.00    +0.000 N 
ATOM     13  C   UNL     1       0.413   9.707  18.770  0.00  0.00    +0.000 C 
ATOM     14  C   UNL     1      -0.374  10.761  19.510  0.00  0.00    +0.000 C 
ATOM     15  O   UNL     1       0.232   9.541  17.570  0.00  0.00    +0.000 OA
ATOM     16  H   UNL     1       1.361   9.306  20.549  0.00  0.00    +0.000 HD
ENDBRANCH   9  12
ENDBRANCH   3   6
ENDBRANCH   1   3
BRANCH   1  17
ATOM     17  C   UNL     1       7.106   5.480  17.789  0.00  0.00    +0.000 C 
BRANCH  17  19
ATOM     18  N   UNL     1       7.851   7.696  18.485  0.00  0.00    +0.000 N 
ATOM     19  C   UNL     1       7.643   6.845  17.406  0.00  0.00    +0.000 C 
ATOM     20  O   UNL     1       7.886   7.122  16.232  0.00  0.00    +0.000 OA
ATOM     21  H   UNL     1       7.538   7.445  19.417  0.00  0.00    +0.000 HD
BRANCH  18  23
ATOM     22  C   UNL     1       9.033   9.519  19.172  0.00  0.00    +0.000 C 
ATOM     23  N   UNL     1       8.370   8.927  18.233  0.00  0.00    +0.000 NA
BRANCH  22  27
ATOM     24  C   UNL     1      10.717  13.396  18.479  0.00  0.00    +0.000 A 
ATOM     25  C   UNL     1      11.146  12.623  19.558  0.00  0.00    +0.000 A 
ATOM     26  C   UNL     1      10.600  11.359  19.781  0.00  0.00    +0.000 A 
ATOM     27  C   UNL     1       9.604  10.865  18.932  0.00  0.00    +0.000 A 
ATOM     28  C   UNL     1       9.154  11.642  17.863  0.00  0.00    +0.000 A 
ATOM     29  C   UNL     1       9.712  12.910  17.638  0.00  0.00    +0.000 A 
BRANCH  24  31
ATOM     30  C   UNL     1      10.451  15.739  18.295  0.00  0.00    +0.000 C 
ATOM     31  O   UNL     1      11.322  14.617  18.373  0.00  0.00    +0.000 OA
ENDBRANCH  24  31
ENDBRANCH  22  27
ENDBRANCH  18  23
ENDBRANCH  17  19
ENDBRANCH   1  17
TORSDOF 8
ENDMDL
MODEL 7
REMARK VINA RESULT:      -7.6      1.163      1.255
REMARK  Name = 
REMARK  11 active torsions:
REMARK  status: ('A' for Active; 'I' for Inactive)
REMARK    1  A    between atoms: C_1  and  O_2
REMARK    2  A    between atoms: O_2  and  C_3
REMARK    3  A    between atoms: C_6  and  C_7
REMARK    4  A    between atoms: N_8  and  N_9
REMARK    5  A    between atoms: C_10  and  C_12
REMARK    6  A    between atoms: C_12  and  N_13
REMARK    7  A    between atoms: N_13  and  C_14
REMARK    8  A    between atoms: N_13  and  S_15
REMARK    9  A    between atoms: S_15  and  C_18
REMARK   10  A    between atoms: C_21  and  N_22
REMARK   11  A    between atoms: C_23  and  C_24
REMARK                            x       y       z     vdW  Elec       q    Type
REMARK                         _______ _______ _______ _____ _____    ______ ____
ROOT
ATOM      1  N   UNL     1       4.787   5.196  17.367  0.00  0.00    +0.000 NA
ATOM      2  C   UNL     1       4.671   4.006  16.473  0.00  0.00    +0.000 C 
ENDROOT
BRANCH   1   3
ATOM      3  S   UNL     1       3.833   5.003  18.790  0.00  0.00    +0.000 S 
ATOM      4  O   UNL     1       2.862   3.958  18.542  0.00  0.00    +0.000 OA
ATOM      5  O   UNL     1       4.736   4.942  19.916  0.00  0.00    +0.000 OA
BRANCH   3   6
ATOM      6  C   UNL     1       2.935   6.534  18.871  0.00  0.00    +0.000 A 
ATOM      7  C   UNL     1       2.248   6.843  20.043  0.00  0.00    +0.000 A 
ATOM      8  C   UNL     1       1.575   8.064  20.150  0.00  0.00    +0.000 A 
ATOM      9  C   UNL     1       1.587   8.984  19.097  0.00  0.00    +0.000 A 
ATOM     10  C   UNL     1       2.273   8.653  17.918  0.00  0.00    +0.000 A 
ATOM     11  C   UNL     1       2.953   7.432  17.803  0.00  0.00    +0.000 A 
BRANCH   9  12
ATOM     12  N   UNL     1       0.963  10.251  19.163  0.00  0.00    +0.000 N 
ATOM     13  C   UNL     1       0.816  11.045  20.289  0.00  0.00    +0.000 C 
ATOM     14  C   UNL     1       0.147  12.368  20.005  0.00  0.00    +0.000 C 
ATOM     15  O   UNL     1       1.145  10.762  21.435  0.00  0.00    +0.000 OA
ATOM     16  H   UNL     1       0.613  10.624  18.288  0.00  0.00    +0.000 HD
ENDBRANCH   9  12
ENDBRANCH   3   6
ENDBRANCH   1   3
BRANCH   1  17
ATOM     17  C   UNL     1       6.219   5.503  17.675  0.00  0.00    +0.000 C 
BRANCH  17  19
ATOM     18  N   UNL     1       7.693   7.407  18.063  0.00  0.00    +0.000 N 
ATOM     19  C   UNL     1       6.645   6.907  17.298  0.00  0.00    +0.000 C 
ATOM     20  O   UNL     1       6.103   7.505  16.369  0.00  0.00    +0.000 OA
ATOM     21  H   UNL     1       8.031   6.906  18.878  0.00  0.00    +0.000 HD
BRANCH  18  23
ATOM     22  C   UNL     1       8.798   9.301  18.681  0.00  0.00    +0.000 C 
ATOM     23  N   UNL     1       8.164   8.647  17.764  0.00  0.00    +0.000 NA
BRANCH  22  27
ATOM     24  C   UNL     1      10.327  13.208  17.817  0.00  0.00    +0.000 A 
ATOM     25  C   UNL     1      11.164  12.223  18.340  0.00  0.00    +0.000 A 
ATOM     26  C   UNL     1      10.667  10.950  18.617  0.00  0.00    +0.000 A 
ATOM     27  C   UNL     1       9.318  10.658  18.388  0.00  0.00    +0.000 A 
ATOM     28  C   UNL     1       8.469  11.646  17.886  0.00  0.00    +0.000 A 
ATOM     29  C   UNL     1       8.976  12.923  17.601  0.00  0.00    +0.000 A 
BRANCH  24  31
ATOM     30  C   UNL     1      12.314  14.369  17.268  0.00  0.00    +0.000 C 
ATOM     31  O   UNL     1      10.931  14.415  17.596  0.00  0.00    +0.000 OA
ENDBRANCH  24  31
ENDBRANCH  22  27
ENDBRANCH  18  23
ENDBRANCH  17  19
ENDBRANCH   1  17
TORSDOF 8
ENDMDL
MODEL 8
REMARK VINA RESULT:      -7.6      2.921      3.594
REMARK  Name = 
REMARK  11 active torsions:
REMARK  status: ('A' for Active; 'I' for Inactive)
REMARK    1  A    between atoms: C_1  and  O_2
REMARK    2  A    between atoms: O_2  and  C_3
REMARK    3  A    between atoms: C_6  and  C_7
REMARK    4  A    between atoms: N_8  and  N_9
REMARK    5  A    between atoms: C_10  and  C_12
REMARK    6  A    between atoms: C_12  and  N_13
REMARK    7  A    between atoms: N_13  and  C_14
REMARK    8  A    between atoms: N_13  and  S_15
REMARK    9  A    between atoms: S_15  and  C_18
REMARK   10  A    between atoms: C_21  and  N_22
REMARK   11  A    between atoms: C_23  and  C_24
REMARK                            x       y       z     vdW  Elec       q    Type
REMARK                         _______ _______ _______ _____ _____    ______ ____
ROOT
ATOM      1  N   UNL     1       7.004   5.733  15.738  0.00  0.00    +0.000 NA
ATOM      2  C   UNL     1       7.740   4.788  14.847  0.00  0.00    +0.000 C 
ENDROOT
BRANCH   1   3
ATOM      3  S   UNL     1       5.326   5.781  15.345  0.00  0.00    +0.000 S 
ATOM      4  O   UNL     1       4.923   7.170  15.263  0.00  0.00    +0.000 OA
ATOM      5  O   UNL     1       5.108   4.867  14.248  0.00  0.00    +0.000 OA
BRANCH   3   6
ATOM      6  C   UNL     1       4.563   5.106  16.800  0.00  0.00    +0.000 A 
ATOM      7  C   UNL     1       4.499   3.722  16.938  0.00  0.00    +0.000 A 
ATOM      8  C   UNL     1       3.948   3.165  18.097  0.00  0.00    +0.000 A 
ATOM      9  C   UNL     1       3.467   3.982  19.125  0.00  0.00    +0.000 A 
ATOM     10  C   UNL     1       3.528   5.376  18.966  0.00  0.00    +0.000 A 
ATOM     11  C   UNL     1       4.081   5.942  17.809  0.00  0.00    +0.000 A 
BRANCH   9  12
ATOM     12  N   UNL     1       2.941   3.479  20.337  0.00  0.00    +0.000 N 
ATOM     13  C   UNL     1       1.639   3.064  20.568  0.00  0.00    +0.000 C 
ATOM     14  C   UNL     1       1.419   2.530  21.963  0.00  0.00    +0.000 C 
ATOM     15  O   UNL     1       0.702   3.118  19.781  0.00  0.00    +0.000 OA
ATOM     16  H   UNL     1       3.595   3.390  21.106  0.00  0.00    +0.000 HD
ENDBRANCH   9  12
ENDBRANCH   3   6
ENDBRANCH   1   3
BRANCH   1  17
ATOM     17  C   UNL     1       7.245   5.415  17.180  0.00  0.00    +0.000 C 
BRANCH  17  19
ATOM     18  N   UNL     1       7.441   7.835  17.411  0.00  0.00    +0.000 N 
ATOM     19  C   UNL     1       7.683   6.605  18.010  0.00  0.00    +0.000 C 
ATOM     20  O   UNL     1       8.179   6.450  19.126  0.00  0.00    +0.000 OA
ATOM     21  H   UNL     1       7.121   7.895  16.449  0.00  0.00    +0.000 HD
BRANCH  18  23
ATOM     22  C   UNL     1       8.857   9.578  17.795  0.00  0.00    +0.000 C 
ATOM     23  N   UNL     1       7.767   8.957  18.106  0.00  0.00    +0.000 NA
BRANCH  22  27
ATOM     24  C   UNL     1      10.000  13.092  19.963  0.00  0.00    +0.000 A 
ATOM     25  C   UNL     1       9.671  11.919  20.642  0.00  0.00    +0.000 A 
ATOM     26  C   UNL     1       9.303  10.774  19.936  0.00  0.00    +0.000 A 
ATOM     27  C   UNL     1       9.244  10.800  18.539  0.00  0.00    +0.000 A 
ATOM     28  C   UNL     1       9.550  11.978  17.852  0.00  0.00    +0.000 A 
ATOM     29  C   UNL     1       9.928  13.124  18.568  0.00  0.00    +0.000 A 
BRANCH  24  31
ATOM     30  C   UNL     1       9.702  14.184  22.040  0.00  0.00    +0.000 C 
ATOM     31  O   UNL     1      10.335  14.145  20.767  0.00  0.00    +0.000 OA
ENDBRANCH  24  31
ENDBRANCH  22  27
ENDBRANCH  18  23
ENDBRANCH  17  19
ENDBRANCH   1  17
TORSDOF 8
ENDMDL
MODEL 9
REMARK VINA RESULT:      -7.5      1.794      2.270
REMARK  Name = 
REMARK  11 active torsions:
REMARK  status: ('A' for Active; 'I' for Inactive)
REMARK    1  A    between atoms: C_1  and  O_2
REMARK    2  A    between atoms: O_2  and  C_3
REMARK    3  A    between atoms: C_6  and  C_7
REMARK    4  A    between atoms: N_8  and  N_9
REMARK    5  A    between atoms: C_10  and  C_12
REMARK    6  A    between atoms: C_12  and  N_13
REMARK    7  A    between atoms: N_13  and  C_14
REMARK    8  A    between atoms: N_13  and  S_15
REMARK    9  A    between atoms: S_15  and  C_18
REMARK   10  A    between atoms: C_21  and  N_22
REMARK   11  A    between atoms: C_23  and  C_24
REMARK                            x       y       z     vdW  Elec       q    Type
REMARK                         _______ _______ _______ _____ _____    ______ ____
ROOT
ATOM      1  N   UNL     1       5.092   6.328  17.480  0.00  0.00    +0.000 NA
ATOM      2  C   UNL     1       4.839   6.406  16.011  0.00  0.00    +0.000 C 
ENDROOT
BRANCH   1   3
ATOM      3  S   UNL     1       3.760   5.607  18.305  0.00  0.00    +0.000 S 
ATOM      4  O   UNL     1       2.972   4.877  17.333  0.00  0.00    +0.000 OA
ATOM      5  O   UNL     1       4.277   4.967  19.491  0.00  0.00    +0.000 OA
BRANCH   3   6
ATOM      6  C   UNL     1       2.797   7.015  18.799  0.00  0.00    +0.000 A 
ATOM      7  C   UNL     1       2.602   8.045  17.881  0.00  0.00    +0.000 A 
ATOM      8  C   UNL     1       1.807   9.141  18.228  0.00  0.00    +0.000 A 
ATOM      9  C   UNL     1       1.197   9.216  19.484  0.00  0.00    +0.000 A 
ATOM     10  C   UNL     1       1.413   8.176  20.403  0.00  0.00    +0.000 A 
ATOM     11  C   UNL     1       2.207   7.072  20.062  0.00  0.00    +0.000 A 
BRANCH   9  12
ATOM     12  N   UNL     1       0.347  10.275  19.876  0.00  0.00    +0.000 N 
ATOM     13  C   UNL     1      -0.909  10.563  19.365  0.00  0.00    +0.000 C 
ATOM     14  C   UNL     1      -1.576  11.737  20.041  0.00  0.00    +0.000 C 
ATOM     15  O   UNL     1      -1.475   9.988  18.443  0.00  0.00    +0.000 OA
ATOM     16  H   UNL     1       0.685  10.867  20.626  0.00  0.00    +0.000 HD
ENDBRANCH   9  12
ENDBRANCH   3   6
ENDBRANCH   1   3
BRANCH   1  17
ATOM     17  C   UNL     1       6.387   5.635  17.769  0.00  0.00    +0.000 C 
BRANCH  17  19
ATOM     18  N   UNL     1       7.564   7.731  17.354  0.00  0.00    +0.000 N 
ATOM     19  C   UNL     1       7.524   6.573  18.122  0.00  0.00    +0.000 C 
ATOM     20  O   UNL     1       8.304   6.306  19.036  0.00  0.00    +0.000 OA
ATOM     21  H   UNL     1       6.954   7.847  16.551  0.00  0.00    +0.000 HD
BRANCH  18  23
ATOM     22  C   UNL     1       8.323   9.484  18.595  0.00  0.00    +0.000 C 
ATOM     23  N   UNL     1       8.530   8.647  17.633  0.00  0.00    +0.000 NA
BRANCH  22  27
ATOM     24  C   UNL     1      11.287  12.440  19.507  0.00  0.00    +0.000 A 
ATOM     25  C   UNL     1      11.038  12.075  18.185  0.00  0.00    +0.000 A 
ATOM     26  C   UNL     1      10.070  11.116  17.888  0.00  0.00    +0.000 A 
ATOM     27  C   UNL     1       9.353  10.499  18.919  0.00  0.00    +0.000 A 
ATOM     28  C   UNL     1       9.613  10.843  20.247  0.00  0.00    +0.000 A 
ATOM     29  C   UNL     1      10.582  11.815  20.540  0.00  0.00    +0.000 A 
BRANCH  24  31
ATOM     30  C   UNL     1      11.816  14.687  20.024  0.00  0.00    +0.000 C 
ATOM     31  O   UNL     1      12.262  13.384  19.668  0.00  0.00    +0.000 OA
ENDBRANCH  24  31
ENDBRANCH  22  27
ENDBRANCH  18  23
ENDBRANCH  17  19
ENDBRANCH   1  17
TORSDOF 8
ENDMDL
