MODEL 1
REMARK VINA RESULT:      -6.3      0.000      0.000
REMARK  Name = 
REMARK  8 active torsions:
REMARK  status: ('A' for Active; 'I' for Inactive)
REMARK    1  A    between atoms: C_1  and  C_2
REMARK    2  A    between atoms: C_2  and  C_3
REMARK    3  A    between atoms: C_3  and  O_4
REMARK    4  A    between atoms: O_4  and  C_5
REMARK    5  A    between atoms: C_9  and  C_10
REMARK    6  A    between atoms: N_18  and  C_19
REMARK    7  A    between atoms: C_28  and  O_29
REMARK    8  A    between atoms: O_29  and  C_30
REMARK                            x       y       z     vdW  Elec       q    Type
REMARK                         _______ _______ _______ _____ _____    ______ ____
ROOT
ATOM      1  C   UNL     1      -2.441  12.060  20.528  0.00  0.00    +0.000 C 
ATOM      2  C   UNL     1      -3.632  12.062  19.581  0.00  0.00    +0.000 C 
ATOM      3  C   UNL     1      -4.844  12.532  19.963  0.00  0.00    +0.000 C 
ATOM      4  C   UNL     1      -6.001  12.588  18.972  0.00  0.00    +0.000 C 
ATOM      5  C   UNL     1      -5.872  11.590  17.827  0.00  0.00    +0.000 C 
ATOM      6  C   UNL     1      -4.513  11.719  17.180  0.00  0.00    +0.000 C 
ATOM      7  C   UNL     1      -3.451  11.462  18.218  0.00  0.00    +0.000 C 
ATOM      8  O   UNL     1      -2.471  10.776  17.940  0.00  0.00    +0.000 OA
ATOM      9  N   UNL     1      -5.052  13.005  21.285  0.00  0.00    +0.000 N 
ATOM     10  C   UNL     1      -6.386  12.919  21.919  0.00  0.00    +0.000 C 
ATOM     11  C   UNL     1      -3.936  13.296  22.118  0.00  0.00    +0.000 C 
ATOM     12  C   UNL     1      -2.699  12.854  21.798  0.00  0.00    +0.000 C 
ATOM     13  C   UNL     1      -1.559  13.079  22.749  0.00  0.00    +0.000 C 
ATOM     14  O   UNL     1      -0.504  12.456  22.657  0.00  0.00    +0.000 OA
ATOM     15  C   UNL     1      -1.738  14.097  23.846  0.00  0.00    +0.000 C 
ATOM     16  C   UNL     1      -3.111  13.918  24.452  0.00  0.00    +0.000 C 
ATOM     17  C   UNL     1      -4.182  14.106  23.387  0.00  0.00    +0.000 C 
ENDROOT
BRANCH   1  22
ATOM     18  C   UNL     1       1.179  13.451  18.480  0.00  0.00    +0.000 A 
ATOM     19  C   UNL     1       0.131  14.330  18.870  0.00  0.00    +0.000 A 
ATOM     20 BR   UNL     1      -0.042  16.221  18.606  0.00  0.00    +0.000 Br
ATOM     21  C   UNL     1      -0.989  13.835  19.545  0.00  0.00    +0.000 A 
ATOM     22  C   UNL     1      -1.144  12.483  19.843  0.00  0.00    +0.000 A 
ATOM     23  C   UNL     1      -0.125  11.610  19.473  0.00  0.00    +0.000 A 
ATOM     24  C   UNL     1       1.029  12.077  18.806  0.00  0.00    +0.000 A 
BRANCH  24  25
ATOM     25  O   UNL     1       1.882  11.025  18.556  0.00  0.00    +0.000 OA
ATOM     26  C   UNL     1       1.369   9.729  18.308  0.00  0.00    +0.000 C 
ENDBRANCH  24  25
BRANCH  18  27
ATOM     27  O   UNL     1       2.336  13.785  17.813  0.00  0.00    +0.000 OA
BRANCH  27  28
ATOM     28  C   UNL     1       3.441  14.253  18.569  0.00  0.00    +0.000 C 
BRANCH  28  30
ATOM     29  C   UNL     1       3.412  16.404  17.343  0.00  0.00    +0.000 C 
ATOM     30  C   UNL     1       4.298  15.253  17.808  0.00  0.00    +0.000 C 
ENDBRANCH  28  30
ENDBRANCH  27  28
ENDBRANCH  18  27
ENDBRANCH   1  22
TORSDOF 5
ENDMDL
MODEL 2
REMARK VINA RESULT:      -6.2      2.372      5.045
REMARK  Name = 
REMARK  8 active torsions:
REMARK  status: ('A' for Active; 'I' for Inactive)
REMARK    1  A    between atoms: C_1  and  C_2
REMARK    2  A    between atoms: C_2  and  C_3
REMARK    3  A    between atoms: C_3  and  O_4
REMARK    4  A    between atoms: O_4  and  C_5
REMARK    5  A    between atoms: C_9  and  C_10
REMARK    6  A    between atoms: N_18  and  C_19
REMARK    7  A    between atoms: C_28  and  O_29
REMARK    8  A    between atoms: O_29  and  C_30
REMARK                            x       y       z     vdW  Elec       q    Type
REMARK                         _______ _______ _______ _____ _____    ______ ____
ROOT
ATOM      1  C   UNL     1      -3.415  14.110  21.301  0.00  0.00    +0.000 C 
ATOM      2  C   UNL     1      -3.188  14.885  22.591  0.00  0.00    +0.000 C 
ATOM      3  C   UNL     1      -4.173  15.047  23.507  0.00  0.00    +0.000 C 
ATOM      4  C   UNL     1      -3.898  15.767  24.823  0.00  0.00    +0.000 C 
ATOM      5  C   UNL     1      -2.726  16.739  24.751  0.00  0.00    +0.000 C 
ATOM      6  C   UNL     1      -1.514  16.046  24.175  0.00  0.00    +0.000 C 
ATOM      7  C   UNL     1      -1.852  15.535  22.799  0.00  0.00    +0.000 C 
ATOM      8  O   UNL     1      -1.044  15.657  21.880  0.00  0.00    +0.000 OA
ATOM      9  N   UNL     1      -5.472  14.524  23.272  0.00  0.00    +0.000 N 
ATOM     10  C   UNL     1      -6.665  15.170  23.860  0.00  0.00    +0.000 C 
ATOM     11  C   UNL     1      -5.673  13.562  22.244  0.00  0.00    +0.000 C 
ATOM     12  C   UNL     1      -4.733  13.354  21.295  0.00  0.00    +0.000 C 
ATOM     13  C   UNL     1      -5.017  12.414  20.159  0.00  0.00    +0.000 C 
ATOM     14  O   UNL     1      -4.340  12.412  19.134  0.00  0.00    +0.000 OA
ATOM     15  C   UNL     1      -6.174  11.458  20.299  0.00  0.00    +0.000 C 
ATOM     16  C   UNL     1      -7.352  12.207  20.878  0.00  0.00    +0.000 C 
ATOM     17  C   UNL     1      -6.986  12.786  22.238  0.00  0.00    +0.000 C 
ENDROOT
BRANCH   1  22
ATOM     18  C   UNL     1      -0.008  11.472  20.482  0.00  0.00    +0.000 A 
ATOM     19  C   UNL     1      -0.840  11.321  21.626  0.00  0.00    +0.000 A 
ATOM     20 BR   UNL     1      -0.719  10.064  23.068  0.00  0.00    +0.000 Br
ATOM     21  C   UNL     1      -1.930  12.174  21.823  0.00  0.00    +0.000 A 
ATOM     22  C   UNL     1      -2.237  13.209  20.942  0.00  0.00    +0.000 A 
ATOM     23  C   UNL     1      -1.436  13.368  19.814  0.00  0.00    +0.000 A 
ATOM     24  C   UNL     1      -0.338  12.512  19.573  0.00  0.00    +0.000 A 
BRANCH  24  25
ATOM     25  O   UNL     1       0.285  12.872  18.399  0.00  0.00    +0.000 OA
ATOM     26  C   UNL     1       1.471  13.644  18.424  0.00  0.00    +0.000 C 
ENDBRANCH  24  25
BRANCH  18  27
ATOM     27  O   UNL     1       1.093  10.716  20.152  0.00  0.00    +0.000 OA
BRANCH  27  28
ATOM     28  C   UNL     1       0.904   9.554  19.363  0.00  0.00    +0.000 C 
BRANCH  28  30
ATOM     29  C   UNL     1       2.427   8.325  17.846  0.00  0.00    +0.000 C 
ATOM     30  C   UNL     1       1.636   9.616  18.031  0.00  0.00    +0.000 C 
ENDBRANCH  28  30
ENDBRANCH  27  28
ENDBRANCH  18  27
ENDBRANCH   1  22
TORSDOF 5
ENDMDL
MODEL 3
REMARK VINA RESULT:      -6.1      2.570      5.344
REMARK  Name = 
REMARK  8 active torsions:
REMARK  status: ('A' for Active; 'I' for Inactive)
REMARK    1  A    between atoms: C_1  and  C_2
REMARK    2  A    between atoms: C_2  and  C_3
REMARK    3  A    between atoms: C_3  and  O_4
REMARK    4  A    between atoms: O_4  and  C_5
REMARK    5  A    between atoms: C_9  and  C_10
REMARK    6  A    between atoms: N_18  and  C_19
REMARK    7  A    between atoms: C_28  and  O_29
REMARK    8  A    between atoms: O_29  and  C_30
REMARK                            x       y       z     vdW  Elec       q    Type
REMARK                         _______ _______ _______ _____ _____    ______ ____
ROOT
ATOM      1  C   UNL     1      -1.257  13.814  21.151  0.00  0.00    +0.000 C 
ATOM      2  C   UNL     1      -2.204  13.811  22.343  0.00  0.00    +0.000 C 
ATOM      3  C   UNL     1      -2.686  14.961  22.871  0.00  0.00    +0.000 C 
ATOM      4  C   UNL     1      -3.689  14.926  24.020  0.00  0.00    +0.000 C 
ATOM      5  C   UNL     1      -3.619  13.650  24.850  0.00  0.00    +0.000 C 
ATOM      6  C   UNL     1      -3.690  12.441  23.947  0.00  0.00    +0.000 C 
ATOM      7  C   UNL     1      -2.542  12.492  22.972  0.00  0.00    +0.000 C 
ATOM      8  O   UNL     1      -1.908  11.472  22.713  0.00  0.00    +0.000 OA
ATOM      9  N   UNL     1      -2.290  16.220  22.347  0.00  0.00    +0.000 N 
ATOM     10  C   UNL     1      -2.251  17.420  23.210  0.00  0.00    +0.000 C 
ATOM     11  C   UNL     1      -1.650  16.291  21.079  0.00  0.00    +0.000 C 
ATOM     12  C   UNL     1      -1.140  15.181  20.497  0.00  0.00    +0.000 C 
ATOM     13  C   UNL     1      -0.373  15.300  19.212  0.00  0.00    +0.000 C 
ATOM     14  O   UNL     1       0.350  14.396  18.802  0.00  0.00    +0.000 OA
ATOM     15  C   UNL     1      -0.503  16.577  18.422  0.00  0.00    +0.000 C 
ATOM     16  C   UNL     1      -0.425  17.746  19.376  0.00  0.00    +0.000 C 
ATOM     17  C   UNL     1      -1.542  17.655  20.407  0.00  0.00    +0.000 C 
ENDROOT
BRANCH   1  22
ATOM     18  C   UNL     1      -2.409  10.693  18.294  0.00  0.00    +0.000 A 
ATOM     19  C   UNL     1      -3.306  11.709  18.726  0.00  0.00    +0.000 A 
ATOM     20 BR   UNL     1      -5.149  11.983  18.278  0.00  0.00    +0.000 Br
ATOM     21  C   UNL     1      -2.877  12.695  19.618  0.00  0.00    +0.000 A 
ATOM     22  C   UNL     1      -1.584  12.722  20.137  0.00  0.00    +0.000 A 
ATOM     23  C   UNL     1      -0.691  11.738  19.721  0.00  0.00    +0.000 A 
ATOM     24  C   UNL     1      -1.085  10.736  18.806  0.00  0.00    +0.000 A 
BRANCH  24  25
ATOM     25  O   UNL     1      -0.026   9.893  18.553  0.00  0.00    +0.000 OA
ATOM     26  C   UNL     1       0.960   9.663  19.543  0.00  0.00    +0.000 C 
ENDBRANCH  24  25
BRANCH  18  27
ATOM     27  O   UNL     1      -2.681   9.661  17.425  0.00  0.00    +0.000 OA
BRANCH  27  28
ATOM     28  C   UNL     1      -2.390   9.839  16.050  0.00  0.00    +0.000 C 
BRANCH  28  30
ATOM     29  C   UNL     1      -3.399  10.005  13.795  0.00  0.00    +0.000 C 
ATOM     30  C   UNL     1      -3.566  10.393  15.261  0.00  0.00    +0.000 C 
ENDBRANCH  28  30
ENDBRANCH  27  28
ENDBRANCH  18  27
ENDBRANCH   1  22
TORSDOF 5
ENDMDL
MODEL 4
REMARK VINA RESULT:      -6.1      3.282      7.234
REMARK  Name = 
REMARK  8 active torsions:
REMARK  status: ('A' for Active; 'I' for Inactive)
REMARK    1  A    between atoms: C_1  and  C_2
REMARK    2  A    between atoms: C_2  and  C_3
REMARK    3  A    between atoms: C_3  and  O_4
REMARK    4  A    between atoms: O_4  and  C_5
REMARK    5  A    between atoms: C_9  and  C_10
REMARK    6  A    between atoms: N_18  and  C_19
REMARK    7  A    between atoms: C_28  and  O_29
REMARK    8  A    between atoms: O_29  and  C_30
REMARK                            x       y       z     vdW  Elec       q    Type
REMARK                         _______ _______ _______ _____ _____    ______ ____
ROOT
ATOM      1  C   UNL     1      -0.084  12.940  21.695  0.00  0.00    +0.000 C 
ATOM      2  C   UNL     1       0.186  13.887  20.535  0.00  0.00    +0.000 C 
ATOM      3  C   UNL     1       0.747  13.456  19.380  0.00  0.00    +0.000 C 
ATOM      4  C   UNL     1       0.941  14.413  18.208  0.00  0.00    +0.000 C 
ATOM      5  C   UNL     1       1.028  15.876  18.624  0.00  0.00    +0.000 C 
ATOM      6  C   UNL     1      -0.143  16.233  19.509  0.00  0.00    +0.000 C 
ATOM      7  C   UNL     1      -0.124  15.343  20.725  0.00  0.00    +0.000 C 
ATOM      8  O   UNL     1      -0.357  15.813  21.837  0.00  0.00    +0.000 OA
ATOM      9  N   UNL     1       1.140  12.101  19.229  0.00  0.00    +0.000 N 
ATOM     10  C   UNL     1       2.261  11.733  18.338  0.00  0.00    +0.000 C 
ATOM     11  C   UNL     1       0.665  11.119  20.142  0.00  0.00    +0.000 C 
ATOM     12  C   UNL     1       0.098  11.480  21.316  0.00  0.00    +0.000 C 
ATOM     13  C   UNL     1      -0.294  10.425  22.309  0.00  0.00    +0.000 C 
ATOM     14  O   UNL     1      -0.530  10.695  23.484  0.00  0.00    +0.000 OA
ATOM     15  C   UNL     1      -0.387   8.998  21.832  0.00  0.00    +0.000 C 
ATOM     16  C   UNL     1       0.807   8.703  20.954  0.00  0.00    +0.000 C 
ATOM     17  C   UNL     1       0.829   9.651  19.763  0.00  0.00    +0.000 C 
ENDROOT
BRANCH   1  22
ATOM     18  C   UNL     1      -4.055  13.685  23.403  0.00  0.00    +0.000 A 
ATOM     19  C   UNL     1      -3.867  13.127  22.107  0.00  0.00    +0.000 A 
ATOM     20 BR   UNL     1      -5.168  12.618  20.796  0.00  0.00    +0.000 Br
ATOM     21  C   UNL     1      -2.578  12.887  21.624  0.00  0.00    +0.000 A 
ATOM     22  C   UNL     1      -1.435  13.194  22.359  0.00  0.00    +0.000 A 
ATOM     23  C   UNL     1      -1.601  13.735  23.631  0.00  0.00    +0.000 A 
ATOM     24  C   UNL     1      -2.889  13.975  24.160  0.00  0.00    +0.000 A 
BRANCH  24  25
ATOM     25  O   UNL     1      -2.782  14.505  25.426  0.00  0.00    +0.000 OA
ATOM     26  C   UNL     1      -1.886  15.570  25.685  0.00  0.00    +0.000 C 
ENDBRANCH  24  25
BRANCH  18  27
ATOM     27  O   UNL     1      -5.253  13.978  24.013  0.00  0.00    +0.000 OA
BRANCH  27  28
ATOM     28  C   UNL     1      -5.875  15.218  23.722  0.00  0.00    +0.000 C 
BRANCH  28  30
ATOM     29  C   UNL     1      -7.916  13.820  23.808  0.00  0.00    +0.000 C 
ATOM     30  C   UNL     1      -7.287  15.060  23.181  0.00  0.00    +0.000 C 
ENDBRANCH  28  30
ENDBRANCH  27  28
ENDBRANCH  18  27
ENDBRANCH   1  22
TORSDOF 5
ENDMDL
MODEL 5
REMARK VINA RESULT:      -6.1      3.218      4.886
REMARK  Name = 
REMARK  8 active torsions:
REMARK  status: ('A' for Active; 'I' for Inactive)
REMARK    1  A    between atoms: C_1  and  C_2
REMARK    2  A    between atoms: C_2  and  C_3
REMARK    3  A    between atoms: C_3  and  O_4
REMARK    4  A    between atoms: O_4  and  C_5
REMARK    5  A    between atoms: C_9  and  C_10
REMARK    6  A    between atoms: N_18  and  C_19
REMARK    7  A    between atoms: C_28  and  O_29
REMARK    8  A    between atoms: O_29  and  C_30
REMARK                            x       y       z     vdW  Elec       q    Type
REMARK                         _______ _______ _______ _____ _____    ______ ____
ROOT
ATOM      1  C   UNL     1      -2.217  14.159  23.142  0.00  0.00    +0.000 C 
ATOM      2  C   UNL     1      -3.730  14.300  23.223  0.00  0.00    +0.000 C 
ATOM      3  C   UNL     1      -4.334  15.512  23.203  0.00  0.00    +0.000 C 
ATOM      4  C   UNL     1      -5.855  15.621  23.213  0.00  0.00    +0.000 C 
ATOM      5  C   UNL     1      -6.548  14.409  23.826  0.00  0.00    +0.000 C 
ATOM      6  C   UNL     1      -6.036  13.141  23.184  0.00  0.00    +0.000 C 
ATOM      7  C   UNL     1      -4.547  13.053  23.397  0.00  0.00    +0.000 C 
ATOM      8  O   UNL     1      -4.031  11.982  23.707  0.00  0.00    +0.000 OA
ATOM      9  N   UNL     1      -3.563  16.703  23.143  0.00  0.00    +0.000 N 
ATOM     10  C   UNL     1      -4.068  17.961  23.735  0.00  0.00    +0.000 C 
ATOM     11  C   UNL     1      -2.190  16.641  22.781  0.00  0.00    +0.000 C 
ATOM     12  C   UNL     1      -1.524  15.463  22.785  0.00  0.00    +0.000 C 
ATOM     13  C   UNL     1      -0.049  15.441  22.507  0.00  0.00    +0.000 C 
ATOM     14  O   UNL     1       0.649  14.469  22.784  0.00  0.00    +0.000 OA
ATOM     15  C   UNL     1       0.575  16.660  21.877  0.00  0.00    +0.000 C 
ATOM     16  C   UNL     1       0.025  17.891  22.558  0.00  0.00    +0.000 C 
ATOM     17  C   UNL     1      -1.489  17.942  22.406  0.00  0.00    +0.000 C 
ENDROOT
BRANCH   1  22
ATOM     18  C   UNL     1      -0.821  10.805  20.686  0.00  0.00    +0.000 A 
ATOM     19  C   UNL     1      -0.727  10.809  22.105  0.00  0.00    +0.000 A 
ATOM     20 BR   UNL     1       0.017   9.495  23.286  0.00  0.00    +0.000 Br
ATOM     21  C   UNL     1      -1.213  11.895  22.840  0.00  0.00    +0.000 A 
ATOM     22  C   UNL     1      -1.781  13.013  22.233  0.00  0.00    +0.000 A 
ATOM     23  C   UNL     1      -1.886  13.022  20.845  0.00  0.00    +0.000 A 
ATOM     24  C   UNL     1      -1.422  11.935  20.071  0.00  0.00    +0.000 A 
BRANCH  24  25
ATOM     25  O   UNL     1      -1.643  12.184  18.735  0.00  0.00    +0.000 OA
ATOM     26  C   UNL     1      -0.719  12.954  17.987  0.00  0.00    +0.000 C 
ENDBRANCH  24  25
BRANCH  18  27
ATOM     27  O   UNL     1      -0.390   9.816  19.830  0.00  0.00    +0.000 OA
BRANCH  27  28
ATOM     28  C   UNL     1       0.999   9.707  19.566  0.00  0.00    +0.000 C 
BRANCH  28  30
ATOM     29  C   UNL     1       2.276   8.543  17.793  0.00  0.00    +0.000 C 
ATOM     30  C   UNL     1       1.321   9.697  18.080  0.00  0.00    +0.000 C 
ENDBRANCH  28  30
ENDBRANCH  27  28
ENDBRANCH  18  27
ENDBRANCH   1  22
TORSDOF 5
ENDMDL
MODEL 6
REMARK VINA RESULT:      -6.0      1.939      4.875
REMARK  Name = 
REMARK  8 active torsions:
REMARK  status: ('A' for Active; 'I' for Inactive)
REMARK    1  A    between atoms: C_1  and  C_2
REMARK    2  A    between atoms: C_2  and  C_3
REMARK    3  A    between atoms: C_3  and  O_4
REMARK    4  A    between atoms: O_4  and  C_5
REMARK    5  A    between atoms: C_9  and  C_10
REMARK    6  A    between atoms: N_18  and  C_19
REMARK    7  A    between atoms: C_28  and  O_29
REMARK    8  A    between atoms: O_29  and  C_30
REMARK                            x       y       z     vdW  Elec       q    Type
REMARK                         _______ _______ _______ _____ _____    ______ ____
ROOT
ATOM      1  C   UNL     1      -3.166  13.262  20.470  0.00  0.00    +0.000 C 
ATOM      2  C   UNL     1      -3.208  13.666  21.936  0.00  0.00    +0.000 C 
ATOM      3  C   UNL     1      -4.317  13.487  22.693  0.00  0.00    +0.000 C 
ATOM      4  C   UNL     1      -4.308  13.836  24.177  0.00  0.00    +0.000 C 
ATOM      5  C   UNL     1      -3.265  14.882  24.550  0.00  0.00    +0.000 C 
ATOM      6  C   UNL     1      -1.911  14.476  24.016  0.00  0.00    +0.000 C 
ATOM      7  C   UNL     1      -2.000  14.340  22.518  0.00  0.00    +0.000 C 
ATOM      8  O   UNL     1      -1.099  14.776  21.805  0.00  0.00    +0.000 OA
ATOM      9  N   UNL     1      -5.500  12.946  22.124  0.00  0.00    +0.000 N 
ATOM     10  C   UNL     1      -6.830  13.305  22.661  0.00  0.00    +0.000 C 
ATOM     11  C   UNL     1      -5.445  12.292  20.863  0.00  0.00    +0.000 C 
ATOM     12  C   UNL     1      -4.369  12.432  20.055  0.00  0.00    +0.000 C 
ATOM     13  C   UNL     1      -4.383  11.822  18.683  0.00  0.00    +0.000 C 
ATOM     14  O   UNL     1      -3.582  12.159  17.815  0.00  0.00    +0.000 OA
ATOM     15  C   UNL     1      -5.424  10.774  18.381  0.00  0.00    +0.000 C 
ATOM     16  C   UNL     1      -6.750  11.235  18.940  0.00  0.00    +0.000 C 
ATOM     17  C   UNL     1      -6.641  11.443  20.444  0.00  0.00    +0.000 C 
ENDROOT
BRANCH   1  22
ATOM     18  C   UNL     1       0.609  11.230  19.542  0.00  0.00    +0.000 A 
ATOM     19  C   UNL     1      -0.373  10.671  20.407  0.00  0.00    +0.000 A 
ATOM     20 BR   UNL     1      -0.341   9.027  21.392  0.00  0.00    +0.000 Br
ATOM     21  C   UNL     1      -1.570  11.351  20.646  0.00  0.00    +0.000 A 
ATOM     22  C   UNL     1      -1.850  12.594  20.081  0.00  0.00    +0.000 A 
ATOM     23  C   UNL     1      -0.902  13.153  19.228  0.00  0.00    +0.000 A 
ATOM     24  C   UNL     1       0.311  12.486  18.949  0.00  0.00    +0.000 A 
BRANCH  24  25
ATOM     25  O   UNL     1       1.069  13.239  18.080  0.00  0.00    +0.000 OA
ATOM     26  C   UNL     1       1.876  14.297  18.565  0.00  0.00    +0.000 C 
ENDBRANCH  24  25
BRANCH  18  27
ATOM     27  O   UNL     1       1.828  10.686  19.211  0.00  0.00    +0.000 OA
BRANCH  27  28
ATOM     28  C   UNL     1       1.983  10.101  17.929  0.00  0.00    +0.000 C 
BRANCH  28  30
ATOM     29  C   UNL     1       2.937   7.817  17.945  0.00  0.00    +0.000 C 
ATOM     30  C   UNL     1       1.640   8.620  17.907  0.00  0.00    +0.000 C 
ENDBRANCH  28  30
ENDBRANCH  27  28
ENDBRANCH  18  27
ENDBRANCH   1  22
TORSDOF 5
ENDMDL
MODEL 7
REMARK VINA RESULT:      -6.0      0.991      1.155
REMARK  Name = 
REMARK  8 active torsions:
REMARK  status: ('A' for Active; 'I' for Inactive)
REMARK    1  A    between atoms: C_1  and  C_2
REMARK    2  A    between atoms: C_2  and  C_3
REMARK    3  A    between atoms: C_3  and  O_4
REMARK    4  A    between atoms: O_4  and  C_5
REMARK    5  A    between atoms: C_9  and  C_10
REMARK    6  A    between atoms: N_18  and  C_19
REMARK    7  A    between atoms: C_28  and  O_29
REMARK    8  A    between atoms: O_29  and  C_30
REMARK                            x       y       z     vdW  Elec       q    Type
REMARK                         _______ _______ _______ _____ _____    ______ ____
ROOT
ATOM      1  C   UNL     1      -2.776  12.721  21.394  0.00  0.00    +0.000 C 
ATOM      2  C   UNL     1      -4.056  12.848  20.580  0.00  0.00    +0.000 C 
ATOM      3  C   UNL     1      -5.132  13.525  21.048  0.00  0.00    +0.000 C 
ATOM      4  C   UNL     1      -6.376  13.696  20.182  0.00  0.00    +0.000 C 
ATOM      5  C   UNL     1      -6.530  12.618  19.117  0.00  0.00    +0.000 C 
ATOM      6  C   UNL     1      -5.252  12.491  18.321  0.00  0.00    +0.000 C 
ATOM      7  C   UNL     1      -4.126  12.139  19.260  0.00  0.00    +0.000 C 
ATOM      8  O   UNL     1      -3.297  11.291  18.938  0.00  0.00    +0.000 OA
ATOM      9  N   UNL     1      -5.112  14.110  22.341  0.00  0.00    +0.000 N 
ATOM     10  C   UNL     1      -6.360  14.275  23.116  0.00  0.00    +0.000 C 
ATOM     11  C   UNL     1      -3.876  14.276  23.025  0.00  0.00    +0.000 C 
ATOM     12  C   UNL     1      -2.764  13.626  22.615  0.00  0.00    +0.000 C 
ATOM     13  C   UNL     1      -1.500  13.732  23.418  0.00  0.00    +0.000 C 
ATOM     14  O   UNL     1      -0.567  12.947  23.267  0.00  0.00    +0.000 OA
ATOM     15  C   UNL     1      -1.398  14.835  24.441  0.00  0.00    +0.000 C 
ATOM     16  C   UNL     1      -2.701  14.913  25.200  0.00  0.00    +0.000 C 
ATOM     17  C   UNL     1      -3.849  15.195  24.241  0.00  0.00    +0.000 C 
ENDROOT
BRANCH   1  22
ATOM     18  C   UNL     1       0.735  13.376  18.849  0.00  0.00    +0.000 A 
ATOM     19  C   UNL     1      -0.198  14.407  19.152  0.00  0.00    +0.000 A 
ATOM     20 BR   UNL     1      -0.242  16.229  18.559  0.00  0.00    +0.000 Br
ATOM     21  C   UNL     1      -1.285  14.148  19.991  0.00  0.00    +0.000 A 
ATOM     22  C   UNL     1      -1.520  12.891  20.544  0.00  0.00    +0.000 A 
ATOM     23  C   UNL     1      -0.613  11.872  20.262  0.00  0.00    +0.000 A 
ATOM     24  C   UNL     1       0.507  12.102  19.433  0.00  0.00    +0.000 A 
BRANCH  24  25
ATOM     25  O   UNL     1       1.245  10.945  19.314  0.00  0.00    +0.000 OA
ATOM     26  C   UNL     1       0.978  10.027  18.270  0.00  0.00    +0.000 C 
ENDBRANCH  24  25
BRANCH  18  27
ATOM     27  O   UNL     1       1.847  13.475  18.044  0.00  0.00    +0.000 OA
BRANCH  27  28
ATOM     28  C   UNL     1       3.099  13.752  18.650  0.00  0.00    +0.000 C 
BRANCH  28  30
ATOM     29  C   UNL     1       3.482  15.803  17.317  0.00  0.00    +0.000 C 
ATOM     30  C   UNL     1       3.401  15.240  18.733  0.00  0.00    +0.000 C 
ENDBRANCH  28  30
ENDBRANCH  27  28
ENDBRANCH  18  27
ENDBRANCH   1  22
TORSDOF 5
ENDMDL
MODEL 8
REMARK VINA RESULT:      -6.0      2.110      5.123
REMARK  Name = 
REMARK  8 active torsions:
REMARK  status: ('A' for Active; 'I' for Inactive)
REMARK    1  A    between atoms: C_1  and  C_2
REMARK    2  A    between atoms: C_2  and  C_3
REMARK    3  A    between atoms: C_3  and  O_4
REMARK    4  A    between atoms: O_4  and  C_5
REMARK    5  A    between atoms: C_9  and  C_10
REMARK    6  A    between atoms: N_18  and  C_19
REMARK    7  A    between atoms: C_28  and  O_29
REMARK    8  A    between atoms: O_29  and  C_30
REMARK                            x       y       z     vdW  Elec       q    Type
REMARK                         _______ _______ _______ _____ _____    ______ ____
ROOT
ATOM      1  C   UNL     1      -2.223  12.773  19.903  0.00  0.00    +0.000 C 
ATOM      2  C   UNL     1      -2.348  13.238  21.347  0.00  0.00    +0.000 C 
ATOM      3  C   UNL     1      -3.552  13.339  21.960  0.00  0.00    +0.000 C 
ATOM      4  C   UNL     1      -3.643  13.739  23.428  0.00  0.00    +0.000 C 
ATOM      5  C   UNL     1      -2.445  14.545  23.915  0.00  0.00    +0.000 C 
ATOM      6  C   UNL     1      -1.162  13.830  23.561  0.00  0.00    +0.000 C 
ATOM      7  C   UNL     1      -1.099  13.654  22.066  0.00  0.00    +0.000 C 
ATOM      8  O   UNL     1      -0.045  13.851  21.466  0.00  0.00    +0.000 OA
ATOM      9  N   UNL     1      -4.749  13.048  21.254  0.00  0.00    +0.000 N 
ATOM     10  C   UNL     1      -6.020  13.712  21.614  0.00  0.00    +0.000 C 
ATOM     11  C   UNL     1      -4.691  12.345  20.019  0.00  0.00    +0.000 C 
ATOM     12  C   UNL     1      -3.522  12.211  19.352  0.00  0.00    +0.000 C 
ATOM     13  C   UNL     1      -3.508  11.563  17.998  0.00  0.00    +0.000 C 
ATOM     14  O   UNL     1      -2.554  11.678  17.233  0.00  0.00    +0.000 OA
ATOM     15  C   UNL     1      -4.713  10.757  17.582  0.00  0.00    +0.000 C 
ATOM     16  C   UNL     1      -5.959  11.521  17.962  0.00  0.00    +0.000 C 
ATOM     17  C   UNL     1      -5.987  11.763  19.465  0.00  0.00    +0.000 C 
ENDROOT
BRANCH   1  22
ATOM     18  C   UNL     1       1.099   9.938  19.497  0.00  0.00    +0.000 A 
ATOM     19  C   UNL     1      -0.029   9.687  20.327  0.00  0.00    +0.000 A 
ATOM     20 BR   UNL     1      -0.399   8.191  21.466  0.00  0.00    +0.000 Br
ATOM     21  C   UNL     1      -1.072  10.615  20.398  0.00  0.00    +0.000 A 
ATOM     22  C   UNL     1      -1.052  11.817  19.693  0.00  0.00    +0.000 A 
ATOM     23  C   UNL     1       0.042  12.076  18.872  0.00  0.00    +0.000 A 
ATOM     24  C   UNL     1       1.106  11.153  18.761  0.00  0.00    +0.000 A 
BRANCH  24  25
ATOM     25  O   UNL     1       2.056  11.637  17.890  0.00  0.00    +0.000 OA
ATOM     26  C   UNL     1       2.621  12.921  18.086  0.00  0.00    +0.000 C 
ENDBRANCH  24  25
BRANCH  18  27
ATOM     27  O   UNL     1       2.197   9.127  19.324  0.00  0.00    +0.000 OA
BRANCH  27  28
ATOM     28  C   UNL     1       2.216   8.240  18.218  0.00  0.00    +0.000 C 
BRANCH  28  30
ATOM     29  C   UNL     1       4.039   6.693  17.575  0.00  0.00    +0.000 C 
ATOM     30  C   UNL     1       2.876   6.908  18.539  0.00  0.00    +0.000 C 
ENDBRANCH  28  30
ENDBRANCH  27  28
ENDBRANCH  18  27
ENDBRANCH   1  22
TORSDOF 5
ENDMDL
MODEL 9
REMARK VINA RESULT:      -5.9      2.967      4.519
REMARK  Name = 
REMARK  8 active torsions:
REMARK  status: ('A' for Active; 'I' for Inactive)
REMARK    1  A    between atoms: C_1  and  C_2
REMARK    2  A    between atoms: C_2  and  C_3
REMARK    3  A    between atoms: C_3  and  O_4
REMARK    4  A    between atoms: O_4  and  C_5
REMARK    5  A    between atoms: C_9  and  C_10
REMARK    6  A    between atoms: N_18  and  C_19
REMARK    7  A    between atoms: C_28  and  O_29
REMARK    8  A    between atoms: O_29  and  C_30
REMARK                            x       y       z     vdW  Elec       q    Type
REMARK                         _______ _______ _______ _____ _____    ______ ____
ROOT
ATOM      1  C   UNL     1      -2.784  14.470  21.721  0.00  0.00    +0.000 C 
ATOM      2  C   UNL     1      -4.293  14.276  21.705  0.00  0.00    +0.000 C 
ATOM      3  C   UNL     1      -5.130  15.237  21.246  0.00  0.00    +0.000 C 
ATOM      4  C   UNL     1      -6.633  14.988  21.175  0.00  0.00    +0.000 C 
ATOM      5  C   UNL     1      -7.120  13.925  22.152  0.00  0.00    +0.000 C 
ATOM      6  C   UNL     1      -6.291  12.670  22.007  0.00  0.00    +0.000 C 
ATOM      7  C   UNL     1      -4.848  13.005  22.279  0.00  0.00    +0.000 C 
ATOM      8  O   UNL     1      -4.157  12.249  22.958  0.00  0.00    +0.000 OA
ATOM      9  N   UNL     1      -4.621  16.484  20.797  0.00  0.00    +0.000 N 
ATOM     10  C   UNL     1      -5.436  17.714  20.898  0.00  0.00    +0.000 C 
ATOM     11  C   UNL     1      -3.234  16.625  20.518  0.00  0.00    +0.000 C 
ATOM     12  C   UNL     1      -2.343  15.704  20.951  0.00  0.00    +0.000 C 
ATOM     13  C   UNL     1      -0.874  15.932  20.740  0.00  0.00    +0.000 C 
ATOM     14  O   UNL     1      -0.023  15.297  21.359  0.00  0.00    +0.000 OA
ATOM     15  C   UNL     1      -0.453  16.981  19.743  0.00  0.00    +0.000 C 
ATOM     16  C   UNL     1      -1.316  18.206  19.936  0.00  0.00    +0.000 C 
ATOM     17  C   UNL     1      -2.782  17.851  19.732  0.00  0.00    +0.000 C 
ENDROOT
BRANCH   1  22
ATOM     18  C   UNL     1      -0.757  10.848  20.304  0.00  0.00    +0.000 A 
ATOM     19  C   UNL     1      -1.601  11.633  19.470  0.00  0.00    +0.000 A 
ATOM     20 BR   UNL     1      -2.115  11.357  17.644  0.00  0.00    +0.000 Br
ATOM     21  C   UNL     1      -2.200  12.794  19.967  0.00  0.00    +0.000 A 
ATOM     22  C   UNL     1      -2.026  13.221  21.282  0.00  0.00    +0.000 A 
ATOM     23  C   UNL     1      -1.198  12.467  22.110  0.00  0.00    +0.000 A 
ATOM     24  C   UNL     1      -0.561  11.299  21.636  0.00  0.00    +0.000 A 
BRANCH  24  25
ATOM     25  O   UNL     1       0.200  10.743  22.640  0.00  0.00    +0.000 OA
ATOM     26  C   UNL     1      -0.262   9.604  23.343  0.00  0.00    +0.000 C 
ENDBRANCH  24  25
BRANCH  18  27
ATOM     27  O   UNL     1      -0.100   9.689  19.962  0.00  0.00    +0.000 OA
BRANCH  27  28
ATOM     28  C   UNL     1       1.209   9.784  19.426  0.00  0.00    +0.000 C 
BRANCH  28  30
ATOM     29  C   UNL     1       2.416   8.353  17.806  0.00  0.00    +0.000 C 
ATOM     30  C   UNL     1       1.286   9.365  17.967  0.00  0.00    +0.000 C 
ENDBRANCH  28  30
ENDBRANCH  27  28
ENDBRANCH  18  27
ENDBRANCH   1  22
TORSDOF 5
ENDMDL
