MODEL 1
REMARK VINA RESULT:      -7.8      0.000      0.000
REMARK  Name = 
REMARK  1 active torsions:
REMARK  status: ('A' for Active; 'I' for Inactive)
REMARK    1  A    between atoms: C_8  and  N_9
REMARK                            x       y       z     vdW  Elec       q    Type
REMARK                         _______ _______ _______ _____ _____    ______ ____
ROOT
ATOM      1  O   UNL     1      -6.648  12.058  18.570  0.00  0.00    +0.000 OA
ATOM      2  C   UNL     1      -5.465  12.038  18.925  0.00  0.00    +0.000 A 
ATOM      3  C   UNL     1      -4.379  11.529  18.030  0.00  0.00    +0.000 A 
ATOM      4  C   UNL     1      -4.580  11.205  16.691  0.00  0.00    +0.000 A 
ATOM      5  C   UNL     1      -3.488  10.773  15.921  0.00  0.00    +0.000 A 
ATOM      6  C   UNL     1      -2.219  10.600  16.499  0.00  0.00    +0.000 A 
ATOM      7  C   UNL     1      -1.990  11.001  17.836  0.00  0.00    +0.000 A 
ATOM      8  C   UNL     1      -0.736  11.221  18.404  0.00  0.00    +0.000 A 
ATOM      9  C   UNL     1      -0.586  12.540  18.790  0.00  0.00    +0.000 A 
ATOM     10  C   UNL     1      -1.567  12.987  19.642  0.00  0.00    +0.000 A 
ATOM     11  C   UNL     1      -2.779  12.327  19.652  0.00  0.00    +0.000 A 
ATOM     12  C   UNL     1      -3.068  11.548  18.530  0.00  0.00    +0.000 A 
ATOM     13  C   UNL     1      -3.818  12.574  20.613  0.00  0.00    +0.000 A 
ATOM     14  N   UNL     1      -3.687  12.775  21.905  0.00  0.00    +0.000 NA
ATOM     15  C   UNL     1      -4.971  12.826  22.371  0.00  0.00    +0.000 A 
ATOM     16  C   UNL     1      -5.415  12.940  23.693  0.00  0.00    +0.000 A 
ATOM     17  C   UNL     1      -6.791  13.053  23.928  0.00  0.00    +0.000 A 
ATOM     18  C   UNL     1      -7.701  13.043  22.864  0.00  0.00    +0.000 A 
ATOM     19  C   UNL     1      -7.273  12.864  21.540  0.00  0.00    +0.000 A 
ATOM     20  C   UNL     1      -5.886  12.734  21.335  0.00  0.00    +0.000 A 
ATOM     21  N   UNL     1      -5.134  12.452  20.218  0.00  0.00    +0.000 N 
ENDROOT
BRANCH   8  22
ATOM     22  N   UNL     1       0.073  10.290  19.027  0.00  0.00    +0.000 N 
ATOM     23  C   UNL     1       1.411   9.989  18.495  0.00  0.00    +0.000 C 
ATOM     24  C   UNL     1       1.624   8.615  19.089  0.00  0.00    +0.000 C 
ATOM     25  C   UNL     1       1.121   8.786  20.522  0.00  0.00    +0.000 C 
ATOM     26  C   UNL     1       0.088   9.943  20.454  0.00  0.00    +0.000 C 
ENDBRANCH   8  22
TORSDOF 1
ENDMDL
MODEL 2
REMARK VINA RESULT:      -7.5      4.761      7.720
REMARK  Name = 
REMARK  1 active torsions:
REMARK  status: ('A' for Active; 'I' for Inactive)
REMARK    1  A    between atoms: C_8  and  N_9
REMARK                            x       y       z     vdW  Elec       q    Type
REMARK                         _______ _______ _______ _____ _____    ______ ____
ROOT
ATOM      1  O   UNL     1      -0.099   8.153  21.449  0.00  0.00    +0.000 OA
ATOM      2  C   UNL     1       0.787   8.083  20.593  0.00  0.00    +0.000 A 
ATOM      3  C   UNL     1       1.654   6.872  20.449  0.00  0.00    +0.000 A 
ATOM      4  C   UNL     1       1.427   5.682  21.136  0.00  0.00    +0.000 A 
ATOM      5  C   UNL     1       2.274   4.586  20.903  0.00  0.00    +0.000 A 
ATOM      6  C   UNL     1       3.380   4.696  20.044  0.00  0.00    +0.000 A 
ATOM      7  C   UNL     1       3.571   5.874  19.285  0.00  0.00    +0.000 A 
ATOM      8  C   UNL     1       4.388   5.980  18.159  0.00  0.00    +0.000 A 
ATOM      9  C   UNL     1       3.648   6.290  17.033  0.00  0.00    +0.000 A 
ATOM     10  C   UNL     1       2.884   7.425  17.161  0.00  0.00    +0.000 A 
ATOM     11  C   UNL     1       2.547   7.850  18.430  0.00  0.00    +0.000 A 
ATOM     12  C   UNL     1       2.634   6.895  19.444  0.00  0.00    +0.000 A 
ATOM     13  C   UNL     1       1.912   9.107  18.712  0.00  0.00    +0.000 A 
ATOM     14  N   UNL     1       2.169  10.276  18.170  0.00  0.00    +0.000 NA
ATOM     15  C   UNL     1       1.390  11.152  18.873  0.00  0.00    +0.000 A 
ATOM     16  C   UNL     1       1.332  12.547  18.767  0.00  0.00    +0.000 A 
ATOM     17  C   UNL     1       0.393  13.237  19.543  0.00  0.00    +0.000 A 
ATOM     18  C   UNL     1      -0.462  12.548  20.412  0.00  0.00    +0.000 A 
ATOM     19  C   UNL     1      -0.370  11.157  20.575  0.00  0.00    +0.000 A 
ATOM     20  C   UNL     1       0.596  10.492  19.796  0.00  0.00    +0.000 A 
ATOM     21  N   UNL     1       1.027   9.186  19.768  0.00  0.00    +0.000 N 
ENDROOT
BRANCH   8  22
ATOM     22  N   UNL     1       5.733   6.291  18.131  0.00  0.00    +0.000 N 
ATOM     23  C   UNL     1       6.737   5.304  18.562  0.00  0.00    +0.000 C 
ATOM     24  C   UNL     1       7.883   6.230  18.901  0.00  0.00    +0.000 C 
ATOM     25  C   UNL     1       7.873   7.218  17.735  0.00  0.00    +0.000 C 
ATOM     26  C   UNL     1       6.409   7.222  17.219  0.00  0.00    +0.000 C 
ENDBRANCH   8  22
TORSDOF 1
ENDMDL
MODEL 3
REMARK VINA RESULT:      -7.5      0.890      1.295
REMARK  Name = 
REMARK  1 active torsions:
REMARK  status: ('A' for Active; 'I' for Inactive)
REMARK    1  A    between atoms: C_8  and  N_9
REMARK                            x       y       z     vdW  Elec       q    Type
REMARK                         _______ _______ _______ _____ _____    ______ ____
ROOT
ATOM      1  O   UNL     1      -6.131  11.929  17.891  0.00  0.00    +0.000 OA
ATOM      2  C   UNL     1      -5.046  11.927  18.480  0.00  0.00    +0.000 A 
ATOM      3  C   UNL     1      -3.851  11.207  17.937  0.00  0.00    +0.000 A 
ATOM      4  C   UNL     1      -3.814  10.638  16.667  0.00  0.00    +0.000 A 
ATOM      5  C   UNL     1      -2.631  10.018  16.231  0.00  0.00    +0.000 A 
ATOM      6  C   UNL     1      -1.518   9.905  17.080  0.00  0.00    +0.000 A 
ATOM      7  C   UNL     1      -1.522  10.548  18.340  0.00  0.00    +0.000 A 
ATOM      8  C   UNL     1      -0.388  10.820  19.105  0.00  0.00    +0.000 A 
ATOM      9  C   UNL     1      -0.209  12.182  19.268  0.00  0.00    +0.000 A 
ATOM     10  C   UNL     1      -1.298  12.828  19.803  0.00  0.00    +0.000 A 
ATOM     11  C   UNL     1      -2.538  12.235  19.683  0.00  0.00    +0.000 A 
ATOM     12  C   UNL     1      -2.666  11.267  18.686  0.00  0.00    +0.000 A 
ATOM     13  C   UNL     1      -3.721  12.709  20.347  0.00  0.00    +0.000 A 
ATOM     14  N   UNL     1      -3.827  13.151  21.580  0.00  0.00    +0.000 NA
ATOM     15  C   UNL     1      -5.169  13.347  21.753  0.00  0.00    +0.000 A 
ATOM     16  C   UNL     1      -5.852  13.735  22.912  0.00  0.00    +0.000 A 
ATOM     17  C   UNL     1      -7.233  13.951  22.832  0.00  0.00    +0.000 A 
ATOM     18  C   UNL     1      -7.916  13.774  21.623  0.00  0.00    +0.000 A 
ATOM     19  C   UNL     1      -7.254  13.323  20.471  0.00  0.00    +0.000 A 
ATOM     20  C   UNL     1      -5.869  13.096  20.585  0.00  0.00    +0.000 A 
ATOM     21  N   UNL     1      -4.940  12.569  19.718  0.00  0.00    +0.000 N 
ENDROOT
BRANCH   8  22
ATOM     22  N   UNL     1       0.204   9.994  20.041  0.00  0.00    +0.000 N 
ATOM     23  C   UNL     1      -0.480   9.689  21.308  0.00  0.00    +0.000 C 
ATOM     24  C   UNL     1       0.708   9.300  22.158  0.00  0.00    +0.000 C 
ATOM     25  C   UNL     1       1.523   8.419  21.213  0.00  0.00    +0.000 C 
ATOM     26  C   UNL     1       1.145   8.896  19.785  0.00  0.00    +0.000 C 
ENDBRANCH   8  22
TORSDOF 1
ENDMDL
MODEL 4
REMARK VINA RESULT:      -7.2      2.742      4.498
REMARK  Name = 
REMARK  1 active torsions:
REMARK  status: ('A' for Active; 'I' for Inactive)
REMARK    1  A    between atoms: C_8  and  N_9
REMARK                            x       y       z     vdW  Elec       q    Type
REMARK                         _______ _______ _______ _____ _____    ______ ____
ROOT
ATOM      1  O   UNL     1      -7.777  12.612  23.141  0.00  0.00    +0.000 OA
ATOM      2  C   UNL     1      -7.196  12.698  22.055  0.00  0.00    +0.000 A 
ATOM      3  C   UNL     1      -7.142  11.552  21.094  0.00  0.00    +0.000 A 
ATOM      4  C   UNL     1      -7.871  10.377  21.262  0.00  0.00    +0.000 A 
ATOM      5  C   UNL     1      -7.785   9.374  20.283  0.00  0.00    +0.000 A 
ATOM      6  C   UNL     1      -6.925   9.510  19.181  0.00  0.00    +0.000 A 
ATOM      7  C   UNL     1      -6.242  10.730  18.963  0.00  0.00    +0.000 A 
ATOM      8  C   UNL     1      -5.664  11.122  17.757  0.00  0.00    +0.000 A 
ATOM      9  C   UNL     1      -6.272  12.258  17.256  0.00  0.00    +0.000 A 
ATOM     10  C   UNL     1      -6.283  13.317  18.132  0.00  0.00    +0.000 A 
ATOM     11  C   UNL     1      -6.158  13.055  19.481  0.00  0.00    +0.000 A 
ATOM     12  C   UNL     1      -6.454  11.753  19.887  0.00  0.00    +0.000 A 
ATOM     13  C   UNL     1      -5.975  14.070  20.481  0.00  0.00    +0.000 A 
ATOM     14  N   UNL     1      -5.212  15.138  20.412  0.00  0.00    +0.000 NA
ATOM     15  C   UNL     1      -5.293  15.692  21.659  0.00  0.00    +0.000 A 
ATOM     16  C   UNL     1      -4.610  16.803  22.166  0.00  0.00    +0.000 A 
ATOM     17  C   UNL     1      -4.914  17.240  23.461  0.00  0.00    +0.000 A 
ATOM     18  C   UNL     1      -5.873  16.575  24.234  0.00  0.00    +0.000 A 
ATOM     19  C   UNL     1      -6.517  15.421  23.761  0.00  0.00    +0.000 A 
ATOM     20  C   UNL     1      -6.178  14.994  22.464  0.00  0.00    +0.000 A 
ATOM     21  N   UNL     1      -6.522  13.879  21.733  0.00  0.00    +0.000 N 
ENDROOT
BRANCH   8  22
ATOM     22  N   UNL     1      -4.380  10.855  17.321  0.00  0.00    +0.000 N 
ATOM     23  C   UNL     1      -4.018  11.041  15.907  0.00  0.00    +0.000 C 
ATOM     24  C   UNL     1      -2.818  10.124  15.823  0.00  0.00    +0.000 C 
ATOM     25  C   UNL     1      -2.060  10.443  17.111  0.00  0.00    +0.000 C 
ATOM     26  C   UNL     1      -3.139  10.957  18.100  0.00  0.00    +0.000 C 
ENDBRANCH   8  22
TORSDOF 1
ENDMDL
MODEL 5
REMARK VINA RESULT:      -7.0      1.842      2.415
REMARK  Name = 
REMARK  1 active torsions:
REMARK  status: ('A' for Active; 'I' for Inactive)
REMARK    1  A    between atoms: C_8  and  N_9
REMARK                            x       y       z     vdW  Elec       q    Type
REMARK                         _______ _______ _______ _____ _____    ______ ____
ROOT
ATOM      1  O   UNL     1      -4.822  13.070  20.020  0.00  0.00    +0.000 OA
ATOM      2  C   UNL     1      -3.638  12.722  20.029  0.00  0.00    +0.000 A 
ATOM      3  C   UNL     1      -3.084  11.773  19.013  0.00  0.00    +0.000 A 
ATOM      4  C   UNL     1      -3.797  11.346  17.896  0.00  0.00    +0.000 A 
ATOM      5  C   UNL     1      -3.175  10.484  16.977  0.00  0.00    +0.000 A 
ATOM      6  C   UNL     1      -1.878   9.997  17.206  0.00  0.00    +0.000 A 
ATOM      7  C   UNL     1      -1.121  10.486  18.296  0.00  0.00    +0.000 A 
ATOM      8  C   UNL     1       0.263  10.370  18.428  0.00  0.00    +0.000 A 
ATOM      9  C   UNL     1       0.870  11.612  18.439  0.00  0.00    +0.000 A 
ATOM     10  C   UNL     1       0.381  12.464  19.400  0.00  0.00    +0.000 A 
ATOM     11  C   UNL     1      -0.886  12.234  19.899  0.00  0.00    +0.000 A 
ATOM     12  C   UNL     1      -1.724  11.441  19.114  0.00  0.00    +0.000 A 
ATOM     13  C   UNL     1      -1.443  12.933  21.024  0.00  0.00    +0.000 A 
ATOM     14  N   UNL     1      -0.841  13.259  22.145  0.00  0.00    +0.000 NA
ATOM     15  C   UNL     1      -1.836  13.783  22.922  0.00  0.00    +0.000 A 
ATOM     16  C   UNL     1      -1.768  14.216  24.252  0.00  0.00    +0.000 A 
ATOM     17  C   UNL     1      -2.907  14.795  24.824  0.00  0.00    +0.000 A 
ATOM     18  C   UNL     1      -4.090  14.929  24.086  0.00  0.00    +0.000 A 
ATOM     19  C   UNL     1      -4.189  14.439  22.774  0.00  0.00    +0.000 A 
ATOM     20  C   UNL     1      -3.034  13.845  22.231  0.00  0.00    +0.000 A 
ATOM     21  N   UNL     1      -2.799  13.184  21.048  0.00  0.00    +0.000 N 
ENDROOT
BRANCH   8  22
ATOM     22  N   UNL     1       0.961   9.326  19.003  0.00  0.00    +0.000 N 
ATOM     23  C   UNL     1       2.185   8.809  18.370  0.00  0.00    +0.000 C 
ATOM     24  C   UNL     1       2.224   7.423  18.974  0.00  0.00    +0.000 C 
ATOM     25  C   UNL     1       1.877   7.685  20.439  0.00  0.00    +0.000 C 
ATOM     26  C   UNL     1       1.041   8.992  20.431  0.00  0.00    +0.000 C 
ENDBRANCH   8  22
TORSDOF 1
ENDMDL
MODEL 6
REMARK VINA RESULT:      -6.9      1.321      1.517
REMARK  Name = 
REMARK  1 active torsions:
REMARK  status: ('A' for Active; 'I' for Inactive)
REMARK    1  A    between atoms: C_8  and  N_9
REMARK                            x       y       z     vdW  Elec       q    Type
REMARK                         _______ _______ _______ _____ _____    ______ ____
ROOT
ATOM      1  O   UNL     1      -5.631  12.789  19.270  0.00  0.00    +0.000 OA
ATOM      2  C   UNL     1      -4.434  12.559  19.462  0.00  0.00    +0.000 A 
ATOM      3  C   UNL     1      -3.652  11.642  18.575  0.00  0.00    +0.000 A 
ATOM      4  C   UNL     1      -4.151  11.118  17.385  0.00  0.00    +0.000 A 
ATOM      5  C   UNL     1      -3.325  10.297  16.600  0.00  0.00    +0.000 A 
ATOM      6  C   UNL     1      -2.035   9.945  17.031  0.00  0.00    +0.000 A 
ATOM      7  C   UNL     1      -1.494  10.535  18.197  0.00  0.00    +0.000 A 
ATOM      8  C   UNL     1      -0.140  10.559  18.530  0.00  0.00    +0.000 A 
ATOM      9  C   UNL     1       0.341  11.855  18.577  0.00  0.00    +0.000 A 
ATOM     10  C   UNL     1      -0.360  12.680  19.423  0.00  0.00    +0.000 A 
ATOM     11  C   UNL     1      -1.659  12.340  19.745  0.00  0.00    +0.000 A 
ATOM     12  C   UNL     1      -2.296  11.448  18.881  0.00  0.00    +0.000 A 
ATOM     13  C   UNL     1      -2.436  13.010  20.750  0.00  0.00    +0.000 A 
ATOM     14  N   UNL     1      -2.037  13.424  21.932  0.00  0.00    +0.000 NA
ATOM     15  C   UNL     1      -3.180  13.869  22.537  0.00  0.00    +0.000 A 
ATOM     16  C   UNL     1      -3.348  14.342  23.844  0.00  0.00    +0.000 A 
ATOM     17  C   UNL     1      -4.607  14.821  24.223  0.00  0.00    +0.000 A 
ATOM     18  C   UNL     1      -5.676  14.819  23.320  0.00  0.00    +0.000 A 
ATOM     19  C   UNL     1      -5.537  14.287  22.028  0.00  0.00    +0.000 A 
ATOM     20  C   UNL     1      -4.265  13.795  21.680  0.00  0.00    +0.000 A 
ATOM     21  N   UNL     1      -3.799  13.128  20.570  0.00  0.00    +0.000 N 
ENDROOT
BRANCH   8  22
ATOM     22  N   UNL     1       0.562   9.604  19.240  0.00  0.00    +0.000 N 
ATOM     23  C   UNL     1       1.827   9.065  18.717  0.00  0.00    +0.000 C 
ATOM     24  C   UNL     1       1.878   7.751  19.465  0.00  0.00    +0.000 C 
ATOM     25  C   UNL     1       1.458   8.152  20.878  0.00  0.00    +0.000 C 
ATOM     26  C   UNL     1       0.586   9.423  20.697  0.00  0.00    +0.000 C 
ENDBRANCH   8  22
TORSDOF 1
ENDMDL
MODEL 7
REMARK VINA RESULT:      -6.9      5.364      8.524
REMARK  Name = 
REMARK  1 active torsions:
REMARK  status: ('A' for Active; 'I' for Inactive)
REMARK    1  A    between atoms: C_8  and  N_9
REMARK                            x       y       z     vdW  Elec       q    Type
REMARK                         _______ _______ _______ _____ _____    ______ ____
ROOT
ATOM      1  O   UNL     1       0.248   7.873  21.228  0.00  0.00    +0.000 OA
ATOM      2  C   UNL     1       1.121   7.576  20.408  0.00  0.00    +0.000 A 
ATOM      3  C   UNL     1       1.831   6.259  20.451  0.00  0.00    +0.000 A 
ATOM      4  C   UNL     1       1.455   5.214  21.292  0.00  0.00    +0.000 A 
ATOM      5  C   UNL     1       2.160   4.000  21.230  0.00  0.00    +0.000 A 
ATOM      6  C   UNL     1       3.274   3.853  20.387  0.00  0.00    +0.000 A 
ATOM      7  C   UNL     1       3.612   4.881  19.476  0.00  0.00    +0.000 A 
ATOM      8  C   UNL     1       4.439   4.726  18.363  0.00  0.00    +0.000 A 
ATOM      9  C   UNL     1       3.747   4.964  17.190  0.00  0.00    +0.000 A 
ATOM     10  C   UNL     1       3.130   6.191  17.144  0.00  0.00    +0.000 A 
ATOM     11  C   UNL     1       2.844   6.827  18.335  0.00  0.00    +0.000 A 
ATOM     12  C   UNL     1       2.809   6.021  19.473  0.00  0.00    +0.000 A 
ATOM     13  C   UNL     1       2.370   8.180  18.427  0.00  0.00    +0.000 A 
ATOM     14  N   UNL     1       2.772   9.222  17.734  0.00  0.00    +0.000 NA
ATOM     15  C   UNL     1       2.106  10.277  18.293  0.00  0.00    +0.000 A 
ATOM     16  C   UNL     1       2.223  11.639  17.994  0.00  0.00    +0.000 A 
ATOM     17  C   UNL     1       1.375  12.541  18.648  0.00  0.00    +0.000 A 
ATOM     18  C   UNL     1       0.438  12.091  19.585  0.00  0.00    +0.000 A 
ATOM     19  C   UNL     1       0.356  10.736  19.941  0.00  0.00    +0.000 A 
ATOM     20  C   UNL     1       1.234   9.854  19.282  0.00  0.00    +0.000 A 
ATOM     21  N   UNL     1       1.499   8.514  19.443  0.00  0.00    +0.000 N 
ENDROOT
BRANCH   8  22
ATOM     22  N   UNL     1       5.813   4.863  18.319  0.00  0.00    +0.000 N 
ATOM     23  C   UNL     1       6.521   4.870  17.030  0.00  0.00    +0.000 C 
ATOM     24  C   UNL     1       7.902   4.459  17.489  0.00  0.00    +0.000 C 
ATOM     25  C   UNL     1       8.098   5.294  18.754  0.00  0.00    +0.000 C 
ATOM     26  C   UNL     1       6.665   5.572  19.282  0.00  0.00    +0.000 C 
ENDBRANCH   8  22
TORSDOF 1
ENDMDL
MODEL 8
REMARK VINA RESULT:      -6.8     12.164     13.395
REMARK  Name = 
REMARK  1 active torsions:
REMARK  status: ('A' for Active; 'I' for Inactive)
REMARK    1  A    between atoms: C_8  and  N_9
REMARK                            x       y       z     vdW  Elec       q    Type
REMARK                         _______ _______ _______ _____ _____    ______ ____
ROOT
ATOM      1  O   UNL     1       9.037  10.530  21.625  0.00  0.00    +0.000 OA
ATOM      2  C   UNL     1       9.029  11.690  21.203  0.00  0.00    +0.000 A 
ATOM      3  C   UNL     1       9.602  12.051  19.868  0.00  0.00    +0.000 A 
ATOM      4  C   UNL     1      10.027  11.106  18.938  0.00  0.00    +0.000 A 
ATOM      5  C   UNL     1      10.513  11.543  17.694  0.00  0.00    +0.000 A 
ATOM      6  C   UNL     1      10.640  12.913  17.408  0.00  0.00    +0.000 A 
ATOM      7  C   UNL     1      10.139  13.874  18.316  0.00  0.00    +0.000 A 
ATOM      8  C   UNL     1       9.875  15.208  18.008  0.00  0.00    +0.000 A 
ATOM      9  C   UNL     1       8.530  15.497  18.148  0.00  0.00    +0.000 A 
ATOM     10  C   UNL     1       8.021  15.198  19.389  0.00  0.00    +0.000 A 
ATOM     11  C   UNL     1       8.681  14.263  20.162  0.00  0.00    +0.000 A 
ATOM     12  C   UNL     1       9.542  13.399  19.484  0.00  0.00    +0.000 A 
ATOM     13  C   UNL     1       8.364  13.992  21.536  0.00  0.00    +0.000 A 
ATOM     14  N   UNL     1       8.066  14.858  22.479  0.00  0.00    +0.000 NA
ATOM     15  C   UNL     1       7.982  14.104  23.616  0.00  0.00    +0.000 A 
ATOM     16  C   UNL     1       7.770  14.530  24.932  0.00  0.00    +0.000 A 
ATOM     17  C   UNL     1       7.641  13.562  25.935  0.00  0.00    +0.000 A 
ATOM     18  C   UNL     1       7.733  12.199  25.630  0.00  0.00    +0.000 A 
ATOM     19  C   UNL     1       8.011  11.761  24.325  0.00  0.00    +0.000 A 
ATOM     20  C   UNL     1       8.153  12.757  23.340  0.00  0.00    +0.000 A 
ATOM     21  N   UNL     1       8.518  12.707  22.015  0.00  0.00    +0.000 N 
ENDROOT
BRANCH   8  22
ATOM     22  N   UNL     1      10.754  16.271  18.078  0.00  0.00    +0.000 N 
ATOM     23  C   UNL     1      12.038  16.132  18.783  0.00  0.00    +0.000 C 
ATOM     24  C   UNL     1      12.329  17.585  19.085  0.00  0.00    +0.000 C 
ATOM     25  C   UNL     1      11.967  18.279  17.772  0.00  0.00    +0.000 C 
ATOM     26  C   UNL     1      10.915  17.356  17.101  0.00  0.00    +0.000 C 
ENDBRANCH   8  22
TORSDOF 1
ENDMDL
MODEL 9
REMARK VINA RESULT:      -6.7      3.290      5.163
REMARK  Name = 
REMARK  1 active torsions:
REMARK  status: ('A' for Active; 'I' for Inactive)
REMARK    1  A    between atoms: C_8  and  N_9
REMARK                            x       y       z     vdW  Elec       q    Type
REMARK                         _______ _______ _______ _____ _____    ______ ____
ROOT
ATOM      1  O   UNL     1       1.412  15.332  22.449  0.00  0.00    +0.000 OA
ATOM      2  C   UNL     1       0.737  14.410  21.981  0.00  0.00    +0.000 A 
ATOM      3  C   UNL     1       1.077  13.764  20.674  0.00  0.00    +0.000 A 
ATOM      4  C   UNL     1       2.254  14.023  19.977  0.00  0.00    +0.000 A 
ATOM      5  C   UNL     1       2.502  13.336  18.777  0.00  0.00    +0.000 A 
ATOM      6  C   UNL     1       1.553  12.450  18.242  0.00  0.00    +0.000 A 
ATOM      7  C   UNL     1       0.393  12.124  18.983  0.00  0.00    +0.000 A 
ATOM      8  C   UNL     1      -0.425  11.019  18.747  0.00  0.00    +0.000 A 
ATOM      9  C   UNL     1      -0.423  10.156  19.828  0.00  0.00    +0.000 A 
ATOM     10  C   UNL     1      -0.774  10.750  21.017  0.00  0.00    +0.000 A 
ATOM     11  C   UNL     1      -0.626  12.117  21.137  0.00  0.00    +0.000 A 
ATOM     12  C   UNL     1       0.244  12.726  20.231  0.00  0.00    +0.000 A 
ATOM     13  C   UNL     1      -1.118  12.881  22.249  0.00  0.00    +0.000 A 
ATOM     14  N   UNL     1      -2.269  12.748  22.870  0.00  0.00    +0.000 NA
ATOM     15  C   UNL     1      -2.299  13.791  23.753  0.00  0.00    +0.000 A 
ATOM     16  C   UNL     1      -3.334  14.177  24.613  0.00  0.00    +0.000 A 
ATOM     17  C   UNL     1      -3.109  15.241  25.493  0.00  0.00    +0.000 A 
ATOM     18  C   UNL     1      -1.879  15.910  25.508  0.00  0.00    +0.000 A 
ATOM     19  C   UNL     1      -0.857  15.575  24.606  0.00  0.00    +0.000 A 
ATOM     20  C   UNL     1      -1.118  14.513  23.719  0.00  0.00    +0.000 A 
ATOM     21  N   UNL     1      -0.410  13.991  22.661  0.00  0.00    +0.000 N 
ENDROOT
BRANCH   8  22
ATOM     22  N   UNL     1      -1.508  10.949  17.892  0.00  0.00    +0.000 N 
ATOM     23  C   UNL     1      -1.722   9.759  17.055  0.00  0.00    +0.000 C 
ATOM     24  C   UNL     1      -2.581  10.358  15.965  0.00  0.00    +0.000 C 
ATOM     25  C   UNL     1      -3.560  11.230  16.751  0.00  0.00    +0.000 C 
ATOM     26  C   UNL     1      -2.815  11.597  18.061  0.00  0.00    +0.000 C 
ENDBRANCH   8  22
TORSDOF 1
ENDMDL
