MODEL 1
REMARK VINA RESULT:      -8.5      0.000      0.000
REMARK  Name = 
REMARK  9 active torsions:
REMARK  status: ('A' for Active; 'I' for Inactive)
REMARK    1  A    between atoms: N_1  and  C_2
REMARK    2  A    between atoms: C_2  and  C_3
REMARK    3  A    between atoms: C_3  and  C_4
REMARK    4  A    between atoms: C_4  and  C_5
REMARK    5  A    between atoms: C_5  and  N_6
REMARK    6  A    between atoms: N_6  and  C_7
REMARK    7  A    between atoms: N_6  and  C_14
REMARK    8  A    between atoms: C_7  and  C_8
REMARK    9  A    between atoms: C_14  and  C_15
REMARK                            x       y       z     vdW  Elec       q    Type
REMARK                         _______ _______ _______ _____ _____    ______ ____
ROOT
ATOM      1  N   UNL     1       5.750   5.033  16.855  0.00  0.00    +0.000 NA
ENDROOT
BRANCH   1   2
ATOM      2  C   UNL     1       6.006   6.397  17.377  0.00  0.00    +0.000 C 
BRANCH   2   3
ATOM      3  C   UNL     1       7.475   6.878  17.479  0.00  0.00    +0.000 C 
BRANCH   3   4
ATOM      4  C   UNL     1       8.116   6.782  18.869  0.00  0.00    +0.000 C 
BRANCH   4   5
ATOM      5  C   UNL     1       8.011   5.373  19.455  0.00  0.00    +0.000 C 
BRANCH   5   6
ATOM      6  N   UNL     1       8.282   5.383  20.889  0.00  0.00    +0.000 NA
ATOM      7  H   UNL     1       9.193   5.808  21.051  0.00  0.00    +0.000 HD
ATOM      8  H   UNL     1       8.355   4.421  21.222  0.00  0.00    +0.000 HD
ENDBRANCH   5   6
ENDBRANCH   4   5
ENDBRANCH   3   4
ENDBRANCH   2   3
ENDBRANCH   1   2
BRANCH   1   9
ATOM      9  C   UNL     1       6.937   4.466  16.159  0.00  0.00    +0.000 C 
BRANCH   9  10
ATOM     10  C   UNL     1       6.987   4.521  14.630  0.00  0.00    +0.000 A 
ATOM     11  C   UNL     1       6.164   3.662  13.890  0.00  0.00    +0.000 A 
ATOM     12  C   UNL     1       6.290   3.632  12.501  0.00  0.00    +0.000 A 
ATOM     13  C   UNL     1       7.209   4.480  11.898  0.00  0.00    +0.000 A 
ATOM     14  C   UNL     1       7.930   5.332  12.683  0.00  0.00    +0.000 A 
ATOM     15  N   UNL     1       7.828   5.401  14.029  0.00  0.00    +0.000 NA
ENDBRANCH   9  10
ENDBRANCH   1   9
BRANCH   1  16
ATOM     16  C   UNL     1       5.266   4.155  17.976  0.00  0.00    +0.000 C 
BRANCH  16  17
ATOM     17  C   UNL     1       3.868   4.433  18.553  0.00  0.00    +0.000 A 
ATOM     18  N   UNL     1       2.895   3.496  18.348  0.00  0.00    +0.000 NA
ATOM     19  C   UNL     1       1.671   3.913  17.961  0.00  0.00    +0.000 A 
ATOM     20  C   UNL     1       1.361   5.232  17.652  0.00  0.00    +0.000 A 
ATOM     21  C   UNL     1       2.303   6.186  18.096  0.00  0.00    +0.000 A 
ATOM     22  C   UNL     1       3.383   5.713  18.853  0.00  0.00    +0.000 A 
ATOM     23  N   UNL     1       2.976   6.247  20.094  0.00  0.00    +0.000 N 
ATOM     24  C   UNL     1       2.199   7.378  19.887  0.00  0.00    +0.000 A 
ATOM     25  C   UNL     1       1.458   8.202  20.738  0.00  0.00    +0.000 A 
ATOM     26  C   UNL     1       0.794   9.286  20.144  0.00  0.00    +0.000 A 
ATOM     27  C   UNL     1       0.963   9.593  18.793  0.00  0.00    +0.000 A 
ATOM     28  C   UNL     1       1.631   8.707  17.947  0.00  0.00    +0.000 A 
ATOM     29  C   UNL     1       2.169   7.537  18.502  0.00  0.00    +0.000 A 
ATOM     30  H   UNL     1       3.101   5.775  20.978  0.00  0.00    +0.000 HD
ENDBRANCH  16  17
ENDBRANCH   1  16
TORSDOF 9
ENDMDL
MODEL 2
REMARK VINA RESULT:      -8.1      0.982      1.600
REMARK  Name = 
REMARK  9 active torsions:
REMARK  status: ('A' for Active; 'I' for Inactive)
REMARK    1  A    between atoms: N_1  and  C_2
REMARK    2  A    between atoms: C_2  and  C_3
REMARK    3  A    between atoms: C_3  and  C_4
REMARK    4  A    between atoms: C_4  and  C_5
REMARK    5  A    between atoms: C_5  and  N_6
REMARK    6  A    between atoms: N_6  and  C_7
REMARK    7  A    between atoms: N_6  and  C_14
REMARK    8  A    between atoms: C_7  and  C_8
REMARK    9  A    between atoms: C_14  and  C_15
REMARK                            x       y       z     vdW  Elec       q    Type
REMARK                         _______ _______ _______ _____ _____    ______ ____
ROOT
ATOM      1  N   UNL     1       6.273   4.847  18.075  0.00  0.00    +0.000 NA
ENDROOT
BRANCH   1   2
ATOM      2  C   UNL     1       6.948   5.648  19.125  0.00  0.00    +0.000 C 
BRANCH   2   3
ATOM      3  C   UNL     1       7.965   6.728  18.681  0.00  0.00    +0.000 C 
BRANCH   3   4
ATOM      4  C   UNL     1       7.555   7.579  17.472  0.00  0.00    +0.000 C 
BRANCH   4   5
ATOM      5  C   UNL     1       6.038   7.760  17.384  0.00  0.00    +0.000 C 
BRANCH   5   6
ATOM      6  N   UNL     1       5.514   7.176  16.154  0.00  0.00    +0.000 NA
ATOM      7  H   UNL     1       5.352   7.920  15.477  0.00  0.00    +0.000 HD
ATOM      8  H   UNL     1       4.600   6.762  16.343  0.00  0.00    +0.000 HD
ENDBRANCH   5   6
ENDBRANCH   4   5
ENDBRANCH   3   4
ENDBRANCH   2   3
ENDBRANCH   1   2
BRANCH   1   9
ATOM      9  C   UNL     1       7.242   4.250  17.115  0.00  0.00    +0.000 C 
BRANCH   9  10
ATOM     10  C   UNL     1       6.959   4.372  15.616  0.00  0.00    +0.000 A 
ATOM     11  C   UNL     1       5.917   3.622  15.056  0.00  0.00    +0.000 A 
ATOM     12  C   UNL     1       5.731   3.646  13.674  0.00  0.00    +0.000 A 
ATOM     13  C   UNL     1       6.570   4.440  12.903  0.00  0.00    +0.000 A 
ATOM     14  C   UNL     1       7.523   5.190  13.529  0.00  0.00    +0.000 A 
ATOM     15  N   UNL     1       7.725   5.204  14.866  0.00  0.00    +0.000 NA
ENDBRANCH   9  10
ENDBRANCH   1   9
BRANCH   1  16
ATOM     16  C   UNL     1       5.396   3.813  18.725  0.00  0.00    +0.000 C 
BRANCH  16  17
ATOM     17  C   UNL     1       3.945   4.205  19.051  0.00  0.00    +0.000 A 
ATOM     18  N   UNL     1       2.962   3.295  18.780  0.00  0.00    +0.000 NA
ATOM     19  C   UNL     1       1.836   3.725  18.171  0.00  0.00    +0.000 A 
ATOM     20  C   UNL     1       1.653   5.021  17.702  0.00  0.00    +0.000 A 
ATOM     21  C   UNL     1       2.570   5.972  18.202  0.00  0.00    +0.000 A 
ATOM     22  C   UNL     1       3.494   5.528  19.157  0.00  0.00    +0.000 A 
ATOM     23  N   UNL     1       2.935   6.196  20.267  0.00  0.00    +0.000 N 
ATOM     24  C   UNL     1       2.264   7.334  19.842  0.00  0.00    +0.000 A 
ATOM     25  C   UNL     1       1.450   8.266  20.491  0.00  0.00    +0.000 A 
ATOM     26  C   UNL     1       0.947   9.316  19.707  0.00  0.00    +0.000 A 
ATOM     27  C   UNL     1       1.336   9.484  18.377  0.00  0.00    +0.000 A 
ATOM     28  C   UNL     1       2.073   8.493  17.728  0.00  0.00    +0.000 A 
ATOM     29  C   UNL     1       2.453   7.360  18.461  0.00  0.00    +0.000 A 
ATOM     30  H   UNL     1       2.898   5.806  21.198  0.00  0.00    +0.000 HD
ENDBRANCH  16  17
ENDBRANCH   1  16
TORSDOF 9
ENDMDL
MODEL 3
REMARK VINA RESULT:      -8.0      1.190      1.321
REMARK  Name = 
REMARK  9 active torsions:
REMARK  status: ('A' for Active; 'I' for Inactive)
REMARK    1  A    between atoms: N_1  and  C_2
REMARK    2  A    between atoms: C_2  and  C_3
REMARK    3  A    between atoms: C_3  and  C_4
REMARK    4  A    between atoms: C_4  and  C_5
REMARK    5  A    between atoms: C_5  and  N_6
REMARK    6  A    between atoms: N_6  and  C_7
REMARK    7  A    between atoms: N_6  and  C_14
REMARK    8  A    between atoms: C_7  and  C_8
REMARK    9  A    between atoms: C_14  and  C_15
REMARK                            x       y       z     vdW  Elec       q    Type
REMARK                         _______ _______ _______ _____ _____    ______ ____
ROOT
ATOM      1  N   UNL     1       5.882   5.369  16.911  0.00  0.00    +0.000 NA
ENDROOT
BRANCH   1   2
ATOM      2  C   UNL     1       6.081   6.778  17.328  0.00  0.00    +0.000 C 
BRANCH   2   3
ATOM      3  C   UNL     1       7.504   7.378  17.228  0.00  0.00    +0.000 C 
BRANCH   3   4
ATOM      4  C   UNL     1       8.248   7.568  18.556  0.00  0.00    +0.000 C 
BRANCH   4   5
ATOM      5  C   UNL     1       8.781   8.993  18.718  0.00  0.00    +0.000 C 
BRANCH   5   6
ATOM      6  N   UNL     1       8.091   9.913  17.820  0.00  0.00    +0.000 NA
ATOM      7  H   UNL     1       7.105   9.659  17.779  0.00  0.00    +0.000 HD
ATOM      8  H   UNL     1       8.453   9.791  16.873  0.00  0.00    +0.000 HD
ENDBRANCH   5   6
ENDBRANCH   4   5
ENDBRANCH   3   4
ENDBRANCH   2   3
ENDBRANCH   1   2
BRANCH   1   9
ATOM      9  C   UNL     1       7.074   4.818  16.210  0.00  0.00    +0.000 C 
BRANCH   9  10
ATOM     10  C   UNL     1       7.027   4.672  14.687  0.00  0.00    +0.000 A 
ATOM     11  C   UNL     1       6.138   3.752  14.118  0.00  0.00    +0.000 A 
ATOM     12  C   UNL     1       6.174   3.537  12.740  0.00  0.00    +0.000 A 
ATOM     13  C   UNL     1       7.072   4.270  11.976  0.00  0.00    +0.000 A 
ATOM     14  C   UNL     1       7.863   5.193  12.596  0.00  0.00    +0.000 A 
ATOM     15  N   UNL     1       7.848   5.439  13.926  0.00  0.00    +0.000 NA
ENDBRANCH   9  10
ENDBRANCH   1   9
BRANCH   1  16
ATOM     16  C   UNL     1       5.488   4.547  18.107  0.00  0.00    +0.000 C 
BRANCH  16  17
ATOM     17  C   UNL     1       4.054   4.700  18.642  0.00  0.00    +0.000 A 
ATOM     18  N   UNL     1       3.156   3.712  18.351  0.00  0.00    +0.000 NA
ATOM     19  C   UNL     1       1.921   4.067  17.937  0.00  0.00    +0.000 A 
ATOM     20  C   UNL     1       1.532   5.377  17.683  0.00  0.00    +0.000 A 
ATOM     21  C   UNL     1       2.390   6.367  18.212  0.00  0.00    +0.000 A 
ATOM     22  C   UNL     1       3.472   5.927  18.986  0.00  0.00    +0.000 A 
ATOM     23  N   UNL     1       2.984   6.366  20.236  0.00  0.00    +0.000 N 
ATOM     24  C   UNL     1       2.140   7.452  20.056  0.00  0.00    +0.000 A 
ATOM     25  C   UNL     1       1.313   8.178  20.918  0.00  0.00    +0.000 A 
ATOM     26  C   UNL     1       0.598   9.246  20.353  0.00  0.00    +0.000 A 
ATOM     27  C   UNL     1       0.795   9.635  19.027  0.00  0.00    +0.000 A 
ATOM     28  C   UNL     1       1.552   8.841  18.165  0.00  0.00    +0.000 A 
ATOM     29  C   UNL     1       2.148   7.682  18.681  0.00  0.00    +0.000 A 
ATOM     30  H   UNL     1       3.110   5.857  21.099  0.00  0.00    +0.000 HD
ENDBRANCH  16  17
ENDBRANCH   1  16
TORSDOF 9
ENDMDL
MODEL 4
REMARK VINA RESULT:      -7.9      2.231      3.659
REMARK  Name = 
REMARK  9 active torsions:
REMARK  status: ('A' for Active; 'I' for Inactive)
REMARK    1  A    between atoms: N_1  and  C_2
REMARK    2  A    between atoms: C_2  and  C_3
REMARK    3  A    between atoms: C_3  and  C_4
REMARK    4  A    between atoms: C_4  and  C_5
REMARK    5  A    between atoms: C_5  and  N_6
REMARK    6  A    between atoms: N_6  and  C_7
REMARK    7  A    between atoms: N_6  and  C_14
REMARK    8  A    between atoms: C_7  and  C_8
REMARK    9  A    between atoms: C_14  and  C_15
REMARK                            x       y       z     vdW  Elec       q    Type
REMARK                         _______ _______ _______ _____ _____    ______ ____
ROOT
ATOM      1  N   UNL     1       6.874   6.886  16.881  0.00  0.00    +0.000 NA
ENDROOT
BRANCH   1   2
ATOM      2  C   UNL     1       8.064   7.726  17.158  0.00  0.00    +0.000 C 
BRANCH   2   3
ATOM      3  C   UNL     1       7.842   9.131  17.770  0.00  0.00    +0.000 C 
BRANCH   3   4
ATOM      4  C   UNL     1       8.937   9.628  18.723  0.00  0.00    +0.000 C 
BRANCH   4   5
ATOM      5  C   UNL     1       9.561  10.941  18.247  0.00  0.00    +0.000 C 
BRANCH   5   6
ATOM      6  N   UNL     1      10.587  11.399  19.177  0.00  0.00    +0.000 NA
ATOM      7  H   UNL     1      11.005  12.255  18.815  0.00  0.00    +0.000 HD
ATOM      8  H   UNL     1      11.339  10.710  19.211  0.00  0.00    +0.000 HD
ENDBRANCH   5   6
ENDBRANCH   4   5
ENDBRANCH   3   4
ENDBRANCH   2   3
ENDBRANCH   1   2
BRANCH   1   9
ATOM      9  C   UNL     1       7.245   5.497  16.493  0.00  0.00    +0.000 C 
BRANCH   9  10
ATOM     10  C   UNL     1       6.999   5.048  15.051  0.00  0.00    +0.000 A 
ATOM     11  C   UNL     1       5.927   4.189  14.778  0.00  0.00    +0.000 A 
ATOM     12  C   UNL     1       5.770   3.689  13.485  0.00  0.00    +0.000 A 
ATOM     13  C   UNL     1       6.668   4.089  12.505  0.00  0.00    +0.000 A 
ATOM     14  C   UNL     1       7.650   4.977  12.835  0.00  0.00    +0.000 A 
ATOM     15  N   UNL     1       7.827   5.493  14.072  0.00  0.00    +0.000 NA
ENDBRANCH   9  10
ENDBRANCH   1   9
BRANCH   1  16
ATOM     16  C   UNL     1       5.950   6.926  18.066  0.00  0.00    +0.000 C 
BRANCH  16  17
ATOM     17  C   UNL     1       4.461   6.625  17.827  0.00  0.00    +0.000 A 
ATOM     18  N   UNL     1       3.649   7.665  17.471  0.00  0.00    +0.000 NA
ATOM     19  C   UNL     1       2.450   7.784  18.081  0.00  0.00    +0.000 A 
ATOM     20  C   UNL     1       2.028   6.975  19.129  0.00  0.00    +0.000 A 
ATOM     21  C   UNL     1       2.773   5.788  19.305  0.00  0.00    +0.000 A 
ATOM     22  C   UNL     1       3.785   5.525  18.372  0.00  0.00    +0.000 A 
ATOM     23  N   UNL     1       3.144   4.454  17.713  0.00  0.00    +0.000 N 
ATOM     24  C   UNL     1       2.271   3.820  18.587  0.00  0.00    +0.000 A 
ATOM     25  C   UNL     1       1.321   2.808  18.427  0.00  0.00    +0.000 A 
ATOM     26  C   UNL     1       0.620   2.416  19.578  0.00  0.00    +0.000 A 
ATOM     27  C   UNL     1       0.940   2.928  20.836  0.00  0.00    +0.000 A 
ATOM     28  C   UNL     1       1.825   4.000  20.957  0.00  0.00    +0.000 A 
ATOM     29  C   UNL     1       2.418   4.505  19.792  0.00  0.00    +0.000 A 
ATOM     30  H   UNL     1       3.199   4.291  16.718  0.00  0.00    +0.000 HD
ENDBRANCH  16  17
ENDBRANCH   1  16
TORSDOF 9
ENDMDL
MODEL 5
REMARK VINA RESULT:      -7.8      2.234      3.556
REMARK  Name = 
REMARK  9 active torsions:
REMARK  status: ('A' for Active; 'I' for Inactive)
REMARK    1  A    between atoms: N_1  and  C_2
REMARK    2  A    between atoms: C_2  and  C_3
REMARK    3  A    between atoms: C_3  and  C_4
REMARK    4  A    between atoms: C_4  and  C_5
REMARK    5  A    between atoms: C_5  and  N_6
REMARK    6  A    between atoms: N_6  and  C_7
REMARK    7  A    between atoms: N_6  and  C_14
REMARK    8  A    between atoms: C_7  and  C_8
REMARK    9  A    between atoms: C_14  and  C_15
REMARK                            x       y       z     vdW  Elec       q    Type
REMARK                         _______ _______ _______ _____ _____    ______ ____
ROOT
ATOM      1  N   UNL     1       6.656   6.823  16.391  0.00  0.00    +0.000 NA
ENDROOT
BRANCH   1   2
ATOM      2  C   UNL     1       7.757   7.373  17.220  0.00  0.00    +0.000 C 
BRANCH   2   3
ATOM      3  C   UNL     1       7.666   8.851  17.670  0.00  0.00    +0.000 C 
BRANCH   3   4
ATOM      4  C   UNL     1       8.722   9.310  18.683  0.00  0.00    +0.000 C 
BRANCH   4   5
ATOM      5  C   UNL     1       9.346  10.652  18.296  0.00  0.00    +0.000 C 
BRANCH   5   6
ATOM      6  N   UNL     1      10.294  11.099  19.311  0.00  0.00    +0.000 NA
ATOM      7  H   UNL     1      10.186  10.521  20.143  0.00  0.00    +0.000 HD
ATOM      8  H   UNL     1      10.057  12.050  19.596  0.00  0.00    +0.000 HD
ENDBRANCH   5   6
ENDBRANCH   4   5
ENDBRANCH   3   4
ENDBRANCH   2   3
ENDBRANCH   1   2
BRANCH   1   9
ATOM      9  C   UNL     1       6.857   5.382  16.076  0.00  0.00    +0.000 C 
BRANCH   9  10
ATOM     10  C   UNL     1       6.859   4.945  14.609  0.00  0.00    +0.000 A 
ATOM     11  C   UNL     1       5.948   3.970  14.187  0.00  0.00    +0.000 A 
ATOM     12  C   UNL     1       6.024   3.491  12.879  0.00  0.00    +0.000 A 
ATOM     13  C   UNL     1       6.985   4.024  12.031  0.00  0.00    +0.000 A 
ATOM     14  C   UNL     1       7.797   5.016  12.498  0.00  0.00    +0.000 A 
ATOM     15  N   UNL     1       7.745   5.515  13.753  0.00  0.00    +0.000 NA
ENDBRANCH   9  10
ENDBRANCH   1   9
BRANCH   1  16
ATOM     16  C   UNL     1       5.342   7.085  17.074  0.00  0.00    +0.000 C 
BRANCH  16  17
ATOM     17  C   UNL     1       4.990   6.235  18.305  0.00  0.00    +0.000 A 
ATOM     18  N   UNL     1       6.020   5.757  19.066  0.00  0.00    +0.000 NA
ATOM     19  C   UNL     1       5.980   4.468  19.466  0.00  0.00    +0.000 A 
ATOM     20  C   UNL     1       5.007   3.559  19.066  0.00  0.00    +0.000 A 
ATOM     21  C   UNL     1       3.854   4.136  18.488  0.00  0.00    +0.000 A 
ATOM     22  C   UNL     1       3.786   5.535  18.458  0.00  0.00    +0.000 A 
ATOM     23  N   UNL     1       2.783   5.684  19.438  0.00  0.00    +0.000 N 
ATOM     24  C   UNL     1       1.981   4.551  19.467  0.00  0.00    +0.000 A 
ATOM     25  C   UNL     1       0.947   4.129  20.307  0.00  0.00    +0.000 A 
ATOM     26  C   UNL     1       0.355   2.893  20.003  0.00  0.00    +0.000 A 
ATOM     27  C   UNL     1       0.703   2.180  18.854  0.00  0.00    +0.000 A 
ATOM     28  C   UNL     1       1.798   2.575  18.085  0.00  0.00    +0.000 A 
ATOM     29  C   UNL     1       2.497   3.728  18.467  0.00  0.00    +0.000 A 
ATOM     30  H   UNL     1       2.765   6.432  20.116  0.00  0.00    +0.000 HD
ENDBRANCH  16  17
ENDBRANCH   1  16
TORSDOF 9
ENDMDL
MODEL 6
REMARK VINA RESULT:      -7.7      3.534      8.786
REMARK  Name = 
REMARK  9 active torsions:
REMARK  status: ('A' for Active; 'I' for Inactive)
REMARK    1  A    between atoms: N_1  and  C_2
REMARK    2  A    between atoms: C_2  and  C_3
REMARK    3  A    between atoms: C_3  and  C_4
REMARK    4  A    between atoms: C_4  and  C_5
REMARK    5  A    between atoms: C_5  and  N_6
REMARK    6  A    between atoms: N_6  and  C_7
REMARK    7  A    between atoms: N_6  and  C_14
REMARK    8  A    between atoms: C_7  and  C_8
REMARK    9  A    between atoms: C_14  and  C_15
REMARK                            x       y       z     vdW  Elec       q    Type
REMARK                         _______ _______ _______ _____ _____    ______ ____
ROOT
ATOM      1  N   UNL     1       0.793   9.789  18.616  0.00  0.00    +0.000 NA
ENDROOT
BRANCH   1   2
ATOM      2  C   UNL     1      -0.644   9.443  18.500  0.00  0.00    +0.000 C 
BRANCH   2   3
ATOM      3  C   UNL     1      -1.588  10.459  17.810  0.00  0.00    +0.000 C 
BRANCH   3   4
ATOM      4  C   UNL     1      -2.875   9.878  17.212  0.00  0.00    +0.000 C 
BRANCH   4   5
ATOM      5  C   UNL     1      -2.920  10.026  15.689  0.00  0.00    +0.000 C 
BRANCH   5   6
ATOM      6  N   UNL     1      -3.172  11.412  15.308  0.00  0.00    +0.000 NA
ATOM      7  H   UNL     1      -3.617  11.427  14.391  0.00  0.00    +0.000 HD
ATOM      8  H   UNL     1      -2.280  11.896  15.196  0.00  0.00    +0.000 HD
ENDBRANCH   5   6
ENDBRANCH   4   5
ENDBRANCH   3   4
ENDBRANCH   2   3
ENDBRANCH   1   2
BRANCH   1   9
ATOM      9  C   UNL     1       1.282   9.696  20.019  0.00  0.00    +0.000 C 
BRANCH   9  10
ATOM     10  C   UNL     1       0.461  10.361  21.127  0.00  0.00    +0.000 A 
ATOM     11  C   UNL     1       0.004   9.583  22.197  0.00  0.00    +0.000 A 
ATOM     12  C   UNL     1      -0.837  10.163  23.147  0.00  0.00    +0.000 A 
ATOM     13  C   UNL     1      -1.165  11.506  23.013  0.00  0.00    +0.000 A 
ATOM     14  C   UNL     1      -0.630  12.213  21.976  0.00  0.00    +0.000 A 
ATOM     15  N   UNL     1       0.198  11.690  21.044  0.00  0.00    +0.000 NA
ENDBRANCH   9  10
ENDBRANCH   1   9
BRANCH   1  16
ATOM     16  C   UNL     1       1.589   8.931  17.671  0.00  0.00    +0.000 C 
BRANCH  16  17
ATOM     17  C   UNL     1       2.529   7.877  18.277  0.00  0.00    +0.000 A 
ATOM     18  N   UNL     1       3.806   7.807  17.793  0.00  0.00    +0.000 NA
ATOM     19  C   UNL     1       4.324   6.590  17.518  0.00  0.00    +0.000 A 
ATOM     20  C   UNL     1       3.604   5.403  17.597  0.00  0.00    +0.000 A 
ATOM     21  C   UNL     1       2.390   5.487  18.315  0.00  0.00    +0.000 A 
ATOM     22  C   UNL     1       2.092   6.713  18.924  0.00  0.00    +0.000 A 
ATOM     23  N   UNL     1       2.295   6.301  20.258  0.00  0.00    +0.000 N 
ATOM     24  C   UNL     1       2.057   4.939  20.370  0.00  0.00    +0.000 A 
ATOM     25  C   UNL     1       2.224   4.018  21.409  0.00  0.00    +0.000 A 
ATOM     26  C   UNL     1       1.853   2.691  21.139  0.00  0.00    +0.000 A 
ATOM     27  C   UNL     1       1.240   2.336  19.937  0.00  0.00    +0.000 A 
ATOM     28  C   UNL     1       1.168   3.249  18.885  0.00  0.00    +0.000 A 
ATOM     29  C   UNL     1       1.677   4.539  19.090  0.00  0.00    +0.000 A 
ATOM     30  H   UNL     1       2.707   6.886  20.971  0.00  0.00    +0.000 HD
ENDBRANCH  16  17
ENDBRANCH   1  16
TORSDOF 9
ENDMDL
MODEL 7
REMARK VINA RESULT:      -7.7      3.389      8.244
REMARK  Name = 
REMARK  9 active torsions:
REMARK  status: ('A' for Active; 'I' for Inactive)
REMARK    1  A    between atoms: N_1  and  C_2
REMARK    2  A    between atoms: C_2  and  C_3
REMARK    3  A    between atoms: C_3  and  C_4
REMARK    4  A    between atoms: C_4  and  C_5
REMARK    5  A    between atoms: C_5  and  N_6
REMARK    6  A    between atoms: N_6  and  C_7
REMARK    7  A    between atoms: N_6  and  C_14
REMARK    8  A    between atoms: C_7  and  C_8
REMARK    9  A    between atoms: C_14  and  C_15
REMARK                            x       y       z     vdW  Elec       q    Type
REMARK                         _______ _______ _______ _____ _____    ______ ____
ROOT
ATOM      1  N   UNL     1       1.774  10.068  18.545  0.00  0.00    +0.000 NA
ENDROOT
BRANCH   1   2
ATOM      2  C   UNL     1       2.182  11.319  17.858  0.00  0.00    +0.000 C 
BRANCH   2   3
ATOM      3  C   UNL     1       2.367  12.596  18.714  0.00  0.00    +0.000 C 
BRANCH   3   4
ATOM      4  C   UNL     1       1.553  13.820  18.277  0.00  0.00    +0.000 C 
BRANCH   4   5
ATOM      5  C   UNL     1       0.076  13.694  18.658  0.00  0.00    +0.000 C 
BRANCH   5   6
ATOM      6  N   UNL     1      -0.568  15.003  18.689  0.00  0.00    +0.000 NA
ATOM      7  H   UNL     1      -0.700  15.284  19.660  0.00  0.00    +0.000 HD
ATOM      8  H   UNL     1      -1.503  14.925  18.288  0.00  0.00    +0.000 HD
ENDBRANCH   5   6
ENDBRANCH   4   5
ENDBRANCH   3   4
ENDBRANCH   2   3
ENDBRANCH   1   2
BRANCH   1   9
ATOM      9  C   UNL     1       0.365  10.124  19.022  0.00  0.00    +0.000 C 
BRANCH   9  10
ATOM     10  C   UNL     1       0.092   9.979  20.521  0.00  0.00    +0.000 A 
ATOM     11  C   UNL     1      -0.758  10.896  21.150  0.00  0.00    +0.000 A 
ATOM     12  C   UNL     1      -0.918  10.833  22.535  0.00  0.00    +0.000 A 
ATOM     13  C   UNL     1      -0.251   9.838  23.236  0.00  0.00    +0.000 A 
ATOM     14  C   UNL     1       0.511   8.943  22.543  0.00  0.00    +0.000 A 
ATOM     15  N   UNL     1       0.680   8.963  21.202  0.00  0.00    +0.000 NA
ENDBRANCH   9  10
ENDBRANCH   1   9
BRANCH   1  16
ATOM     16  C   UNL     1       2.029   8.897  17.636  0.00  0.00    +0.000 C 
BRANCH  16  17
ATOM     17  C   UNL     1       2.879   7.738  18.181  0.00  0.00    +0.000 A 
ATOM     18  N   UNL     1       4.054   7.454  17.542  0.00  0.00    +0.000 NA
ATOM     19  C   UNL     1       4.348   6.163  17.279  0.00  0.00    +0.000 A 
ATOM     20  C   UNL     1       3.481   5.104  17.521  0.00  0.00    +0.000 A 
ATOM     21  C   UNL     1       2.400   5.401  18.382  0.00  0.00    +0.000 A 
ATOM     22  C   UNL     1       2.369   6.682  18.947  0.00  0.00    +0.000 A 
ATOM     23  N   UNL     1       2.688   6.300  20.267  0.00  0.00    +0.000 N 
ATOM     24  C   UNL     1       2.272   4.995  20.493  0.00  0.00    +0.000 A 
ATOM     25  C   UNL     1       2.443   4.103  21.555  0.00  0.00    +0.000 A 
ATOM     26  C   UNL     1       1.850   2.839  21.417  0.00  0.00    +0.000 A 
ATOM     27  C   UNL     1       1.034   2.531  20.327  0.00  0.00    +0.000 A 
ATOM     28  C   UNL     1       0.954   3.401  19.239  0.00  0.00    +0.000 A 
ATOM     29  C   UNL     1       1.669   4.606  19.298  0.00  0.00    +0.000 A 
ATOM     30  H   UNL     1       3.274   6.843  20.885  0.00  0.00    +0.000 HD
ENDBRANCH  16  17
ENDBRANCH   1  16
TORSDOF 9
ENDMDL
MODEL 8
REMARK VINA RESULT:      -7.6      3.529      8.093
REMARK  Name = 
REMARK  9 active torsions:
REMARK  status: ('A' for Active; 'I' for Inactive)
REMARK    1  A    between atoms: N_1  and  C_2
REMARK    2  A    between atoms: C_2  and  C_3
REMARK    3  A    between atoms: C_3  and  C_4
REMARK    4  A    between atoms: C_4  and  C_5
REMARK    5  A    between atoms: C_5  and  N_6
REMARK    6  A    between atoms: N_6  and  C_7
REMARK    7  A    between atoms: N_6  and  C_14
REMARK    8  A    between atoms: C_7  and  C_8
REMARK    9  A    between atoms: C_14  and  C_15
REMARK                            x       y       z     vdW  Elec       q    Type
REMARK                         _______ _______ _______ _____ _____    ______ ____
ROOT
ATOM      1  N   UNL     1       0.659   9.530  18.709  0.00  0.00    +0.000 NA
ENDROOT
BRANCH   1   2
ATOM      2  C   UNL     1       1.293   9.803  20.022  0.00  0.00    +0.000 C 
BRANCH   2   3
ATOM      3  C   UNL     1       0.952  11.132  20.737  0.00  0.00    +0.000 C 
BRANCH   3   4
ATOM      4  C   UNL     1      -0.033  11.030  21.909  0.00  0.00    +0.000 C 
BRANCH   4   5
ATOM      5  C   UNL     1      -0.246   9.582  22.356  0.00  0.00    +0.000 C 
BRANCH   5   6
ATOM      6  N   UNL     1      -0.182   9.470  23.809  0.00  0.00    +0.000 NA
ATOM      7  H   UNL     1      -1.034   9.023  24.145  0.00  0.00    +0.000 HD
ATOM      8  H   UNL     1      -0.175  10.406  24.217  0.00  0.00    +0.000 HD
ENDBRANCH   5   6
ENDBRANCH   4   5
ENDBRANCH   3   4
ENDBRANCH   2   3
ENDBRANCH   1   2
BRANCH   1   9
ATOM      9  C   UNL     1       0.006  10.741  18.139  0.00  0.00    +0.000 C 
BRANCH   9  10
ATOM     10  C   UNL     1      -1.512  10.732  17.945  0.00  0.00    +0.000 A 
ATOM     11  C   UNL     1      -2.288  11.700  18.595  0.00  0.00    +0.000 A 
ATOM     12  C   UNL     1      -3.678  11.625  18.510  0.00  0.00    +0.000 A 
ATOM     13  C   UNL     1      -4.243  10.607  17.753  0.00  0.00    +0.000 A 
ATOM     14  C   UNL     1      -3.419   9.738  17.099  0.00  0.00    +0.000 A 
ATOM     15  N   UNL     1      -2.069   9.786  17.147  0.00  0.00    +0.000 NA
ENDBRANCH   9  10
ENDBRANCH   1   9
BRANCH   1  16
ATOM     16  C   UNL     1       1.679   8.935  17.778  0.00  0.00    +0.000 C 
BRANCH  16  17
ATOM     17  C   UNL     1       2.608   7.843  18.334  0.00  0.00    +0.000 A 
ATOM     18  N   UNL     1       3.836   7.693  17.754  0.00  0.00    +0.000 NA
ATOM     19  C   UNL     1       4.266   6.446  17.470  0.00  0.00    +0.000 A 
ATOM     20  C   UNL     1       3.494   5.301  17.632  0.00  0.00    +0.000 A 
ATOM     21  C   UNL     1       2.346   5.465  18.440  0.00  0.00    +0.000 A 
ATOM     22  C   UNL     1       2.162   6.718  19.040  0.00  0.00    +0.000 A 
ATOM     23  N   UNL     1       2.447   6.321  20.364  0.00  0.00    +0.000 N 
ATOM     24  C   UNL     1       2.147   4.977  20.527  0.00  0.00    +0.000 A 
ATOM     25  C   UNL     1       2.347   4.069  21.571  0.00  0.00    +0.000 A 
ATOM     26  C   UNL     1       1.886   2.759  21.363  0.00  0.00    +0.000 A 
ATOM     27  C   UNL     1       1.162   2.414  20.221  0.00  0.00    +0.000 A 
ATOM     28  C   UNL     1       1.056   3.309  19.156  0.00  0.00    +0.000 A 
ATOM     29  C   UNL     1       1.647   4.573  19.290  0.00  0.00    +0.000 A 
ATOM     30  H   UNL     1       2.944   6.896  21.029  0.00  0.00    +0.000 HD
ENDBRANCH  16  17
ENDBRANCH   1  16
TORSDOF 9
ENDMDL
MODEL 9
REMARK VINA RESULT:      -7.5      1.602      7.109
REMARK  Name = 
REMARK  9 active torsions:
REMARK  status: ('A' for Active; 'I' for Inactive)
REMARK    1  A    between atoms: N_1  and  C_2
REMARK    2  A    between atoms: C_2  and  C_3
REMARK    3  A    between atoms: C_3  and  C_4
REMARK    4  A    between atoms: C_4  and  C_5
REMARK    5  A    between atoms: C_5  and  N_6
REMARK    6  A    between atoms: N_6  and  C_7
REMARK    7  A    between atoms: N_6  and  C_14
REMARK    8  A    between atoms: C_7  and  C_8
REMARK    9  A    between atoms: C_14  and  C_15
REMARK                            x       y       z     vdW  Elec       q    Type
REMARK                         _______ _______ _______ _____ _____    ______ ____
ROOT
ATOM      1  N   UNL     1       4.237   4.280  19.074  0.00  0.00    +0.000 NA
ENDROOT
BRANCH   1   2
ATOM      2  C   UNL     1       4.187   2.823  19.345  0.00  0.00    +0.000 C 
BRANCH   2   3
ATOM      3  C   UNL     1       3.233   1.952  18.493  0.00  0.00    +0.000 C 
BRANCH   3   4
ATOM      4  C   UNL     1       1.950   2.640  18.009  0.00  0.00    +0.000 C 
BRANCH   4   5
ATOM      5  C   UNL     1       0.731   2.232  18.839  0.00  0.00    +0.000 C 
BRANCH   5   6
ATOM      6  N   UNL     1       0.570   3.108  19.995  0.00  0.00    +0.000 NA
ATOM      7  H   UNL     1       1.372   2.992  20.613  0.00  0.00    +0.000 HD
ATOM      8  H   UNL     1      -0.245   2.808  20.531  0.00  0.00    +0.000 HD
ENDBRANCH   5   6
ENDBRANCH   4   5
ENDBRANCH   3   4
ENDBRANCH   2   3
ENDBRANCH   1   2
BRANCH   1   9
ATOM      9  C   UNL     1       3.450   5.063  20.065  0.00  0.00    +0.000 C 
BRANCH   9  10
ATOM     10  C   UNL     1       2.718   6.321  19.591  0.00  0.00    +0.000 A 
ATOM     11  C   UNL     1       2.610   6.570  18.217  0.00  0.00    +0.000 A 
ATOM     12  C   UNL     1       2.044   7.771  17.788  0.00  0.00    +0.000 A 
ATOM     13  C   UNL     1       1.577   8.665  18.743  0.00  0.00    +0.000 A 
ATOM     14  C   UNL     1       1.662   8.322  20.061  0.00  0.00    +0.000 A 
ATOM     15  N   UNL     1       2.192   7.164  20.515  0.00  0.00    +0.000 NA
ENDBRANCH   9  10
ENDBRANCH   1   9
BRANCH   1  16
ATOM     16  C   UNL     1       5.673   4.723  18.999  0.00  0.00    +0.000 C 
BRANCH  16  17
ATOM     17  C   UNL     1       6.138   5.437  17.720  0.00  0.00    +0.000 A 
ATOM     18  N   UNL     1       6.004   6.796  17.662  0.00  0.00    +0.000 NA
ATOM     19  C   UNL     1       5.505   7.346  16.535  0.00  0.00    +0.000 A 
ATOM     20  C   UNL     1       5.017   6.611  15.461  0.00  0.00    +0.000 A 
ATOM     21  C   UNL     1       5.385   5.247  15.455  0.00  0.00    +0.000 A 
ATOM     22  C   UNL     1       6.250   4.814  16.470  0.00  0.00    +0.000 A 
ATOM     23  N   UNL     1       7.391   4.630  15.661  0.00  0.00    +0.000 N 
ATOM     24  C   UNL     1       7.004   4.343  14.360  0.00  0.00    +0.000 A 
ATOM     25  C   UNL     1       7.707   4.197  13.160  0.00  0.00    +0.000 A 
ATOM     26  C   UNL     1       6.947   3.890  12.020  0.00  0.00    +0.000 A 
ATOM     27  C   UNL     1       5.579   3.629  12.104  0.00  0.00    +0.000 A 
ATOM     28  C   UNL     1       4.887   3.871  13.291  0.00  0.00    +0.000 A 
ATOM     29  C   UNL     1       5.611   4.328  14.400  0.00  0.00    +0.000 A 
ATOM     30  H   UNL     1       8.333   4.838  15.961  0.00  0.00    +0.000 HD
ENDBRANCH  16  17
ENDBRANCH   1  16
TORSDOF 9
ENDMDL
