MODEL 1
REMARK VINA RESULT:     -10.1      0.000      0.000
REMARK  Name = 
REMARK  3 active torsions:
REMARK  status: ('A' for Active; 'I' for Inactive)
REMARK    1  A    between atoms: C_1  and  C_2
REMARK    2  A    between atoms: C_2  and  C_3
REMARK    3  A    between atoms: C_16  and  C_17
REMARK                            x       y       z     vdW  Elec       q    Type
REMARK                         _______ _______ _______ _____ _____    ______ ____
ROOT
ATOM      1  C   UNL     1       0.850   3.834  20.467  0.00  0.00    +0.000 C 
ATOM      2  C   UNL     1       2.015   3.204  19.627  0.00  0.00    +0.000 C 
ATOM      3  C   UNL     1       2.181   1.745  20.111  0.00  0.00    +0.000 C 
ATOM      4  C   UNL     1       1.415   3.186  18.173  0.00  0.00    +0.000 C 
ATOM      5  C   UNL     1       2.528   3.237  17.204  0.00  0.00    +0.000 C 
ATOM      6  C   UNL     1       3.244   4.471  17.618  0.00  0.00    +0.000 A 
ATOM      7  C   UNL     1       4.136   4.167  18.589  0.00  0.00    +0.000 A 
ATOM      8  C   UNL     1       5.331   4.861  18.289  0.00  0.00    +0.000 A 
ATOM      9  C   UNL     1       6.435   4.208  17.703  0.00  0.00    +0.000 A 
ATOM     10  C   UNL     1       7.266   4.849  16.735  0.00  0.00    +0.000 A 
ATOM     11  C   UNL     1       7.111   6.200  16.402  0.00  0.00    +0.000 A 
ATOM     12  C   UNL     1       6.125   6.932  17.025  0.00  0.00    +0.000 A 
ATOM     13  C   UNL     1       5.230   6.218  17.840  0.00  0.00    +0.000 A 
ATOM     14  C   UNL     1       3.963   6.755  17.952  0.00  0.00    +0.000 A 
ATOM     15  N   UNL     1       3.489   8.021  18.031  0.00  0.00    +0.000 NA
ATOM     16  C   UNL     1       2.307   7.848  18.589  0.00  0.00    +0.000 A 
ATOM     17  N   UNL     1       1.951   6.516  18.563  0.00  0.00    +0.000 N 
ATOM     18  C   UNL     1       2.923   5.821  17.879  0.00  0.00    +0.000 A 
ATOM     19  O   UNL     1       3.405   3.899  19.788  0.00  0.00    +0.000 OA
ATOM     20  H   UNL     1       1.284   6.135  19.212  0.00  0.00    +0.000 HD
ENDROOT
BRANCH  16  21
ATOM     21  C   UNL     1       1.521   8.889  19.226  0.00  0.00    +0.000 A 
ATOM     22  C   UNL     1       0.986   8.648  20.484  0.00  0.00    +0.000 A 
ATOM     23  C   UNL     1       0.297   9.665  21.130  0.00  0.00    +0.000 A 
ATOM     24  C   UNL     1      -0.191   9.496  22.434  0.00  0.00    +0.000 A 
ATOM     25  C   UNL     1      -0.844  10.537  23.066  0.00  0.00    +0.000 A 
ATOM     26  C   UNL     1      -1.042  11.749  22.425  0.00  0.00    +0.000 A 
ATOM     27  C   UNL     1      -0.580  11.923  21.116  0.00  0.00    +0.000 A 
ATOM     28  C   UNL     1       0.107  10.889  20.460  0.00  0.00    +0.000 A 
ATOM     29  C   UNL     1       0.639  11.004  19.167  0.00  0.00    +0.000 A 
ATOM     30  N   UNL     1       1.362  10.045  18.537  0.00  0.00    +0.000 NA
ENDBRANCH  16  21
TORSDOF 1
ENDMDL
MODEL 2
REMARK VINA RESULT:      -9.7      1.175      1.792
REMARK  Name = 
REMARK  3 active torsions:
REMARK  status: ('A' for Active; 'I' for Inactive)
REMARK    1  A    between atoms: C_1  and  C_2
REMARK    2  A    between atoms: C_2  and  C_3
REMARK    3  A    between atoms: C_16  and  C_17
REMARK                            x       y       z     vdW  Elec       q    Type
REMARK                         _______ _______ _______ _____ _____    ______ ____
ROOT
ATOM      1  C   UNL     1       0.763   3.954  20.366  0.00  0.00    +0.000 C 
ATOM      2  C   UNL     1       2.029   3.320  19.689  0.00  0.00    +0.000 C 
ATOM      3  C   UNL     1       2.219   1.920  20.317  0.00  0.00    +0.000 C 
ATOM      4  C   UNL     1       1.564   3.142  18.197  0.00  0.00    +0.000 C 
ATOM      5  C   UNL     1       2.756   3.171  17.327  0.00  0.00    +0.000 C 
ATOM      6  C   UNL     1       3.372   4.475  17.687  0.00  0.00    +0.000 A 
ATOM      7  C   UNL     1       4.186   4.306  18.754  0.00  0.00    +0.000 A 
ATOM      8  C   UNL     1       5.368   5.037  18.496  0.00  0.00    +0.000 A 
ATOM      9  C   UNL     1       6.551   4.399  18.069  0.00  0.00    +0.000 A 
ATOM     10  C   UNL     1       7.435   5.000  17.122  0.00  0.00    +0.000 A 
ATOM     11  C   UNL     1       7.246   6.306  16.655  0.00  0.00    +0.000 A 
ATOM     12  C   UNL     1       6.174   7.033  17.121  0.00  0.00    +0.000 A 
ATOM     13  C   UNL     1       5.244   6.343  17.918  0.00  0.00    +0.000 A 
ATOM     14  C   UNL     1       3.947   6.815  17.872  0.00  0.00    +0.000 A 
ATOM     15  N   UNL     1       3.408   8.056  17.793  0.00  0.00    +0.000 NA
ATOM     16  C   UNL     1       2.190   7.866  18.261  0.00  0.00    +0.000 A 
ATOM     17  N   UNL     1       1.902   6.518  18.326  0.00  0.00    +0.000 N 
ATOM     18  C   UNL     1       2.965   5.822  17.795  0.00  0.00    +0.000 A 
ATOM     19  O   UNL     1       3.363   4.103  19.905  0.00  0.00    +0.000 OA
ATOM     20  H   UNL     1       1.198   6.159  18.948  0.00  0.00    +0.000 HD
ENDROOT
BRANCH  16  21
ATOM     21  C   UNL     1       1.300   8.912  18.731  0.00  0.00    +0.000 A 
ATOM     22  C   UNL     1       0.289   9.358  17.891  0.00  0.00    +0.000 A 
ATOM     23  C   UNL     1      -0.610  10.304  18.361  0.00  0.00    +0.000 A 
ATOM     24  C   UNL     1      -1.696  10.726  17.578  0.00  0.00    +0.000 A 
ATOM     25  C   UNL     1      -2.595  11.644  18.085  0.00  0.00    +0.000 A 
ATOM     26  C   UNL     1      -2.436  12.174  19.355  0.00  0.00    +0.000 A 
ATOM     27  C   UNL     1      -1.344  11.779  20.137  0.00  0.00    +0.000 A 
ATOM     28  C   UNL     1      -0.429  10.830  19.655  0.00  0.00    +0.000 A 
ATOM     29  C   UNL     1       0.661  10.352  20.397  0.00  0.00    +0.000 A 
ATOM     30  N   UNL     1       1.521   9.389  19.980  0.00  0.00    +0.000 NA
ENDBRANCH  16  21
TORSDOF 1
ENDMDL
MODEL 3
REMARK VINA RESULT:      -9.4      1.177      1.764
REMARK  Name = 
REMARK  3 active torsions:
REMARK  status: ('A' for Active; 'I' for Inactive)
REMARK    1  A    between atoms: C_1  and  C_2
REMARK    2  A    between atoms: C_2  and  C_3
REMARK    3  A    between atoms: C_16  and  C_17
REMARK                            x       y       z     vdW  Elec       q    Type
REMARK                         _______ _______ _______ _____ _____    ______ ____
ROOT
ATOM      1  C   UNL     1       2.258   3.820  21.573  0.00  0.00    +0.000 C 
ATOM      2  C   UNL     1       3.047   3.118  20.413  0.00  0.00    +0.000 C 
ATOM      3  C   UNL     1       3.594   1.788  20.982  0.00  0.00    +0.000 C 
ATOM      4  C   UNL     1       1.909   2.790  19.377  0.00  0.00    +0.000 C 
ATOM      5  C   UNL     1       2.505   2.728  18.028  0.00  0.00    +0.000 C 
ATOM      6  C   UNL     1       3.153   4.060  17.913  0.00  0.00    +0.000 A 
ATOM      7  C   UNL     1       4.398   4.000  18.439  0.00  0.00    +0.000 A 
ATOM      8  C   UNL     1       5.256   4.698  17.559  0.00  0.00    +0.000 A 
ATOM      9  C   UNL     1       6.099   4.018  16.655  0.00  0.00    +0.000 A 
ATOM     10  C   UNL     1       6.361   4.516  15.344  0.00  0.00    +0.000 A 
ATOM     11  C   UNL     1       5.901   5.769  14.920  0.00  0.00    +0.000 A 
ATOM     12  C   UNL     1       5.169   6.541  15.794  0.00  0.00    +0.000 A 
ATOM     13  C   UNL     1       4.796   5.938  17.008  0.00  0.00    +0.000 A 
ATOM     14  C   UNL     1       3.628   6.406  17.575  0.00  0.00    +0.000 A 
ATOM     15  N   UNL     1       3.061   7.633  17.668  0.00  0.00    +0.000 NA
ATOM     16  C   UNL     1       2.250   7.494  18.698  0.00  0.00    +0.000 A 
ATOM     17  N   UNL     1       2.099   6.161  19.018  0.00  0.00    +0.000 N 
ATOM     18  C   UNL     1       2.788   5.412  18.090  0.00  0.00    +0.000 A 
ATOM     19  O   UNL     1       4.271   3.916  19.860  0.00  0.00    +0.000 OA
ATOM     20  H   UNL     1       1.818   5.868  19.938  0.00  0.00    +0.000 HD
ENDROOT
BRANCH  16  21
ATOM     21  C   UNL     1       1.663   8.585  19.455  0.00  0.00    +0.000 A 
ATOM     22  C   UNL     1       1.273   9.734  18.781  0.00  0.00    +0.000 A 
ATOM     23  C   UNL     1       0.644  10.749  19.487  0.00  0.00    +0.000 A 
ATOM     24  C   UNL     1       0.160  11.894  18.836  0.00  0.00    +0.000 A 
ATOM     25  C   UNL     1      -0.493  12.874  19.558  0.00  0.00    +0.000 A 
ATOM     26  C   UNL     1      -0.667  12.755  20.928  0.00  0.00    +0.000 A 
ATOM     27  C   UNL     1      -0.169  11.629  21.593  0.00  0.00    +0.000 A 
ATOM     28  C   UNL     1       0.478  10.608  20.878  0.00  0.00    +0.000 A 
ATOM     29  C   UNL     1       0.962   9.430  21.468  0.00  0.00    +0.000 A 
ATOM     30  N   UNL     1       1.531   8.402  20.791  0.00  0.00    +0.000 NA
ENDBRANCH  16  21
TORSDOF 1
ENDMDL
MODEL 4
REMARK VINA RESULT:      -9.0      1.602      2.115
REMARK  Name = 
REMARK  3 active torsions:
REMARK  status: ('A' for Active; 'I' for Inactive)
REMARK    1  A    between atoms: C_1  and  C_2
REMARK    2  A    between atoms: C_2  and  C_3
REMARK    3  A    between atoms: C_16  and  C_17
REMARK                            x       y       z     vdW  Elec       q    Type
REMARK                         _______ _______ _______ _____ _____    ______ ____
ROOT
ATOM      1  C   UNL     1       0.674   4.688  20.482  0.00  0.00    +0.000 C 
ATOM      2  C   UNL     1       1.863   3.856  19.886  0.00  0.00    +0.000 C 
ATOM      3  C   UNL     1       1.930   2.533  20.685  0.00  0.00    +0.000 C 
ATOM      4  C   UNL     1       1.361   3.538  18.430  0.00  0.00    +0.000 C 
ATOM      5  C   UNL     1       2.536   3.344  17.559  0.00  0.00    +0.000 C 
ATOM      6  C   UNL     1       3.278   4.617  17.749  0.00  0.00    +0.000 A 
ATOM      7  C   UNL     1       4.089   4.506  18.826  0.00  0.00    +0.000 A 
ATOM      8  C   UNL     1       5.331   5.082  18.473  0.00  0.00    +0.000 A 
ATOM      9  C   UNL     1       6.442   4.285  18.126  0.00  0.00    +0.000 A 
ATOM     10  C   UNL     1       7.363   4.674  17.108  0.00  0.00    +0.000 A 
ATOM     11  C   UNL     1       7.292   5.924  16.481  0.00  0.00    +0.000 A 
ATOM     12  C   UNL     1       6.301   6.803  16.855  0.00  0.00    +0.000 A 
ATOM     13  C   UNL     1       5.322   6.311  17.736  0.00  0.00    +0.000 A 
ATOM     14  C   UNL     1       4.076   6.896  17.635  0.00  0.00    +0.000 A 
ATOM     15  N   UNL     1       3.655   8.163  17.403  0.00  0.00    +0.000 NA
ATOM     16  C   UNL     1       2.432   8.151  17.895  0.00  0.00    +0.000 A 
ATOM     17  N   UNL     1       2.019   6.856  18.131  0.00  0.00    +0.000 N 
ATOM     18  C   UNL     1       3.002   6.000  17.688  0.00  0.00    +0.000 A 
ATOM     19  O   UNL     1       3.269   4.528  19.997  0.00  0.00    +0.000 OA
ATOM     20  H   UNL     1       1.294   6.646  18.796  0.00  0.00    +0.000 HD
ENDROOT
BRANCH  16  21
ATOM     21  C   UNL     1       1.653   9.328  18.233  0.00  0.00    +0.000 A 
ATOM     22  C   UNL     1       2.281  10.565  18.246  0.00  0.00    +0.000 A 
ATOM     23  C   UNL     1       1.526  11.703  18.494  0.00  0.00    +0.000 A 
ATOM     24  C   UNL     1       2.101  12.982  18.438  0.00  0.00    +0.000 A 
ATOM     25  C   UNL     1       1.319  14.099  18.656  0.00  0.00    +0.000 A 
ATOM     26  C   UNL     1      -0.031  13.980  18.948  0.00  0.00    +0.000 A 
ATOM     27  C   UNL     1      -0.611  12.709  19.029  0.00  0.00    +0.000 A 
ATOM     28  C   UNL     1       0.157  11.559  18.789  0.00  0.00    +0.000 A 
ATOM     29  C   UNL     1      -0.363  10.256  18.807  0.00  0.00    +0.000 A 
ATOM     30  N   UNL     1       0.342   9.135  18.515  0.00  0.00    +0.000 NA
ENDBRANCH  16  21
TORSDOF 1
ENDMDL
MODEL 5
REMARK VINA RESULT:      -8.9      1.431      3.985
REMARK  Name = 
REMARK  3 active torsions:
REMARK  status: ('A' for Active; 'I' for Inactive)
REMARK    1  A    between atoms: C_1  and  C_2
REMARK    2  A    between atoms: C_2  and  C_3
REMARK    3  A    between atoms: C_16  and  C_17
REMARK                            x       y       z     vdW  Elec       q    Type
REMARK                         _______ _______ _______ _____ _____    ______ ____
ROOT
ATOM      1  C   UNL     1       4.998   6.808  15.834  0.00  0.00    +0.000 C 
ATOM      2  C   UNL     1       5.118   5.388  16.490  0.00  0.00    +0.000 C 
ATOM      3  C   UNL     1       5.826   4.477  15.460  0.00  0.00    +0.000 C 
ATOM      4  C   UNL     1       6.102   5.650  17.688  0.00  0.00    +0.000 C 
ATOM      5  C   UNL     1       5.837   4.650  18.741  0.00  0.00    +0.000 C 
ATOM      6  C   UNL     1       4.390   4.853  19.006  0.00  0.00    +0.000 A 
ATOM      7  C   UNL     1       3.666   4.102  18.144  0.00  0.00    +0.000 A 
ATOM      8  C   UNL     1       2.622   3.505  18.887  0.00  0.00    +0.000 A 
ATOM      9  C   UNL     1       2.684   2.158  19.297  0.00  0.00    +0.000 A 
ATOM     10  C   UNL     1       2.173   1.726  20.558  0.00  0.00    +0.000 A 
ATOM     11  C   UNL     1       1.470   2.588  21.408  0.00  0.00    +0.000 A 
ATOM     12  C   UNL     1       1.268   3.893  21.017  0.00  0.00    +0.000 A 
ATOM     13  C   UNL     1       1.932   4.311  19.851  0.00  0.00    +0.000 A 
ATOM     14  C   UNL     1       2.247   5.654  19.790  0.00  0.00    +0.000 A 
ATOM     15  N   UNL     1       1.611   6.782  20.189  0.00  0.00    +0.000 NA
ATOM     16  C   UNL     1       2.177   7.707  19.440  0.00  0.00    +0.000 A 
ATOM     17  N   UNL     1       3.318   7.214  18.841  0.00  0.00    +0.000 N 
ATOM     18  C   UNL     1       3.529   5.932  19.301  0.00  0.00    +0.000 A 
ATOM     19  O   UNL     1       3.762   4.703  16.851  0.00  0.00    +0.000 OA
ATOM     20  H   UNL     1       3.690   7.619  18.000  0.00  0.00    +0.000 HD
ENDROOT
BRANCH  16  21
ATOM     21  C   UNL     1       1.639   9.033  19.197  0.00  0.00    +0.000 A 
ATOM     22  C   UNL     1       0.596   9.488  19.992  0.00  0.00    +0.000 A 
ATOM     23  C   UNL     1       0.127  10.782  19.815  0.00  0.00    +0.000 A 
ATOM     24  C   UNL     1      -0.870  11.313  20.647  0.00  0.00    +0.000 A 
ATOM     25  C   UNL     1      -1.293  12.616  20.469  0.00  0.00    +0.000 A 
ATOM     26  C   UNL     1      -0.760  13.410  19.466  0.00  0.00    +0.000 A 
ATOM     27  C   UNL     1       0.218  12.884  18.615  0.00  0.00    +0.000 A 
ATOM     28  C   UNL     1       0.683  11.571  18.789  0.00  0.00    +0.000 A 
ATOM     29  C   UNL     1       1.692  10.991  18.006  0.00  0.00    +0.000 A 
ATOM     30  N   UNL     1       2.204   9.750  18.195  0.00  0.00    +0.000 NA
ENDBRANCH  16  21
TORSDOF 1
ENDMDL
MODEL 6
REMARK VINA RESULT:      -8.4      1.271      3.860
REMARK  Name = 
REMARK  3 active torsions:
REMARK  status: ('A' for Active; 'I' for Inactive)
REMARK    1  A    between atoms: C_1  and  C_2
REMARK    2  A    between atoms: C_2  and  C_3
REMARK    3  A    between atoms: C_16  and  C_17
REMARK                            x       y       z     vdW  Elec       q    Type
REMARK                         _______ _______ _______ _____ _____    ______ ____
ROOT
ATOM      1  C   UNL     1       5.483   7.788  17.222  0.00  0.00    +0.000 C 
ATOM      2  C   UNL     1       5.563   6.222  17.255  0.00  0.00    +0.000 C 
ATOM      3  C   UNL     1       6.544   5.799  16.137  0.00  0.00    +0.000 C 
ATOM      4  C   UNL     1       6.240   5.946  18.648  0.00  0.00    +0.000 C 
ATOM      5  C   UNL     1       5.827   4.607  19.114  0.00  0.00    +0.000 C 
ATOM      6  C   UNL     1       4.346   4.716  19.098  0.00  0.00    +0.000 A 
ATOM      7  C   UNL     1       3.886   4.402  17.866  0.00  0.00    +0.000 A 
ATOM      8  C   UNL     1       2.752   3.576  18.042  0.00  0.00    +0.000 A 
ATOM      9  C   UNL     1       2.824   2.178  17.874  0.00  0.00    +0.000 A 
ATOM     10  C   UNL     1       2.084   1.278  18.699  0.00  0.00    +0.000 A 
ATOM     11  C   UNL     1       1.150   1.729  19.638  0.00  0.00    +0.000 A 
ATOM     12  C   UNL     1       0.941   3.083  19.774  0.00  0.00    +0.000 A 
ATOM     13  C   UNL     1       1.811   3.929  19.064  0.00  0.00    +0.000 A 
ATOM     14  C   UNL     1       2.030   5.171  19.625  0.00  0.00    +0.000 A 
ATOM     15  N   UNL     1       1.240   6.049  20.290  0.00  0.00    +0.000 NA
ATOM     16  C   UNL     1       1.885   7.188  20.131  0.00  0.00    +0.000 A 
ATOM     17  N   UNL     1       3.162   6.959  19.663  0.00  0.00    +0.000 N 
ATOM     18  C   UNL     1       3.363   5.597  19.599  0.00  0.00    +0.000 A 
ATOM     19  O   UNL     1       4.215   5.479  16.986  0.00  0.00    +0.000 OA
ATOM     20  H   UNL     1       3.678   7.666  19.168  0.00  0.00    +0.000 HD
ENDROOT
BRANCH  16  21
ATOM     21  C   UNL     1       1.315   8.508  20.330  0.00  0.00    +0.000 A 
ATOM     22  C   UNL     1       0.528   8.735  21.450  0.00  0.00    +0.000 A 
ATOM     23  C   UNL     1       0.043  10.014  21.685  0.00  0.00    +0.000 A 
ATOM     24  C   UNL     1      -0.689  10.310  22.845  0.00  0.00    +0.000 A 
ATOM     25  C   UNL     1      -1.131  11.600  23.070  0.00  0.00    +0.000 A 
ATOM     26  C   UNL     1      -0.879  12.611  22.157  0.00  0.00    +0.000 A 
ATOM     27  C   UNL     1      -0.170  12.323  20.985  0.00  0.00    +0.000 A 
ATOM     28  C   UNL     1       0.311  11.026  20.744  0.00  0.00    +0.000 A 
ATOM     29  C   UNL     1       1.067  10.672  19.616  0.00  0.00    +0.000 A 
ATOM     30  N   UNL     1       1.598   9.445  19.392  0.00  0.00    +0.000 NA
ENDBRANCH  16  21
TORSDOF 1
ENDMDL
MODEL 7
REMARK VINA RESULT:      -8.3      2.980      9.216
REMARK  Name = 
REMARK  3 active torsions:
REMARK  status: ('A' for Active; 'I' for Inactive)
REMARK    1  A    between atoms: C_1  and  C_2
REMARK    2  A    between atoms: C_2  and  C_3
REMARK    3  A    between atoms: C_16  and  C_17
REMARK                            x       y       z     vdW  Elec       q    Type
REMARK                         _______ _______ _______ _____ _____    ______ ____
ROOT
ATOM      1  C   UNL     1       3.154  13.918  18.831  0.00  0.00    +0.000 C 
ATOM      2  C   UNL     1       2.038  14.696  19.613  0.00  0.00    +0.000 C 
ATOM      3  C   UNL     1       2.553  16.140  19.814  0.00  0.00    +0.000 C 
ATOM      4  C   UNL     1       0.854  14.724  18.578  0.00  0.00    +0.000 C 
ATOM      5  C   UNL     1      -0.417  14.826  19.320  0.00  0.00    +0.000 C 
ATOM      6  C   UNL     1      -0.345  13.648  20.223  0.00  0.00    +0.000 A 
ATOM      7  C   UNL     1       0.314  13.991  21.354  0.00  0.00    +0.000 A 
ATOM      8  C   UNL     1      -0.400  13.430  22.438  0.00  0.00    +0.000 A 
ATOM      9  C   UNL     1      -1.254  14.212  23.243  0.00  0.00    +0.000 A 
ATOM     10  C   UNL     1      -2.480  13.700  23.764  0.00  0.00    +0.000 A 
ATOM     11  C   UNL     1      -2.848  12.357  23.614  0.00  0.00    +0.000 A 
ATOM     12  C   UNL     1      -2.002  11.506  22.939  0.00  0.00    +0.000 A 
ATOM     13  C   UNL     1      -0.894  12.092  22.302  0.00  0.00    +0.000 A 
ATOM     14  C   UNL     1      -0.428  11.431  21.183  0.00  0.00    +0.000 A 
ATOM     15  N   UNL     1      -0.299  10.122  20.857  0.00  0.00    +0.000 NA
ATOM     16  C   UNL     1       0.615  10.155  19.908  0.00  0.00    +0.000 A 
ATOM     17  N   UNL     1       0.803  11.446  19.462  0.00  0.00    +0.000 N 
ATOM     18  C   UNL     1      -0.099  12.263  20.107  0.00  0.00    +0.000 A 
ATOM     19  O   UNL     1       1.699  14.130  21.030  0.00  0.00    +0.000 OA
ATOM     20  H   UNL     1       1.657  11.731  19.012  0.00  0.00    +0.000 HD
ENDROOT
BRANCH  16  21
ATOM     21  C   UNL     1       1.388   9.015  19.450  0.00  0.00    +0.000 A 
ATOM     22  C   UNL     1       1.482   7.897  20.268  0.00  0.00    +0.000 A 
ATOM     23  C   UNL     1       2.156   6.777  19.804  0.00  0.00    +0.000 A 
ATOM     24  C   UNL     1       2.208   5.596  20.561  0.00  0.00    +0.000 A 
ATOM     25  C   UNL     1       2.858   4.485  20.060  0.00  0.00    +0.000 A 
ATOM     26  C   UNL     1       3.479   4.518  18.822  0.00  0.00    +0.000 A 
ATOM     27  C   UNL     1       3.454   5.696  18.067  0.00  0.00    +0.000 A 
ATOM     28  C   UNL     1       2.780   6.832  18.543  0.00  0.00    +0.000 A 
ATOM     29  C   UNL     1       2.673   8.033  17.825  0.00  0.00    +0.000 A 
ATOM     30  N   UNL     1       1.974   9.121  18.232  0.00  0.00    +0.000 NA
ENDBRANCH  16  21
TORSDOF 1
ENDMDL
MODEL 8
REMARK VINA RESULT:      -8.1      3.231      9.708
REMARK  Name = 
REMARK  3 active torsions:
REMARK  status: ('A' for Active; 'I' for Inactive)
REMARK    1  A    between atoms: C_1  and  C_2
REMARK    2  A    between atoms: C_2  and  C_3
REMARK    3  A    between atoms: C_16  and  C_17
REMARK                            x       y       z     vdW  Elec       q    Type
REMARK                         _______ _______ _______ _____ _____    ______ ____
ROOT
ATOM      1  C   UNL     1       3.027  14.022  20.108  0.00  0.00    +0.000 C 
ATOM      2  C   UNL     1       1.879  14.870  20.759  0.00  0.00    +0.000 C 
ATOM      3  C   UNL     1       2.468  16.267  21.061  0.00  0.00    +0.000 C 
ATOM      4  C   UNL     1       0.846  15.005  19.580  0.00  0.00    +0.000 C 
ATOM      5  C   UNL     1      -0.501  15.192  20.154  0.00  0.00    +0.000 C 
ATOM      6  C   UNL     1      -0.634  13.998  21.029  0.00  0.00    +0.000 A 
ATOM      7  C   UNL     1      -0.106  14.271  22.243  0.00  0.00    +0.000 A 
ATOM      8  C   UNL     1      -0.995  13.750  23.211  0.00  0.00    +0.000 A 
ATOM      9  C   UNL     1      -1.887  14.582  23.918  0.00  0.00    +0.000 A 
ATOM     10  C   UNL     1      -3.205  14.156  24.264  0.00  0.00    +0.000 A 
ATOM     11  C   UNL     1      -3.647  12.848  24.033  0.00  0.00    +0.000 A 
ATOM     12  C   UNL     1      -2.786  11.946  23.452  0.00  0.00    +0.000 A 
ATOM     13  C   UNL     1      -1.564  12.455  22.979  0.00  0.00    +0.000 A 
ATOM     14  C   UNL     1      -1.005  11.779  21.913  0.00  0.00    +0.000 A 
ATOM     15  N   UNL     1      -0.931  10.469  21.573  0.00  0.00    +0.000 NA
ATOM     16  C   UNL     1       0.100  10.447  20.751  0.00  0.00    +0.000 A 
ATOM     17  N   UNL     1       0.439  11.727  20.367  0.00  0.00    +0.000 N 
ATOM     18  C   UNL     1      -0.477  12.600  20.910  0.00  0.00    +0.000 A 
ATOM     19  O   UNL     1       1.316  14.310  22.105  0.00  0.00    +0.000 OA
ATOM     20  H   UNL     1       1.363  11.952  20.038  0.00  0.00    +0.000 HD
ENDROOT
BRANCH  16  21
ATOM     21  C   UNL     1       0.840   9.258  20.368  0.00  0.00    +0.000 A 
ATOM     22  C   UNL     1       1.468   9.230  19.131  0.00  0.00    +0.000 A 
ATOM     23  C   UNL     1       2.239   8.128  18.790  0.00  0.00    +0.000 A 
ATOM     24  C   UNL     1       2.957   8.090  17.585  0.00  0.00    +0.000 A 
ATOM     25  C   UNL     1       3.743   6.994  17.287  0.00  0.00    +0.000 A 
ATOM     26  C   UNL     1       3.825   5.916  18.153  0.00  0.00    +0.000 A 
ATOM     27  C   UNL     1       3.095   5.932  19.347  0.00  0.00    +0.000 A 
ATOM     28  C   UNL     1       2.307   7.044  19.685  0.00  0.00    +0.000 A 
ATOM     29  C   UNL     1       1.585   7.152  20.883  0.00  0.00    +0.000 A 
ATOM     30  N   UNL     1       0.870   8.240  21.262  0.00  0.00    +0.000 NA
ENDBRANCH  16  21
TORSDOF 1
ENDMDL
MODEL 9
REMARK VINA RESULT:      -8.1      1.489      4.156
REMARK  Name = 
REMARK  3 active torsions:
REMARK  status: ('A' for Active; 'I' for Inactive)
REMARK    1  A    between atoms: C_1  and  C_2
REMARK    2  A    between atoms: C_2  and  C_3
REMARK    3  A    between atoms: C_16  and  C_17
REMARK                            x       y       z     vdW  Elec       q    Type
REMARK                         _______ _______ _______ _____ _____    ______ ____
ROOT
ATOM      1  C   UNL     1       5.435   7.756  17.138  0.00  0.00    +0.000 C 
ATOM      2  C   UNL     1       5.478   6.188  17.138  0.00  0.00    +0.000 C 
ATOM      3  C   UNL     1       6.388   5.763  15.962  0.00  0.00    +0.000 C 
ATOM      4  C   UNL     1       6.219   5.868  18.487  0.00  0.00    +0.000 C 
ATOM      5  C   UNL     1       5.798   4.530  18.950  0.00  0.00    +0.000 C 
ATOM      6  C   UNL     1       4.320   4.676  19.014  0.00  0.00    +0.000 A 
ATOM      7  C   UNL     1       3.789   4.397  17.802  0.00  0.00    +0.000 A 
ATOM      8  C   UNL     1       2.646   3.595  18.023  0.00  0.00    +0.000 A 
ATOM      9  C   UNL     1       2.673   2.199  17.825  0.00  0.00    +0.000 A 
ATOM     10  C   UNL     1       1.956   1.301  18.671  0.00  0.00    +0.000 A 
ATOM     11  C   UNL     1       1.083   1.756  19.667  0.00  0.00    +0.000 A 
ATOM     12  C   UNL     1       0.916   3.112  19.838  0.00  0.00    +0.000 A 
ATOM     13  C   UNL     1       1.768   3.950  19.099  0.00  0.00    +0.000 A 
ATOM     14  C   UNL     1       2.048   5.175  19.671  0.00  0.00    +0.000 A 
ATOM     15  N   UNL     1       1.316   6.058  20.392  0.00  0.00    +0.000 NA
ATOM     16  C   UNL     1       1.980   7.184  20.221  0.00  0.00    +0.000 A 
ATOM     17  N   UNL     1       3.225   6.934  19.682  0.00  0.00    +0.000 N 
ATOM     18  C   UNL     1       3.388   5.570  19.583  0.00  0.00    +0.000 A 
ATOM     19  O   UNL     1       4.099   5.483  16.927  0.00  0.00    +0.000 OA
ATOM     20  H   UNL     1       3.731   7.639  19.173  0.00  0.00    +0.000 HD
ENDROOT
BRANCH  16  21
ATOM     21  C   UNL     1       1.455   8.514  20.474  0.00  0.00    +0.000 A 
ATOM     22  C   UNL     1       1.092   9.307  19.394  0.00  0.00    +0.000 A 
ATOM     23  C   UNL     1       0.520  10.548  19.632  0.00  0.00    +0.000 A 
ATOM     24  C   UNL     1       0.063  11.351  18.575  0.00  0.00    +0.000 A 
ATOM     25  C   UNL     1      -0.533  12.568  18.842  0.00  0.00    +0.000 A 
ATOM     26  C   UNL     1      -0.675  13.024  20.143  0.00  0.00    +0.000 A 
ATOM     27  C   UNL     1      -0.203  12.243  21.204  0.00  0.00    +0.000 A 
ATOM     28  C   UNL     1       0.385  10.992  20.961  0.00  0.00    +0.000 A 
ATOM     29  C   UNL     1       0.840  10.134  21.974  0.00  0.00    +0.000 A 
ATOM     30  N   UNL     1       1.351   8.895  21.770  0.00  0.00    +0.000 NA
ENDBRANCH  16  21
TORSDOF 1
ENDMDL
