MODEL 1
REMARK VINA RESULT:      -7.2      0.000      0.000
REMARK  Name = 
REMARK  7 active torsions:
REMARK  status: ('A' for Active; 'I' for Inactive)
REMARK    1  A    between atoms: C_1  and  O_2
REMARK    2  A    between atoms: O_2  and  C_3
REMARK    3  A    between atoms: C_5  and  C_6
REMARK    4  A    between atoms: C_6  and  N_7
REMARK    5  A    between atoms: N_10  and  C_11
REMARK    6  A    between atoms: C_14  and  N_15
REMARK    7  A    between atoms: C_22  and  O_23
REMARK                            x       y       z     vdW  Elec       q    Type
REMARK                         _______ _______ _______ _____ _____    ______ ____
ROOT
ATOM      1  N   UNL     1       1.570   9.476  18.151  0.00  0.00    +0.000 N 
ATOM      2  C   UNL     1       1.928   8.313  18.797  0.00  0.00    +0.000 C 
ATOM      3  O   UNL     1       1.821   8.193  20.011  0.00  0.00    +0.000 OA
ATOM      4  N   UNL     1       2.442   7.374  17.928  0.00  0.00    +0.000 N 
ATOM      5  H   UNL     1       1.203   9.375  17.216  0.00  0.00    +0.000 HD
ATOM      6  H   UNL     1       2.710   7.722  17.018  0.00  0.00    +0.000 HD
ENDROOT
BRANCH   4   7
ATOM      7  C   UNL     1       2.882   6.079  18.283  0.00  0.00    +0.000 A 
ATOM      8  C   UNL     1       4.165   5.824  18.785  0.00  0.00    +0.000 A 
ATOM      9  C   UNL     1       4.574   4.525  19.098  0.00  0.00    +0.000 A 
ATOM     10  C   UNL     1       3.686   3.463  18.920  0.00  0.00    +0.000 A 
ATOM     11  C   UNL     1       2.392   3.698  18.436  0.00  0.00    +0.000 A 
ATOM     12  C   UNL     1       1.993   5.006  18.126  0.00  0.00    +0.000 A 
BRANCH  10  13
ATOM     13  N   UNL     1       4.116   2.097  19.247  0.00  0.00    +0.000 N 
ATOM     14  O   UNL     1       4.878   1.946  20.211  0.00  0.00    +0.000 OA
ATOM     15  O   UNL     1       3.686   1.175  18.538  0.00  0.00    +0.000 OA
ENDBRANCH  10  13
ENDBRANCH   4   7
BRANCH   1  16
ATOM     16  C   UNL     1       1.014  10.552  18.945  0.00  0.00    +0.000 C 
BRANCH  16  19
ATOM     17  C   UNL     1      -2.415  10.358  17.268  0.00  0.00    +0.000 A 
ATOM     18  C   UNL     1      -1.075  10.113  17.602  0.00  0.00    +0.000 A 
ATOM     19  C   UNL     1      -0.447  10.777  18.669  0.00  0.00    +0.000 A 
ATOM     20  C   UNL     1      -1.183  11.709  19.405  0.00  0.00    +0.000 A 
ATOM     21  C   UNL     1      -2.517  11.965  19.083  0.00  0.00    +0.000 A 
ATOM     22  C   UNL     1      -3.131  11.294  18.019  0.00  0.00    +0.000 A 
BRANCH  17  24
ATOM     23  C   UNL     1      -2.935  10.253  14.934  0.00  0.00    +0.000 C 
ATOM     24  O   UNL     1      -2.839   9.615  16.199  0.00  0.00    +0.000 OA
ENDBRANCH  17  24
BRANCH  22  25
ATOM     25  O   UNL     1      -4.437  11.589  17.740  0.00  0.00    +0.000 OA
ATOM     26  H   UNL     1      -4.872  11.909  18.547  0.00  0.00    +0.000 HD
ENDBRANCH  22  25
ENDBRANCH  16  19
ENDBRANCH   1  16
TORSDOF 6
ENDMDL
MODEL 2
REMARK VINA RESULT:      -7.2      3.422      8.837
REMARK  Name = 
REMARK  7 active torsions:
REMARK  status: ('A' for Active; 'I' for Inactive)
REMARK    1  A    between atoms: C_1  and  O_2
REMARK    2  A    between atoms: O_2  and  C_3
REMARK    3  A    between atoms: C_5  and  C_6
REMARK    4  A    between atoms: C_6  and  N_7
REMARK    5  A    between atoms: N_10  and  C_11
REMARK    6  A    between atoms: C_14  and  N_15
REMARK    7  A    between atoms: C_22  and  O_23
REMARK                            x       y       z     vdW  Elec       q    Type
REMARK                         _______ _______ _______ _____ _____    ______ ____
ROOT
ATOM      1  N   UNL     1       4.021   5.099  19.355  0.00  0.00    +0.000 N 
ATOM      2  C   UNL     1       2.964   5.933  19.064  0.00  0.00    +0.000 C 
ATOM      3  O   UNL     1       2.254   5.751  18.083  0.00  0.00    +0.000 OA
ATOM      4  N   UNL     1       2.858   6.971  19.965  0.00  0.00    +0.000 N 
ATOM      5  H   UNL     1       4.230   4.964  20.333  0.00  0.00    +0.000 HD
ATOM      6  H   UNL     1       3.669   7.127  20.548  0.00  0.00    +0.000 HD
ENDROOT
BRANCH   4   7
ATOM      7  C   UNL     1       1.869   7.980  19.945  0.00  0.00    +0.000 A 
ATOM      8  C   UNL     1       1.659   8.815  18.841  0.00  0.00    +0.000 A 
ATOM      9  C   UNL     1       0.689   9.822  18.869  0.00  0.00    +0.000 A 
ATOM     10  C   UNL     1      -0.094   9.990  20.013  0.00  0.00    +0.000 A 
ATOM     11  C   UNL     1       0.087   9.152  21.122  0.00  0.00    +0.000 A 
ATOM     12  C   UNL     1       1.063   8.147  21.080  0.00  0.00    +0.000 A 
BRANCH  10  13
ATOM     13  N   UNL     1      -1.112  11.048  20.043  0.00  0.00    +0.000 N 
ATOM     14  O   UNL     1      -1.628  11.385  18.970  0.00  0.00    +0.000 OA
ATOM     15  O   UNL     1      -1.396  11.538  21.146  0.00  0.00    +0.000 OA
ENDBRANCH  10  13
ENDBRANCH   4   7
BRANCH   1  16
ATOM     16  C   UNL     1       4.251   3.963  18.487  0.00  0.00    +0.000 C 
BRANCH  16  19
ATOM     17  C   UNL     1       6.941   5.723  16.418  0.00  0.00    +0.000 A 
ATOM     18  C   UNL     1       6.100   5.350  17.476  0.00  0.00    +0.000 A 
ATOM     19  C   UNL     1       5.196   4.281  17.361  0.00  0.00    +0.000 A 
ATOM     20  C   UNL     1       5.137   3.582  16.153  0.00  0.00    +0.000 A 
ATOM     21  C   UNL     1       5.966   3.942  15.089  0.00  0.00    +0.000 A 
ATOM     22  C   UNL     1       6.863   5.008  15.219  0.00  0.00    +0.000 A 
BRANCH  17  24
ATOM     23  C   UNL     1       7.761   7.246  18.072  0.00  0.00    +0.000 C 
ATOM     24  O   UNL     1       7.743   6.788  16.728  0.00  0.00    +0.000 OA
ENDBRANCH  17  24
BRANCH  22  25
ATOM     25  O   UNL     1       7.646   5.326  14.143  0.00  0.00    +0.000 OA
ATOM     26  H   UNL     1       8.383   5.884  14.440  0.00  0.00    +0.000 HD
ENDBRANCH  22  25
ENDBRANCH  16  19
ENDBRANCH   1  16
TORSDOF 6
ENDMDL
MODEL 3
REMARK VINA RESULT:      -7.1      3.074      8.828
REMARK  Name = 
REMARK  7 active torsions:
REMARK  status: ('A' for Active; 'I' for Inactive)
REMARK    1  A    between atoms: C_1  and  O_2
REMARK    2  A    between atoms: O_2  and  C_3
REMARK    3  A    between atoms: C_5  and  C_6
REMARK    4  A    between atoms: C_6  and  N_7
REMARK    5  A    between atoms: N_10  and  C_11
REMARK    6  A    between atoms: C_14  and  N_15
REMARK    7  A    between atoms: C_22  and  O_23
REMARK                            x       y       z     vdW  Elec       q    Type
REMARK                         _______ _______ _______ _____ _____    ______ ____
ROOT
ATOM      1  N   UNL     1       3.496   5.390  20.018  0.00  0.00    +0.000 N 
ATOM      2  C   UNL     1       2.596   6.284  19.480  0.00  0.00    +0.000 C 
ATOM      3  O   UNL     1       2.114   6.119  18.367  0.00  0.00    +0.000 OA
ATOM      4  N   UNL     1       2.369   7.357  20.315  0.00  0.00    +0.000 N 
ATOM      5  H   UNL     1       3.468   5.273  21.020  0.00  0.00    +0.000 HD
ATOM      6  H   UNL     1       3.038   7.477  21.064  0.00  0.00    +0.000 HD
ENDROOT
BRANCH   4   7
ATOM      7  C   UNL     1       1.487   8.430  20.055  0.00  0.00    +0.000 A 
ATOM      8  C   UNL     1       0.538   8.875  20.983  0.00  0.00    +0.000 A 
ATOM      9  C   UNL     1      -0.337   9.922  20.679  0.00  0.00    +0.000 A 
ATOM     10  C   UNL     1      -0.255  10.545  19.433  0.00  0.00    +0.000 A 
ATOM     11  C   UNL     1       0.700  10.129  18.497  0.00  0.00    +0.000 A 
ATOM     12  C   UNL     1       1.572   9.078  18.814  0.00  0.00    +0.000 A 
BRANCH  10  13
ATOM     13  N   UNL     1      -1.175  11.645  19.113  0.00  0.00    +0.000 N 
ATOM     14  O   UNL     1      -2.200  11.760  19.797  0.00  0.00    +0.000 OA
ATOM     15  O   UNL     1      -0.866  12.395  18.176  0.00  0.00    +0.000 OA
ENDBRANCH  10  13
ENDBRANCH   4   7
BRANCH   1  16
ATOM     16  C   UNL     1       3.830   4.212  19.243  0.00  0.00    +0.000 C 
BRANCH  16  19
ATOM     17  C   UNL     1       6.885   5.712  17.505  0.00  0.00    +0.000 A 
ATOM     18  C   UNL     1       5.933   5.374  18.477  0.00  0.00    +0.000 A 
ATOM     19  C   UNL     1       4.880   4.485  18.203  0.00  0.00    +0.000 A 
ATOM     20  C   UNL     1       4.785   3.935  16.923  0.00  0.00    +0.000 A 
ATOM     21  C   UNL     1       5.724   4.262  15.943  0.00  0.00    +0.000 A 
ATOM     22  C   UNL     1       6.769   5.148  16.231  0.00  0.00    +0.000 A 
BRANCH  17  24
ATOM     23  C   UNL     1       7.716   7.955  17.582  0.00  0.00    +0.000 C 
ATOM     24  O   UNL     1       7.826   6.593  17.967  0.00  0.00    +0.000 OA
ENDBRANCH  17  24
BRANCH  22  25
ATOM     25  O   UNL     1       7.657   5.443  15.233  0.00  0.00    +0.000 OA
ATOM     26  H   UNL     1       7.388   4.983  14.421  0.00  0.00    +0.000 HD
ENDBRANCH  22  25
ENDBRANCH  16  19
ENDBRANCH   1  16
TORSDOF 6
ENDMDL
MODEL 4
REMARK VINA RESULT:      -7.1      0.257      1.190
REMARK  Name = 
REMARK  7 active torsions:
REMARK  status: ('A' for Active; 'I' for Inactive)
REMARK    1  A    between atoms: C_1  and  O_2
REMARK    2  A    between atoms: O_2  and  C_3
REMARK    3  A    between atoms: C_5  and  C_6
REMARK    4  A    between atoms: C_6  and  N_7
REMARK    5  A    between atoms: N_10  and  C_11
REMARK    6  A    between atoms: C_14  and  N_15
REMARK    7  A    between atoms: C_22  and  O_23
REMARK                            x       y       z     vdW  Elec       q    Type
REMARK                         _______ _______ _______ _____ _____    ______ ____
ROOT
ATOM      1  N   UNL     1       1.603   9.402  18.199  0.00  0.00    +0.000 N 
ATOM      2  C   UNL     1       1.940   8.219  18.820  0.00  0.00    +0.000 C 
ATOM      3  O   UNL     1       1.860   8.084  20.034  0.00  0.00    +0.000 OA
ATOM      4  N   UNL     1       2.401   7.277  17.925  0.00  0.00    +0.000 N 
ATOM      5  H   UNL     1       1.209   9.326  17.273  0.00  0.00    +0.000 HD
ATOM      6  H   UNL     1       2.656   7.630  17.013  0.00  0.00    +0.000 HD
ENDROOT
BRANCH   4   7
ATOM      7  C   UNL     1       2.807   5.963  18.249  0.00  0.00    +0.000 A 
ATOM      8  C   UNL     1       1.899   4.943  18.563  0.00  0.00    +0.000 A 
ATOM      9  C   UNL     1       2.340   3.662  18.907  0.00  0.00    +0.000 A 
ATOM     10  C   UNL     1       3.709   3.389  18.926  0.00  0.00    +0.000 A 
ATOM     11  C   UNL     1       4.634   4.389  18.597  0.00  0.00    +0.000 A 
ATOM     12  C   UNL     1       4.178   5.670  18.254  0.00  0.00    +0.000 A 
BRANCH  10  13
ATOM     13  N   UNL     1       4.172   2.043  19.288  0.00  0.00    +0.000 N 
ATOM     14  O   UNL     1       3.862   1.104  18.544  0.00  0.00    +0.000 OA
ATOM     15  O   UNL     1       4.852   1.930  20.319  0.00  0.00    +0.000 OA
ENDBRANCH  10  13
ENDBRANCH   4   7
BRANCH   1  16
ATOM     16  C   UNL     1       1.103  10.484  19.023  0.00  0.00    +0.000 C 
BRANCH  16  19
ATOM     17  C   UNL     1      -2.345  10.466  17.375  0.00  0.00    +0.000 A 
ATOM     18  C   UNL     1      -1.021  10.146  17.706  0.00  0.00    +0.000 A 
ATOM     19  C   UNL     1      -0.343  10.793  18.752  0.00  0.00    +0.000 A 
ATOM     20  C   UNL     1      -1.013  11.785  19.472  0.00  0.00    +0.000 A 
ATOM     21  C   UNL     1      -2.332  12.117  19.154  0.00  0.00    +0.000 A 
ATOM     22  C   UNL     1      -2.995  11.462  18.111  0.00  0.00    +0.000 A 
BRANCH  17  24
ATOM     23  C   UNL     1      -2.898  10.343  15.051  0.00  0.00    +0.000 C 
ATOM     24  O   UNL     1      -2.824   9.727  16.327  0.00  0.00    +0.000 OA
ENDBRANCH  17  24
BRANCH  22  25
ATOM     25  O   UNL     1      -4.283  11.831  17.833  0.00  0.00    +0.000 OA
ATOM     26  H   UNL     1      -4.415  12.754  18.105  0.00  0.00    +0.000 HD
ENDBRANCH  22  25
ENDBRANCH  16  19
ENDBRANCH   1  16
TORSDOF 6
ENDMDL
MODEL 5
REMARK VINA RESULT:      -7.0      3.721      9.177
REMARK  Name = 
REMARK  7 active torsions:
REMARK  status: ('A' for Active; 'I' for Inactive)
REMARK    1  A    between atoms: C_1  and  O_2
REMARK    2  A    between atoms: O_2  and  C_3
REMARK    3  A    between atoms: C_5  and  C_6
REMARK    4  A    between atoms: C_6  and  N_7
REMARK    5  A    between atoms: N_10  and  C_11
REMARK    6  A    between atoms: C_14  and  N_15
REMARK    7  A    between atoms: C_22  and  O_23
REMARK                            x       y       z     vdW  Elec       q    Type
REMARK                         _______ _______ _______ _____ _____    ______ ____
ROOT
ATOM      1  N   UNL     1       2.653   6.918  19.376  0.00  0.00    +0.000 N 
ATOM      2  C   UNL     1       1.880   8.038  19.586  0.00  0.00    +0.000 C 
ATOM      3  O   UNL     1       1.522   8.755  18.659  0.00  0.00    +0.000 OA
ATOM      4  N   UNL     1       1.623   8.248  20.924  0.00  0.00    +0.000 N 
ATOM      5  H   UNL     1       2.501   6.143  20.005  0.00  0.00    +0.000 HD
ATOM      6  H   UNL     1       2.206   7.729  21.567  0.00  0.00    +0.000 HD
ENDROOT
BRANCH   4   7
ATOM      7  C   UNL     1       0.847   9.302  21.458  0.00  0.00    +0.000 A 
ATOM      8  C   UNL     1       0.871  10.601  20.936  0.00  0.00    +0.000 A 
ATOM      9  C   UNL     1       0.110  11.625  21.508  0.00  0.00    +0.000 A 
ATOM     10  C   UNL     1      -0.698  11.346  22.612  0.00  0.00    +0.000 A 
ATOM     11  C   UNL     1      -0.751  10.048  23.138  0.00  0.00    +0.000 A 
ATOM     12  C   UNL     1       0.017   9.030  22.554  0.00  0.00    +0.000 A 
BRANCH  10  13
ATOM     13  N   UNL     1      -1.496  12.421  23.214  0.00  0.00    +0.000 N 
ATOM     14  O   UNL     1      -2.715  12.240  23.334  0.00  0.00    +0.000 OA
ATOM     15  O   UNL     1      -0.898  13.447  23.571  0.00  0.00    +0.000 OA
ENDBRANCH  10  13
ENDBRANCH   4   7
BRANCH   1  16
ATOM     16  C   UNL     1       3.001   6.577  18.011  0.00  0.00    +0.000 C 
BRANCH  16  19
ATOM     17  C   UNL     1       6.721   6.140  17.250  0.00  0.00    +0.000 A 
ATOM     18  C   UNL     1       5.453   6.709  17.437  0.00  0.00    +0.000 A 
ATOM     19  C   UNL     1       4.365   5.954  17.904  0.00  0.00    +0.000 A 
ATOM     20  C   UNL     1       4.560   4.598  18.180  0.00  0.00    +0.000 A 
ATOM     21  C   UNL     1       5.816   4.015  17.997  0.00  0.00    +0.000 A 
ATOM     22  C   UNL     1       6.891   4.781  17.534  0.00  0.00    +0.000 A 
BRANCH  17  24
ATOM     23  C   UNL     1       7.945   8.166  17.597  0.00  0.00    +0.000 C 
ATOM     24  O   UNL     1       7.644   7.039  16.788  0.00  0.00    +0.000 OA
ENDBRANCH  17  24
BRANCH  22  25
ATOM     25  O   UNL     1       8.098   4.160  17.363  0.00  0.00    +0.000 OA
ATOM     26  H   UNL     1       8.067   3.284  17.779  0.00  0.00    +0.000 HD
ENDBRANCH  22  25
ENDBRANCH  16  19
ENDBRANCH   1  16
TORSDOF 6
ENDMDL
MODEL 6
REMARK VINA RESULT:      -7.0      3.350      9.055
REMARK  Name = 
REMARK  7 active torsions:
REMARK  status: ('A' for Active; 'I' for Inactive)
REMARK    1  A    between atoms: C_1  and  O_2
REMARK    2  A    between atoms: O_2  and  C_3
REMARK    3  A    between atoms: C_5  and  C_6
REMARK    4  A    between atoms: C_6  and  N_7
REMARK    5  A    between atoms: N_10  and  C_11
REMARK    6  A    between atoms: C_14  and  N_15
REMARK    7  A    between atoms: C_22  and  O_23
REMARK                            x       y       z     vdW  Elec       q    Type
REMARK                         _______ _______ _______ _____ _____    ______ ____
ROOT
ATOM      1  N   UNL     1       2.586   6.911  19.890  0.00  0.00    +0.000 N 
ATOM      2  C   UNL     1       1.813   8.045  19.995  0.00  0.00    +0.000 C 
ATOM      3  O   UNL     1       1.505   8.708  19.012  0.00  0.00    +0.000 OA
ATOM      4  N   UNL     1       1.493   8.336  21.305  0.00  0.00    +0.000 N 
ATOM      5  H   UNL     1       2.398   6.176  20.555  0.00  0.00    +0.000 HD
ATOM      6  H   UNL     1       2.040   7.853  22.004  0.00  0.00    +0.000 HD
ENDROOT
BRANCH   4   7
ATOM      7  C   UNL     1       0.700   9.422  21.737  0.00  0.00    +0.000 A 
ATOM      8  C   UNL     1      -0.214   9.322  22.794  0.00  0.00    +0.000 A 
ATOM      9  C   UNL     1      -1.002  10.411  23.175  0.00  0.00    +0.000 A 
ATOM     10  C   UNL     1      -0.868  11.626  22.500  0.00  0.00    +0.000 A 
ATOM     11  C   UNL     1       0.053  11.753  21.452  0.00  0.00    +0.000 A 
ATOM     12  C   UNL     1       0.838  10.653  21.079  0.00  0.00    +0.000 A 
BRANCH  10  13
ATOM     13  N   UNL     1      -1.697  12.770  22.900  0.00  0.00    +0.000 N 
ATOM     14  O   UNL     1      -1.198  13.609  23.661  0.00  0.00    +0.000 OA
ATOM     15  O   UNL     1      -2.850  12.829  22.446  0.00  0.00    +0.000 OA
ENDBRANCH  10  13
ENDBRANCH   4   7
BRANCH   1  16
ATOM     16  C   UNL     1       2.997   6.489  18.566  0.00  0.00    +0.000 C 
BRANCH  16  19
ATOM     17  C   UNL     1       2.689   2.763  19.361  0.00  0.00    +0.000 A 
ATOM     18  C   UNL     1       2.509   4.153  19.383  0.00  0.00    +0.000 A 
ATOM     19  C   UNL     1       3.147   4.996  18.459  0.00  0.00    +0.000 A 
ATOM     20  C   UNL     1       3.986   4.425  17.499  0.00  0.00    +0.000 A 
ATOM     21  C   UNL     1       4.177   3.042  17.464  0.00  0.00    +0.000 A 
ATOM     22  C   UNL     1       3.533   2.214  18.390  0.00  0.00    +0.000 A 
BRANCH  17  24
ATOM     23  C   UNL     1       1.546   2.879  21.459  0.00  0.00    +0.000 C 
ATOM     24  O   UNL     1       1.985   2.120  20.343  0.00  0.00    +0.000 OA
ENDBRANCH  17  24
BRANCH  22  25
ATOM     25  O   UNL     1       3.762   0.867  18.319  0.00  0.00    +0.000 OA
ATOM     26  H   UNL     1       3.116   0.466  17.717  0.00  0.00    +0.000 HD
ENDBRANCH  22  25
ENDBRANCH  16  19
ENDBRANCH   1  16
TORSDOF 6
ENDMDL
MODEL 7
REMARK VINA RESULT:      -7.0      1.556      1.988
REMARK  Name = 
REMARK  7 active torsions:
REMARK  status: ('A' for Active; 'I' for Inactive)
REMARK    1  A    between atoms: C_1  and  O_2
REMARK    2  A    between atoms: O_2  and  C_3
REMARK    3  A    between atoms: C_5  and  C_6
REMARK    4  A    between atoms: C_6  and  N_7
REMARK    5  A    between atoms: N_10  and  C_11
REMARK    6  A    between atoms: C_14  and  N_15
REMARK    7  A    between atoms: C_22  and  O_23
REMARK                            x       y       z     vdW  Elec       q    Type
REMARK                         _______ _______ _______ _____ _____    ______ ____
ROOT
ATOM      1  N   UNL     1       0.225  10.438  17.838  0.00  0.00    +0.000 N 
ATOM      2  C   UNL     1       1.034   9.549  18.511  0.00  0.00    +0.000 C 
ATOM      3  O   UNL     1       1.134   9.568  19.732  0.00  0.00    +0.000 OA
ATOM      4  N   UNL     1       1.713   8.712  17.652  0.00  0.00    +0.000 N 
ATOM      5  H   UNL     1      -0.206  10.100  16.991  0.00  0.00    +0.000 HD
ATOM      6  H   UNL     1       1.727   9.000  16.683  0.00  0.00    +0.000 HD
ENDROOT
BRANCH   4   7
ATOM      7  C   UNL     1       2.604   7.685  18.036  0.00  0.00    +0.000 A 
ATOM      8  C   UNL     1       3.799   7.421  17.353  0.00  0.00    +0.000 A 
ATOM      9  C   UNL     1       4.641   6.377  17.746  0.00  0.00    +0.000 A 
ATOM     10  C   UNL     1       4.294   5.590  18.845  0.00  0.00    +0.000 A 
ATOM     11  C   UNL     1       3.113   5.849  19.554  0.00  0.00    +0.000 A 
ATOM     12  C   UNL     1       2.276   6.899  19.150  0.00  0.00    +0.000 A 
BRANCH  10  13
ATOM     13  N   UNL     1       5.178   4.493  19.257  0.00  0.00    +0.000 N 
ATOM     14  O   UNL     1       6.398   4.704  19.266  0.00  0.00    +0.000 OA
ATOM     15  O   UNL     1       4.647   3.418  19.575  0.00  0.00    +0.000 OA
ENDBRANCH  10  13
ENDBRANCH   4   7
BRANCH   1  16
ATOM     16  C   UNL     1      -0.549  11.381  18.620  0.00  0.00    +0.000 C 
BRANCH  16  19
ATOM     17  C   UNL     1      -3.748  11.029  16.559  0.00  0.00    +0.000 A 
ATOM     18  C   UNL     1      -2.407  10.970  16.966  0.00  0.00    +0.000 A 
ATOM     19  C   UNL     1      -2.005  11.378  18.248  0.00  0.00    +0.000 A 
ATOM     20  C   UNL     1      -2.974  11.859  19.132  0.00  0.00    +0.000 A 
ATOM     21  C   UNL     1      -4.313  11.926  18.742  0.00  0.00    +0.000 A 
ATOM     22  C   UNL     1      -4.699  11.514  17.462  0.00  0.00    +0.000 A 
BRANCH  17  24
ATOM     23  C   UNL     1      -2.825  10.021  14.595  0.00  0.00    +0.000 C 
ATOM     24  O   UNL     1      -3.933  10.590  15.276  0.00  0.00    +0.000 OA
ENDBRANCH  17  24
BRANCH  22  25
ATOM     25  O   UNL     1      -6.022  11.609  17.126  0.00  0.00    +0.000 OA
ATOM     26  H   UNL     1      -6.148  12.371  16.538  0.00  0.00    +0.000 HD
ENDBRANCH  22  25
ENDBRANCH  16  19
ENDBRANCH   1  16
TORSDOF 6
ENDMDL
MODEL 8
REMARK VINA RESULT:      -6.9      3.459      9.142
REMARK  Name = 
REMARK  7 active torsions:
REMARK  status: ('A' for Active; 'I' for Inactive)
REMARK    1  A    between atoms: C_1  and  O_2
REMARK    2  A    between atoms: O_2  and  C_3
REMARK    3  A    between atoms: C_5  and  C_6
REMARK    4  A    between atoms: C_6  and  N_7
REMARK    5  A    between atoms: N_10  and  C_11
REMARK    6  A    between atoms: C_14  and  N_15
REMARK    7  A    between atoms: C_22  and  O_23
REMARK                            x       y       z     vdW  Elec       q    Type
REMARK                         _______ _______ _______ _____ _____    ______ ____
ROOT
ATOM      1  N   UNL     1       2.588   7.051  19.928  0.00  0.00    +0.000 N 
ATOM      2  C   UNL     1       1.774   8.158  20.021  0.00  0.00    +0.000 C 
ATOM      3  O   UNL     1       1.390   8.759  19.025  0.00  0.00    +0.000 OA
ATOM      4  N   UNL     1       1.510   8.499  21.330  0.00  0.00    +0.000 N 
ATOM      5  H   UNL     1       2.465   6.342  20.636  0.00  0.00    +0.000 HD
ATOM      6  H   UNL     1       2.111   8.073  22.022  0.00  0.00    +0.000 HD
ENDROOT
BRANCH   4   7
ATOM      7  C   UNL     1       0.695   9.574  21.752  0.00  0.00    +0.000 A 
ATOM      8  C   UNL     1       0.792  10.860  21.207  0.00  0.00    +0.000 A 
ATOM      9  C   UNL     1      -0.012  11.905  21.670  0.00  0.00    +0.000 A 
ATOM     10  C   UNL     1      -0.938  11.662  22.685  0.00  0.00    +0.000 A 
ATOM     11  C   UNL     1      -1.066  10.378  23.232  0.00  0.00    +0.000 A 
ATOM     12  C   UNL     1      -0.253   9.338  22.758  0.00  0.00    +0.000 A 
BRANCH  10  13
ATOM     13  N   UNL     1      -1.782  12.760  23.172  0.00  0.00    +0.000 N 
ATOM     14  O   UNL     1      -2.886  12.472  23.652  0.00  0.00    +0.000 OA
ATOM     15  O   UNL     1      -1.335  13.913  23.076  0.00  0.00    +0.000 OA
ENDBRANCH  10  13
ENDBRANCH   4   7
BRANCH   1  16
ATOM     16  C   UNL     1       2.949   6.581  18.606  0.00  0.00    +0.000 C 
BRANCH  16  19
ATOM     17  C   UNL     1       3.226   2.939  19.732  0.00  0.00    +0.000 A 
ATOM     18  C   UNL     1       2.953   4.313  19.711  0.00  0.00    +0.000 A 
ATOM     19  C   UNL     1       3.174   5.094  18.565  0.00  0.00    +0.000 A 
ATOM     20  C   UNL     1       3.688   4.476  17.423  0.00  0.00    +0.000 A 
ATOM     21  C   UNL     1       3.968   3.108  17.427  0.00  0.00    +0.000 A 
ATOM     22  C   UNL     1       3.740   2.342  18.576  0.00  0.00    +0.000 A 
BRANCH  17  24
ATOM     23  C   UNL     1       1.765   2.762  21.619  0.00  0.00    +0.000 C 
ATOM     24  O   UNL     1       2.946   2.359  20.940  0.00  0.00    +0.000 OA
ENDBRANCH  17  24
BRANCH  22  25
ATOM     25  O   UNL     1       4.040   1.008  18.531  0.00  0.00    +0.000 OA
ATOM     26  H   UNL     1       4.790   0.871  17.931  0.00  0.00    +0.000 HD
ENDBRANCH  22  25
ENDBRANCH  16  19
ENDBRANCH   1  16
TORSDOF 6
ENDMDL
MODEL 9
REMARK VINA RESULT:      -6.9      3.668      9.187
REMARK  Name = 
REMARK  7 active torsions:
REMARK  status: ('A' for Active; 'I' for Inactive)
REMARK    1  A    between atoms: C_1  and  O_2
REMARK    2  A    between atoms: O_2  and  C_3
REMARK    3  A    between atoms: C_5  and  C_6
REMARK    4  A    between atoms: C_6  and  N_7
REMARK    5  A    between atoms: N_10  and  C_11
REMARK    6  A    between atoms: C_14  and  N_15
REMARK    7  A    between atoms: C_22  and  O_23
REMARK                            x       y       z     vdW  Elec       q    Type
REMARK                         _______ _______ _______ _____ _____    ______ ____
ROOT
ATOM      1  N   UNL     1       2.778   6.629  19.728  0.00  0.00    +0.000 N 
ATOM      2  C   UNL     1       1.905   7.689  19.844  0.00  0.00    +0.000 C 
ATOM      3  O   UNL     1       1.350   8.173  18.866  0.00  0.00    +0.000 OA
ATOM      4  N   UNL     1       1.793   8.129  21.145  0.00  0.00    +0.000 N 
ATOM      5  H   UNL     1       2.802   5.981  20.501  0.00  0.00    +0.000 HD
ATOM      6  H   UNL     1       2.510   7.804  21.779  0.00  0.00    +0.000 HD
ENDROOT
BRANCH   4   7
ATOM      7  C   UNL     1       0.965   9.185  21.588  0.00  0.00    +0.000 A 
ATOM      8  C   UNL     1       0.952  10.446  20.978  0.00  0.00    +0.000 A 
ATOM      9  C   UNL     1       0.140  11.475  21.462  0.00  0.00    +0.000 A 
ATOM     10  C   UNL     1      -0.682  11.241  22.566  0.00  0.00    +0.000 A 
ATOM     11  C   UNL     1      -0.698   9.982  23.180  0.00  0.00    +0.000 A 
ATOM     12  C   UNL     1       0.121   8.957  22.684  0.00  0.00    +0.000 A 
BRANCH  10  13
ATOM     13  N   UNL     1      -1.534  12.323  23.076  0.00  0.00    +0.000 N 
ATOM     14  O   UNL     1      -2.677  12.032  23.451  0.00  0.00    +0.000 OA
ATOM     15  O   UNL     1      -1.054  13.466  23.102  0.00  0.00    +0.000 OA
ENDBRANCH  10  13
ENDBRANCH   4   7
BRANCH   1  16
ATOM     16  C   UNL     1       2.994   6.066  18.411  0.00  0.00    +0.000 C 
BRANCH  16  19
ATOM     17  C   UNL     1       6.073   4.460  16.815  0.00  0.00    +0.000 A 
ATOM     18  C   UNL     1       4.784   4.975  17.008  0.00  0.00    +0.000 A 
ATOM     19  C   UNL     1       4.409   5.601  18.208  0.00  0.00    +0.000 A 
ATOM     20  C   UNL     1       5.352   5.700  19.234  0.00  0.00    +0.000 A 
ATOM     21  C   UNL     1       6.640   5.190  19.059  0.00  0.00    +0.000 A 
ATOM     22  C   UNL     1       7.000   4.572  17.856  0.00  0.00    +0.000 A 
BRANCH  17  24
ATOM     23  C   UNL     1       6.910   4.639  14.580  0.00  0.00    +0.000 C 
ATOM     24  O   UNL     1       6.238   3.889  15.581  0.00  0.00    +0.000 OA
ENDBRANCH  17  24
BRANCH  22  25
ATOM     25  O   UNL     1       8.271   4.080  17.739  0.00  0.00    +0.000 OA
ATOM     26  H   UNL     1       8.686   4.057  18.616  0.00  0.00    +0.000 HD
ENDBRANCH  22  25
ENDBRANCH  16  19
ENDBRANCH   1  16
TORSDOF 6
ENDMDL
