MODEL 1
REMARK VINA RESULT:      -8.2      0.000      0.000
REMARK  Name = 
REMARK  6 active torsions:
REMARK  status: ('A' for Active; 'I' for Inactive)
REMARK    1  A    between atoms: C_1  and  N_2
REMARK    2  A    between atoms: C_3  and  C_4
REMARK    3  A    between atoms: C_4  and  N_5
REMARK    4  A    between atoms: N_8  and  C_9
REMARK    5  A    between atoms: C_20  and  C_21
REMARK    6  A    between atoms: C_21  and  N_22
REMARK                            x       y       z     vdW  Elec       q    Type
REMARK                         _______ _______ _______ _____ _____    ______ ____
ROOT
ATOM      1  C   UNL     1       1.265   8.468  21.419  0.00  0.00    +0.000 C 
ATOM      2  N   UNL     1       1.353   8.660  19.989  0.00  0.00    +0.000 N 
ATOM      3  C   UNL     1       0.613   9.568  19.231  0.00  0.00    +0.000 A 
ATOM      4  C   UNL     1       1.077   9.427  17.927  0.00  0.00    +0.000 A 
ATOM      5  C   UNL     1       2.041   8.383  17.895  0.00  0.00    +0.000 A 
ATOM      6  C   UNL     1       2.176   7.881  19.174  0.00  0.00    +0.000 A 
ENDROOT
BRANCH   3   7
ATOM      7  C   UNL     1      -0.584  10.397  19.723  0.00  0.00    +0.000 C 
BRANCH   7   8
ATOM      8  N   UNL     1      -0.766  11.700  19.071  0.00  0.00    +0.000 NA
ATOM      9  C   UNL     1      -1.716  11.703  17.955  0.00  0.00    +0.000 C 
ATOM     10  C   UNL     1      -3.207  11.618  18.315  0.00  0.00    +0.000 C 
ATOM     11  N   UNL     1      -3.671  12.448  19.449  0.00  0.00    +0.000 N 
ATOM     12  C   UNL     1      -2.665  12.965  20.402  0.00  0.00    +0.000 C 
ATOM     13  C   UNL     1      -1.174  12.796  19.976  0.00  0.00    +0.000 C 
BRANCH  11  14
ATOM     14  C   UNL     1      -4.984  12.184  19.922  0.00  0.00    +0.000 A 
ATOM     15  C   UNL     1      -5.922  11.497  19.127  0.00  0.00    +0.000 A 
ATOM     16  C   UNL     1      -7.182  11.098  19.587  0.00  0.00    +0.000 A 
ATOM     17  C   UNL     1      -7.578  11.420  20.874  0.00  0.00    +0.000 A 
ATOM     18  C   UNL     1      -6.725  12.181  21.652  0.00  0.00    +0.000 A 
ATOM     19 CL   UNL     1      -7.261  12.653  23.232  0.00  0.00    +0.000 Cl
ATOM     20  C   UNL     1      -5.456  12.583  21.187  0.00  0.00    +0.000 A 
ENDBRANCH  11  14
ENDBRANCH   7   8
ENDBRANCH   3   7
BRANCH   6  21
ATOM     21  C   UNL     1       2.895   6.626  19.643  0.00  0.00    +0.000 C 
BRANCH  21  22
ATOM     22  N   UNL     1       2.182   5.370  19.372  0.00  0.00    +0.000 N 
ATOM     23  C   UNL     1       1.375   4.820  20.451  0.00  0.00    +0.000 C 
ATOM     24  C   UNL     1       0.891   3.378  20.334  0.00  0.00    +0.000 C 
ATOM     25  C   UNL     1       0.868   2.768  18.953  0.00  0.00    +0.000 C 
ATOM     26  C   UNL     1       1.866   3.323  17.966  0.00  0.00    +0.000 C 
ATOM     27  C   UNL     1       2.511   4.664  18.236  0.00  0.00    +0.000 C 
ATOM     28  O   UNL     1       3.332   5.086  17.415  0.00  0.00    +0.000 OA
ENDBRANCH  21  22
ENDBRANCH   6  21
TORSDOF 5
ENDMDL
MODEL 2
REMARK VINA RESULT:      -7.8      1.402      1.524
REMARK  Name = 
REMARK  6 active torsions:
REMARK  status: ('A' for Active; 'I' for Inactive)
REMARK    1  A    between atoms: C_1  and  N_2
REMARK    2  A    between atoms: C_3  and  C_4
REMARK    3  A    between atoms: C_4  and  N_5
REMARK    4  A    between atoms: N_8  and  C_9
REMARK    5  A    between atoms: C_20  and  C_21
REMARK    6  A    between atoms: C_21  and  N_22
REMARK                            x       y       z     vdW  Elec       q    Type
REMARK                         _______ _______ _______ _____ _____    ______ ____
ROOT
ATOM      1  C   UNL     1       1.398   8.402  21.367  0.00  0.00    +0.000 C 
ATOM      2  N   UNL     1       1.518   8.550  19.934  0.00  0.00    +0.000 N 
ATOM      3  C   UNL     1       0.838   9.471  19.140  0.00  0.00    +0.000 A 
ATOM      4  C   UNL     1       1.314   9.272  17.848  0.00  0.00    +0.000 A 
ATOM      5  C   UNL     1       2.224   8.179  17.861  0.00  0.00    +0.000 A 
ATOM      6  C   UNL     1       2.314   7.708  19.155  0.00  0.00    +0.000 A 
ENDROOT
BRANCH   3   7
ATOM      7  C   UNL     1      -0.324  10.373  19.588  0.00  0.00    +0.000 C 
BRANCH   7   8
ATOM      8  N   UNL     1      -0.591  11.538  18.734  0.00  0.00    +0.000 NA
ATOM      9  C   UNL     1      -1.931  11.574  18.144  0.00  0.00    +0.000 C 
ATOM     10  C   UNL     1      -3.093  11.932  19.083  0.00  0.00    +0.000 C 
ATOM     11  N   UNL     1      -2.868  13.046  20.032  0.00  0.00    +0.000 N 
ATOM     12  C   UNL     1      -1.477  13.460  20.315  0.00  0.00    +0.000 C 
ATOM     13  C   UNL     1      -0.383  12.848  19.388  0.00  0.00    +0.000 C 
BRANCH  11  14
ATOM     14  C   UNL     1      -3.847  13.210  21.048  0.00  0.00    +0.000 A 
ATOM     15  C   UNL     1      -5.083  13.831  20.776  0.00  0.00    +0.000 A 
ATOM     16  C   UNL     1      -6.131  13.905  21.701  0.00  0.00    +0.000 A 
ATOM     17  C   UNL     1      -5.962  13.390  22.976  0.00  0.00    +0.000 A 
ATOM     18  C   UNL     1      -4.728  12.863  23.312  0.00  0.00    +0.000 A 
ATOM     19 CL   UNL     1      -4.495  12.298  24.935  0.00  0.00    +0.000 Cl
ATOM     20  C   UNL     1      -3.673  12.790  22.380  0.00  0.00    +0.000 A 
ENDBRANCH  11  14
ENDBRANCH   7   8
ENDBRANCH   3   7
BRANCH   6  21
ATOM     21  C   UNL     1       2.960   6.432  19.671  0.00  0.00    +0.000 C 
BRANCH  21  22
ATOM     22  N   UNL     1       2.222   5.199  19.364  0.00  0.00    +0.000 N 
ATOM     23  C   UNL     1       1.384   4.648  20.418  0.00  0.00    +0.000 C 
ATOM     24  C   UNL     1       0.867   3.221  20.266  0.00  0.00    +0.000 C 
ATOM     25  C   UNL     1       0.852   2.639  18.873  0.00  0.00    +0.000 C 
ATOM     26  C   UNL     1       1.878   3.188  17.913  0.00  0.00    +0.000 C 
ATOM     27  C   UNL     1       2.552   4.507  18.220  0.00  0.00    +0.000 C 
ATOM     28  O   UNL     1       3.396   4.924  17.420  0.00  0.00    +0.000 OA
ENDBRANCH  21  22
ENDBRANCH   6  21
TORSDOF 5
ENDMDL
MODEL 3
REMARK VINA RESULT:      -7.7      1.016      1.211
REMARK  Name = 
REMARK  6 active torsions:
REMARK  status: ('A' for Active; 'I' for Inactive)
REMARK    1  A    between atoms: C_1  and  N_2
REMARK    2  A    between atoms: C_3  and  C_4
REMARK    3  A    between atoms: C_4  and  N_5
REMARK    4  A    between atoms: N_8  and  C_9
REMARK    5  A    between atoms: C_20  and  C_21
REMARK    6  A    between atoms: C_21  and  N_22
REMARK                            x       y       z     vdW  Elec       q    Type
REMARK                         _______ _______ _______ _____ _____    ______ ____
ROOT
ATOM      1  C   UNL     1       1.447   8.032  21.283  0.00  0.00    +0.000 C 
ATOM      2  N   UNL     1       1.666   8.270  19.874  0.00  0.00    +0.000 N 
ATOM      3  C   UNL     1       1.043   9.243  19.095  0.00  0.00    +0.000 A 
ATOM      4  C   UNL     1       1.609   9.123  17.829  0.00  0.00    +0.000 A 
ATOM      5  C   UNL     1       2.515   8.028  17.835  0.00  0.00    +0.000 A 
ATOM      6  C   UNL     1       2.513   7.475  19.101  0.00  0.00    +0.000 A 
ENDROOT
BRANCH   3   7
ATOM      7  C   UNL     1      -0.146  10.120  19.518  0.00  0.00    +0.000 C 
BRANCH   7   8
ATOM      8  N   UNL     1       0.182  11.507  19.877  0.00  0.00    +0.000 NA
ATOM      9  C   UNL     1      -0.491  12.527  19.069  0.00  0.00    +0.000 C 
ATOM     10  C   UNL     1      -1.985  12.755  19.344  0.00  0.00    +0.000 C 
ATOM     11  N   UNL     1      -2.406  12.795  20.763  0.00  0.00    +0.000 N 
ATOM     12  C   UNL     1      -1.501  12.223  21.783  0.00  0.00    +0.000 C 
ATOM     13  C   UNL     1      -0.067  11.858  21.292  0.00  0.00    +0.000 C 
BRANCH  11  14
ATOM     14  C   UNL     1      -3.806  12.766  21.002  0.00  0.00    +0.000 A 
ATOM     15  C   UNL     1      -4.721  12.542  19.953  0.00  0.00    +0.000 A 
ATOM     16  C   UNL     1      -6.096  12.376  20.150  0.00  0.00    +0.000 A 
ATOM     17  C   UNL     1      -6.627  12.475  21.425  0.00  0.00    +0.000 A 
ATOM     18  C   UNL     1      -5.775  12.794  22.466  0.00  0.00    +0.000 A 
ATOM     19 CL   UNL     1      -6.457  13.002  24.047  0.00  0.00    +0.000 Cl
ATOM     20  C   UNL     1      -4.389  12.962  22.268  0.00  0.00    +0.000 A 
ENDBRANCH  11  14
ENDBRANCH   7   8
ENDBRANCH   3   7
BRANCH   6  21
ATOM     21  C   UNL     1       3.122   6.165  19.577  0.00  0.00    +0.000 C 
BRANCH  21  22
ATOM     22  N   UNL     1       2.333   4.967  19.259  0.00  0.00    +0.000 N 
ATOM     23  C   UNL     1       1.405   4.495  20.276  0.00  0.00    +0.000 C 
ATOM     24  C   UNL     1       0.817   3.095  20.130  0.00  0.00    +0.000 C 
ATOM     25  C   UNL     1       0.849   2.474  18.754  0.00  0.00    +0.000 C 
ATOM     26  C   UNL     1       1.959   2.937  17.843  0.00  0.00    +0.000 C 
ATOM     27  C   UNL     1       2.688   4.225  18.155  0.00  0.00    +0.000 C 
ATOM     28  O   UNL     1       3.599   4.571  17.396  0.00  0.00    +0.000 OA
ENDBRANCH  21  22
ENDBRANCH   6  21
TORSDOF 5
ENDMDL
MODEL 4
REMARK VINA RESULT:      -7.7      5.495     10.904
REMARK  Name = 
REMARK  6 active torsions:
REMARK  status: ('A' for Active; 'I' for Inactive)
REMARK    1  A    between atoms: C_1  and  N_2
REMARK    2  A    between atoms: C_3  and  C_4
REMARK    3  A    between atoms: C_4  and  N_5
REMARK    4  A    between atoms: N_8  and  C_9
REMARK    5  A    between atoms: C_20  and  C_21
REMARK    6  A    between atoms: C_21  and  N_22
REMARK                            x       y       z     vdW  Elec       q    Type
REMARK                         _______ _______ _______ _____ _____    ______ ____
ROOT
ATOM      1  C   UNL     1       1.862   5.884  20.763  0.00  0.00    +0.000 C 
ATOM      2  N   UNL     1       1.960   6.946  19.787  0.00  0.00    +0.000 N 
ATOM      3  C   UNL     1       2.443   6.828  18.485  0.00  0.00    +0.000 A 
ATOM      4  C   UNL     1       2.293   8.090  17.918  0.00  0.00    +0.000 A 
ATOM      5  C   UNL     1       1.791   8.979  18.907  0.00  0.00    +0.000 A 
ATOM      6  C   UNL     1       1.626   8.269  20.080  0.00  0.00    +0.000 A 
ENDROOT
BRANCH   3   7
ATOM      7  C   UNL     1       3.158   5.604  17.889  0.00  0.00    +0.000 C 
BRANCH   7   8
ATOM      8  N   UNL     1       4.515   5.354  18.391  0.00  0.00    +0.000 NA
ATOM      9  C   UNL     1       5.036   4.013  18.116  0.00  0.00    +0.000 C 
ATOM     10  C   UNL     1       5.462   3.719  16.670  0.00  0.00    +0.000 C 
ATOM     11  N   UNL     1       6.230   4.774  15.970  0.00  0.00    +0.000 N 
ATOM     12  C   UNL     1       6.189   6.150  16.508  0.00  0.00    +0.000 C 
ATOM     13  C   UNL     1       5.540   6.310  17.918  0.00  0.00    +0.000 C 
BRANCH  11  14
ATOM     14  C   UNL     1       6.410   4.595  14.572  0.00  0.00    +0.000 A 
ATOM     15  C   UNL     1       7.516   5.153  13.901  0.00  0.00    +0.000 A 
ATOM     16  C   UNL     1       7.811   4.903  12.556  0.00  0.00    +0.000 A 
ATOM     17  C   UNL     1       6.967   4.105  11.803  0.00  0.00    +0.000 A 
ATOM     18  C   UNL     1       5.817   3.620  12.399  0.00  0.00    +0.000 A 
ATOM     19 CL   UNL     1       4.721   2.692  11.428  0.00  0.00    +0.000 Cl
ATOM     20  C   UNL     1       5.520   3.873  13.754  0.00  0.00    +0.000 A 
ENDBRANCH  11  14
ENDBRANCH   7   8
ENDBRANCH   3   7
BRANCH   6  21
ATOM     21  C   UNL     1       1.338   8.784  21.481  0.00  0.00    +0.000 C 
BRANCH  21  22
ATOM     22  N   UNL     1       0.272   9.792  21.560  0.00  0.00    +0.000 N 
ATOM     23  C   UNL     1      -0.049  10.514  20.337  0.00  0.00    +0.000 C 
ATOM     24  C   UNL     1      -0.900  11.775  20.440  0.00  0.00    +0.000 C 
ATOM     25  C   UNL     1      -1.732  11.947  21.688  0.00  0.00    +0.000 C 
ATOM     26  C   UNL     1      -1.207  11.274  22.933  0.00  0.00    +0.000 C 
ATOM     27  C   UNL     1      -0.175  10.175  22.805  0.00  0.00    +0.000 C 
ATOM     28  O   UNL     1       0.244   9.653  23.843  0.00  0.00    +0.000 OA
ENDBRANCH  21  22
ENDBRANCH   6  21
TORSDOF 5
ENDMDL
MODEL 5
REMARK VINA RESULT:      -7.5      1.801      2.463
REMARK  Name = 
REMARK  6 active torsions:
REMARK  status: ('A' for Active; 'I' for Inactive)
REMARK    1  A    between atoms: C_1  and  N_2
REMARK    2  A    between atoms: C_3  and  C_4
REMARK    3  A    between atoms: C_4  and  N_5
REMARK    4  A    between atoms: N_8  and  C_9
REMARK    5  A    between atoms: C_20  and  C_21
REMARK    6  A    between atoms: C_21  and  N_22
REMARK                            x       y       z     vdW  Elec       q    Type
REMARK                         _______ _______ _______ _____ _____    ______ ____
ROOT
ATOM      1  C   UNL     1       1.400   8.175  21.338  0.00  0.00    +0.000 C 
ATOM      2  N   UNL     1       1.669   8.247  19.920  0.00  0.00    +0.000 N 
ATOM      3  C   UNL     1       1.073   9.118  19.009  0.00  0.00    +0.000 A 
ATOM      4  C   UNL     1       1.684   8.854  17.788  0.00  0.00    +0.000 A 
ATOM      5  C   UNL     1       2.591   7.773  17.955  0.00  0.00    +0.000 A 
ATOM      6  C   UNL     1       2.546   7.372  19.275  0.00  0.00    +0.000 A 
ENDROOT
BRANCH   3   7
ATOM      7  C   UNL     1      -0.133  10.031  19.283  0.00  0.00    +0.000 C 
BRANCH   7   8
ATOM      8  N   UNL     1       0.136  11.474  19.228  0.00  0.00    +0.000 NA
ATOM      9  C   UNL     1      -0.969  12.287  18.713  0.00  0.00    +0.000 C 
ATOM     10  C   UNL     1      -2.170  12.495  19.647  0.00  0.00    +0.000 C 
ATOM     11  N   UNL     1      -1.872  12.789  21.067  0.00  0.00    +0.000 N 
ATOM     12  C   UNL     1      -0.525  12.468  21.585  0.00  0.00    +0.000 C 
ATOM     13  C   UNL     1       0.541  12.081  20.514  0.00  0.00    +0.000 C 
BRANCH  11  14
ATOM     14  C   UNL     1      -2.974  12.743  21.961  0.00  0.00    +0.000 A 
ATOM     15  C   UNL     1      -2.823  12.277  23.283  0.00  0.00    +0.000 A 
ATOM     16  C   UNL     1      -3.841  12.329  24.242  0.00  0.00    +0.000 A 
ATOM     17  C   UNL     1      -5.090  12.816  23.896  0.00  0.00    +0.000 A 
ATOM     18  C   UNL     1      -5.307  13.189  22.582  0.00  0.00    +0.000 A 
ATOM     19 CL   UNL     1      -6.896  13.718  22.133  0.00  0.00    +0.000 Cl
ATOM     20  C   UNL     1      -4.281  13.135  21.616  0.00  0.00    +0.000 A 
ENDBRANCH  11  14
ENDBRANCH   7   8
ENDBRANCH   3   7
BRANCH   6  21
ATOM     21  C   UNL     1       3.140   6.132  19.925  0.00  0.00    +0.000 C 
BRANCH  21  22
ATOM     22  N   UNL     1       2.779   4.864  19.275  0.00  0.00    +0.000 N 
ATOM     23  C   UNL     1       3.528   4.494  18.083  0.00  0.00    +0.000 C 
ATOM     24  C   UNL     1       2.983   3.375  17.201  0.00  0.00    +0.000 C 
ATOM     25  C   UNL     1       1.993   2.423  17.827  0.00  0.00    +0.000 C 
ATOM     26  C   UNL     1       1.163   2.978  18.959  0.00  0.00    +0.000 C 
ATOM     27  C   UNL     1       1.616   4.238  19.664  0.00  0.00    +0.000 C 
ATOM     28  O   UNL     1       0.909   4.673  20.579  0.00  0.00    +0.000 OA
ENDBRANCH  21  22
ENDBRANCH   6  21
TORSDOF 5
ENDMDL
MODEL 6
REMARK VINA RESULT:      -7.4      1.998      2.831
REMARK  Name = 
REMARK  6 active torsions:
REMARK  status: ('A' for Active; 'I' for Inactive)
REMARK    1  A    between atoms: C_1  and  N_2
REMARK    2  A    between atoms: C_3  and  C_4
REMARK    3  A    between atoms: C_4  and  N_5
REMARK    4  A    between atoms: N_8  and  C_9
REMARK    5  A    between atoms: C_20  and  C_21
REMARK    6  A    between atoms: C_21  and  N_22
REMARK                            x       y       z     vdW  Elec       q    Type
REMARK                         _______ _______ _______ _____ _____    ______ ____
ROOT
ATOM      1  C   UNL     1       1.392   8.243  21.312  0.00  0.00    +0.000 C 
ATOM      2  N   UNL     1       1.549   8.439  19.889  0.00  0.00    +0.000 N 
ATOM      3  C   UNL     1       0.886   9.384  19.107  0.00  0.00    +0.000 A 
ATOM      4  C   UNL     1       1.398   9.229  17.823  0.00  0.00    +0.000 A 
ATOM      5  C   UNL     1       2.312   8.140  17.823  0.00  0.00    +0.000 A 
ATOM      6  C   UNL     1       2.369   7.626  19.104  0.00  0.00    +0.000 A 
ENDROOT
BRANCH   3   7
ATOM      7  C   UNL     1      -0.291  10.265  19.554  0.00  0.00    +0.000 C 
BRANCH   7   8
ATOM      8  N   UNL     1      -0.492  11.498  18.780  0.00  0.00    +0.000 NA
ATOM      9  C   UNL     1      -1.885  11.940  18.679  0.00  0.00    +0.000 C 
ATOM     10  C   UNL     1      -2.506  12.568  19.936  0.00  0.00    +0.000 C 
ATOM     11  N   UNL     1      -1.667  13.525  20.691  0.00  0.00    +0.000 N 
ATOM     12  C   UNL     1      -0.206  13.514  20.463  0.00  0.00    +0.000 C 
ATOM     13  C   UNL     1       0.287  12.662  19.253  0.00  0.00    +0.000 C 
BRANCH  11  14
ATOM     14  C   UNL     1      -2.153  13.912  21.969  0.00  0.00    +0.000 A 
ATOM     15  C   UNL     1      -1.273  14.144  23.045  0.00  0.00    +0.000 A 
ATOM     16  C   UNL     1      -1.684  14.649  24.284  0.00  0.00    +0.000 A 
ATOM     17  C   UNL     1      -3.025  14.902  24.514  0.00  0.00    +0.000 A 
ATOM     18  C   UNL     1      -3.932  14.592  23.517  0.00  0.00    +0.000 A 
ATOM     19 CL   UNL     1      -5.618  14.831  23.841  0.00  0.00    +0.000 Cl
ATOM     20  C   UNL     1      -3.517  14.083  22.269  0.00  0.00    +0.000 A 
ENDBRANCH  11  14
ENDBRANCH   7   8
ENDBRANCH   3   7
BRANCH   6  21
ATOM     21  C   UNL     1       3.008   6.336  19.594  0.00  0.00    +0.000 C 
BRANCH  21  22
ATOM     22  N   UNL     1       2.256   5.116  19.273  0.00  0.00    +0.000 N 
ATOM     23  C   UNL     1       1.369   4.594  20.303  0.00  0.00    +0.000 C 
ATOM     24  C   UNL     1       0.829   3.176  20.146  0.00  0.00    +0.000 C 
ATOM     25  C   UNL     1       0.851   2.578  18.760  0.00  0.00    +0.000 C 
ATOM     26  C   UNL     1       1.923   3.096  17.832  0.00  0.00    +0.000 C 
ATOM     27  C   UNL     1       2.612   4.404  18.149  0.00  0.00    +0.000 C 
ATOM     28  O   UNL     1       3.493   4.795  17.376  0.00  0.00    +0.000 OA
ENDBRANCH  21  22
ENDBRANCH   6  21
TORSDOF 5
ENDMDL
MODEL 7
REMARK VINA RESULT:      -7.4      2.440      3.556
REMARK  Name = 
REMARK  6 active torsions:
REMARK  status: ('A' for Active; 'I' for Inactive)
REMARK    1  A    between atoms: C_1  and  N_2
REMARK    2  A    between atoms: C_3  and  C_4
REMARK    3  A    between atoms: C_4  and  N_5
REMARK    4  A    between atoms: N_8  and  C_9
REMARK    5  A    between atoms: C_20  and  C_21
REMARK    6  A    between atoms: C_21  and  N_22
REMARK                            x       y       z     vdW  Elec       q    Type
REMARK                         _______ _______ _______ _____ _____    ______ ____
ROOT
ATOM      1  C   UNL     1       1.911   6.471  20.730  0.00  0.00    +0.000 C 
ATOM      2  N   UNL     1       2.178   7.245  19.539  0.00  0.00    +0.000 N 
ATOM      3  C   UNL     1       1.697   8.523  19.260  0.00  0.00    +0.000 A 
ATOM      4  C   UNL     1       2.260   8.873  18.036  0.00  0.00    +0.000 A 
ATOM      5  C   UNL     1       3.017   7.773  17.550  0.00  0.00    +0.000 A 
ATOM      6  C   UNL     1       2.927   6.747  18.471  0.00  0.00    +0.000 A 
ENDROOT
BRANCH   3   7
ATOM      7  C   UNL     1       0.625   9.284  20.057  0.00  0.00    +0.000 C 
BRANCH   7   8
ATOM      8  N   UNL     1       1.124  10.125  21.153  0.00  0.00    +0.000 NA
ATOM      9  C   UNL     1       1.113  11.564  20.879  0.00  0.00    +0.000 C 
ATOM     10  C   UNL     1      -0.255  12.262  20.899  0.00  0.00    +0.000 C 
ATOM     11  N   UNL     1      -1.180  11.892  21.993  0.00  0.00    +0.000 N 
ATOM     12  C   UNL     1      -0.935  10.633  22.728  0.00  0.00    +0.000 C 
ATOM     13  C   UNL     1       0.432   9.936  22.446  0.00  0.00    +0.000 C 
BRANCH  11  14
ATOM     14  C   UNL     1      -2.517  12.357  21.867  0.00  0.00    +0.000 A 
ATOM     15  C   UNL     1      -3.033  12.765  20.621  0.00  0.00    +0.000 A 
ATOM     16  C   UNL     1      -4.374  13.110  20.415  0.00  0.00    +0.000 A 
ATOM     17  C   UNL     1      -5.258  13.102  21.481  0.00  0.00    +0.000 A 
ATOM     18  C   UNL     1      -4.767  12.804  22.739  0.00  0.00    +0.000 A 
ATOM     19 CL   UNL     1      -5.860  12.880  24.083  0.00  0.00    +0.000 Cl
ATOM     20  C   UNL     1      -3.416  12.459  22.945  0.00  0.00    +0.000 A 
ENDBRANCH  11  14
ENDBRANCH   7   8
ENDBRANCH   3   7
BRANCH   6  21
ATOM     21  C   UNL     1       3.355   5.295  18.336  0.00  0.00    +0.000 C 
BRANCH  21  22
ATOM     22  N   UNL     1       4.664   5.094  17.700  0.00  0.00    +0.000 N 
ATOM     23  C   UNL     1       4.667   4.611  16.327  0.00  0.00    +0.000 C 
ATOM     24  C   UNL     1       5.974   4.083  15.745  0.00  0.00    +0.000 C 
ATOM     25  C   UNL     1       7.253   4.508  16.425  0.00  0.00    +0.000 C 
ATOM     26  C   UNL     1       7.147   4.835  17.894  0.00  0.00    +0.000 C 
ATOM     27  C   UNL     1       5.789   5.125  18.494  0.00  0.00    +0.000 C 
ATOM     28  O   UNL     1       5.733   5.377  19.702  0.00  0.00    +0.000 OA
ENDBRANCH  21  22
ENDBRANCH   6  21
TORSDOF 5
ENDMDL
MODEL 8
REMARK VINA RESULT:      -7.4      5.207     10.726
REMARK  Name = 
REMARK  6 active torsions:
REMARK  status: ('A' for Active; 'I' for Inactive)
REMARK    1  A    between atoms: C_1  and  N_2
REMARK    2  A    between atoms: C_3  and  C_4
REMARK    3  A    between atoms: C_4  and  N_5
REMARK    4  A    between atoms: N_8  and  C_9
REMARK    5  A    between atoms: C_20  and  C_21
REMARK    6  A    between atoms: C_21  and  N_22
REMARK                            x       y       z     vdW  Elec       q    Type
REMARK                         _______ _______ _______ _____ _____    ______ ____
ROOT
ATOM      1  C   UNL     1       2.572   9.177  17.691  0.00  0.00    +0.000 C 
ATOM      2  N   UNL     1       2.099   8.506  18.880  0.00  0.00    +0.000 N 
ATOM      3  C   UNL     1       2.279   7.160  19.196  0.00  0.00    +0.000 A 
ATOM      4  C   UNL     1       1.701   6.992  20.450  0.00  0.00    +0.000 A 
ATOM      5  C   UNL     1       1.110   8.222  20.849  0.00  0.00    +0.000 A 
ATOM      6  C   UNL     1       1.324   9.148  19.848  0.00  0.00    +0.000 A 
ENDROOT
BRANCH   3   7
ATOM      7  C   UNL     1       2.831   6.074  18.258  0.00  0.00    +0.000 C 
BRANCH   7   8
ATOM      8  N   UNL     1       3.861   5.199  18.835  0.00  0.00    +0.000 NA
ATOM      9  C   UNL     1       3.870   3.831  18.311  0.00  0.00    +0.000 C 
ATOM     10  C   UNL     1       4.427   3.637  16.892  0.00  0.00    +0.000 C 
ATOM     11  N   UNL     1       5.662   4.377  16.550  0.00  0.00    +0.000 N 
ATOM     12  C   UNL     1       6.047   5.532  17.389  0.00  0.00    +0.000 C 
ATOM     13  C   UNL     1       5.245   5.706  18.715  0.00  0.00    +0.000 C 
BRANCH  11  14
ATOM     14  C   UNL     1       6.030   4.380  15.178  0.00  0.00    +0.000 A 
ATOM     15  C   UNL     1       7.216   5.005  14.742  0.00  0.00    +0.000 A 
ATOM     16  C   UNL     1       7.692   4.929  13.428  0.00  0.00    +0.000 A 
ATOM     17  C   UNL     1       6.960   4.248  12.469  0.00  0.00    +0.000 A 
ATOM     18  C   UNL     1       5.742   3.706  12.836  0.00  0.00    +0.000 A 
ATOM     19 CL   UNL     1       4.791   2.929  11.612  0.00  0.00    +0.000 Cl
ATOM     20  C   UNL     1       5.263   3.785  14.159  0.00  0.00    +0.000 A 
ENDBRANCH  11  14
ENDBRANCH   7   8
ENDBRANCH   3   7
BRANCH   6  21
ATOM     21  C   UNL     1       0.715  10.530  19.670  0.00  0.00    +0.000 C 
BRANCH  21  22
ATOM     22  N   UNL     1      -0.619  10.541  19.056  0.00  0.00    +0.000 N 
ATOM     23  C   UNL     1      -0.803   9.736  17.857  0.00  0.00    +0.000 C 
ATOM     24  C   UNL     1      -2.050   9.968  17.010  0.00  0.00    +0.000 C 
ATOM     25  C   UNL     1      -3.219  10.653  17.676  0.00  0.00    +0.000 C 
ATOM     26  C   UNL     1      -2.881  11.587  18.812  0.00  0.00    +0.000 C 
ATOM     27  C   UNL     1      -1.528  11.484  19.481  0.00  0.00    +0.000 C 
ATOM     28  O   UNL     1      -1.277  12.271  20.400  0.00  0.00    +0.000 OA
ENDBRANCH  21  22
ENDBRANCH   6  21
TORSDOF 5
ENDMDL
MODEL 9
REMARK VINA RESULT:      -7.4      1.480      2.084
REMARK  Name = 
REMARK  6 active torsions:
REMARK  status: ('A' for Active; 'I' for Inactive)
REMARK    1  A    between atoms: C_1  and  N_2
REMARK    2  A    between atoms: C_3  and  C_4
REMARK    3  A    between atoms: C_4  and  N_5
REMARK    4  A    between atoms: N_8  and  C_9
REMARK    5  A    between atoms: C_20  and  C_21
REMARK    6  A    between atoms: C_21  and  N_22
REMARK                            x       y       z     vdW  Elec       q    Type
REMARK                         _______ _______ _______ _____ _____    ______ ____
ROOT
ATOM      1  C   UNL     1       1.329   8.113  21.270  0.00  0.00    +0.000 C 
ATOM      2  N   UNL     1       1.780   8.063  19.898  0.00  0.00    +0.000 N 
ATOM      3  C   UNL     1       1.428   8.949  18.880  0.00  0.00    +0.000 A 
ATOM      4  C   UNL     1       2.143   8.533  17.762  0.00  0.00    +0.000 A 
ATOM      5  C   UNL     1       2.864   7.353  18.093  0.00  0.00    +0.000 A 
ATOM      6  C   UNL     1       2.599   7.042  19.412  0.00  0.00    +0.000 A 
ENDROOT
BRANCH   3   7
ATOM      7  C   UNL     1       0.336  10.028  18.954  0.00  0.00    +0.000 C 
BRANCH   7   8
ATOM      8  N   UNL     1       0.772  11.342  19.446  0.00  0.00    +0.000 NA
ATOM      9  C   UNL     1       0.146  12.487  18.780  0.00  0.00    +0.000 C 
ATOM     10  C   UNL     1      -1.318  12.782  19.141  0.00  0.00    +0.000 C 
ATOM     11  N   UNL     1      -1.687  12.693  20.571  0.00  0.00    +0.000 N 
ATOM     12  C   UNL     1      -0.790  11.955  21.486  0.00  0.00    +0.000 C 
ATOM     13  C   UNL     1       0.598  11.551  20.899  0.00  0.00    +0.000 C 
BRANCH  11  14
ATOM     14  C   UNL     1      -3.076  12.731  20.864  0.00  0.00    +0.000 A 
ATOM     15  C   UNL     1      -4.040  12.577  19.847  0.00  0.00    +0.000 A 
ATOM     16  C   UNL     1      -5.415  12.477  20.093  0.00  0.00    +0.000 A 
ATOM     17  C   UNL     1      -5.891  12.575  21.390  0.00  0.00    +0.000 A 
ATOM     18  C   UNL     1      -4.985  12.827  22.404  0.00  0.00    +0.000 A 
ATOM     19 CL   UNL     1      -5.595  13.034  24.014  0.00  0.00    +0.000 Cl
ATOM     20  C   UNL     1      -3.601  12.929  22.155  0.00  0.00    +0.000 A 
ENDBRANCH  11  14
ENDBRANCH   7   8
ENDBRANCH   3   7
BRANCH   6  21
ATOM     21  C   UNL     1       2.930   5.776  20.186  0.00  0.00    +0.000 C 
BRANCH  21  22
ATOM     22  N   UNL     1       2.768   4.529  19.425  0.00  0.00    +0.000 N 
ATOM     23  C   UNL     1       3.791   4.218  18.437  0.00  0.00    +0.000 C 
ATOM     24  C   UNL     1       3.502   3.127  17.412  0.00  0.00    +0.000 C 
ATOM     25  C   UNL     1       2.414   2.135  17.747  0.00  0.00    +0.000 C 
ATOM     26  C   UNL     1       1.323   2.632  18.663  0.00  0.00    +0.000 C 
ATOM     27  C   UNL     1       1.561   3.870  19.500  0.00  0.00    +0.000 C 
ATOM     28  O   UNL     1       0.644   4.258  20.231  0.00  0.00    +0.000 OA
ENDBRANCH  21  22
ENDBRANCH   6  21
TORSDOF 5
ENDMDL
