MODEL 1
REMARK VINA RESULT:      -7.5      0.000      0.000
REMARK  Name = 
REMARK  5 active torsions:
REMARK  status: ('A' for Active; 'I' for Inactive)
REMARK    1  A    between atoms: C_1  and  C_2
REMARK    2  A    between atoms: C_2  and  C_3
REMARK    3  A    between atoms: N_5  and  C_6
REMARK    4  A    between atoms: N_5  and  C_17
REMARK    5  A    between atoms: C_6  and  C_7
REMARK                            x       y       z     vdW  Elec       q    Type
REMARK                         _______ _______ _______ _____ _____    ______ ____
ROOT
ATOM      1  C   UNL     1       5.214   4.828  18.786  0.00  0.00    +0.000 C 
ATOM      2  O   UNL     1       5.919   3.983  19.335  0.00  0.00    +0.000 OA
ATOM      3  N   UNL     1       3.821   4.719  18.722  0.00  0.00    +0.000 N 
ENDROOT
BRANCH   3   4
ATOM      4  C   UNL     1       3.161   3.511  19.278  0.00  0.00    +0.000 C 
ATOM      5  C   UNL     1       1.827   3.163  18.625  0.00  0.00    +0.000 C 
ATOM      6  C   UNL     1       0.773   3.525  19.656  0.00  0.00    +0.000 C 
ATOM      7  N   UNL     1       1.398   3.288  20.961  0.00  0.00    +0.000 NA
ATOM      8  C   UNL     1       2.839   3.556  20.786  0.00  0.00    +0.000 C 
ATOM      9  H   UNL     1       1.263   2.313  21.222  0.00  0.00    +0.000 HD
ENDBRANCH   3   4
BRANCH   1  11
ATOM     10  C   UNL     1       7.404   5.917  18.175  0.00  0.00    +0.000 C 
ATOM     11  C   UNL     1       5.881   6.037  18.147  0.00  0.00    +0.000 C 
ENDBRANCH   1  11
BRANCH   3  12
ATOM     12  C   UNL     1       3.006   5.570  17.853  0.00  0.00    +0.000 C 
BRANCH  12  13
ATOM     13  C   UNL     1       2.593   6.916  18.413  0.00  0.00    +0.000 A 
ATOM     14  C   UNL     1       2.444   8.027  17.574  0.00  0.00    +0.000 A 
ATOM     15  C   UNL     1       1.825   9.196  18.045  0.00  0.00    +0.000 A 
ATOM     16  C   UNL     1       1.344   9.277  19.362  0.00  0.00    +0.000 A 
ATOM     17  C   UNL     1       0.616  10.390  19.820  0.00  0.00    +0.000 A 
ATOM     18  C   UNL     1       0.107  10.427  21.119  0.00  0.00    +0.000 A 
ATOM     19  C   UNL     1       0.350   9.369  21.990  0.00  0.00    +0.000 A 
ATOM     20  C   UNL     1       1.086   8.266  21.556  0.00  0.00    +0.000 A 
ATOM     21  C   UNL     1       1.566   8.193  20.238  0.00  0.00    +0.000 A 
ATOM     22  C   UNL     1       2.206   7.037  19.758  0.00  0.00    +0.000 A 
ENDBRANCH  12  13
ENDBRANCH   3  12
TORSDOF 4
ENDMDL
MODEL 2
REMARK VINA RESULT:      -7.4      1.711      3.705
REMARK  Name = 
REMARK  5 active torsions:
REMARK  status: ('A' for Active; 'I' for Inactive)
REMARK    1  A    between atoms: C_1  and  C_2
REMARK    2  A    between atoms: C_2  and  C_3
REMARK    3  A    between atoms: N_5  and  C_6
REMARK    4  A    between atoms: N_5  and  C_17
REMARK    5  A    between atoms: C_6  and  C_7
REMARK                            x       y       z     vdW  Elec       q    Type
REMARK                         _______ _______ _______ _____ _____    ______ ____
ROOT
ATOM      1  C   UNL     1       2.596   3.767  17.561  0.00  0.00    +0.000 C 
ATOM      2  O   UNL     1       2.638   2.938  16.653  0.00  0.00    +0.000 OA
ATOM      3  N   UNL     1       3.671   4.613  17.857  0.00  0.00    +0.000 N 
ENDROOT
BRANCH   3   4
ATOM      4  C   UNL     1       4.937   4.472  17.095  0.00  0.00    +0.000 C 
ATOM      5  C   UNL     1       6.197   4.761  17.905  0.00  0.00    +0.000 C 
ATOM      6  C   UNL     1       6.697   6.102  17.396  0.00  0.00    +0.000 C 
ATOM      7  N   UNL     1       6.324   6.151  15.979  0.00  0.00    +0.000 NA
ATOM      8  C   UNL     1       5.076   5.373  15.851  0.00  0.00    +0.000 C 
ATOM      9  H   UNL     1       7.057   5.711  15.427  0.00  0.00    +0.000 HD
ENDBRANCH   3   4
BRANCH   1  11
ATOM     10  C   UNL     1       0.827   2.500  18.833  0.00  0.00    +0.000 C 
ATOM     11  C   UNL     1       1.330   3.875  18.398  0.00  0.00    +0.000 C 
ENDBRANCH   1  11
BRANCH   3  12
ATOM     12  C   UNL     1       3.729   5.406  19.085  0.00  0.00    +0.000 C 
BRANCH  12  13
ATOM     13  C   UNL     1       3.056   6.764  19.051  0.00  0.00    +0.000 A 
ATOM     14  C   UNL     1       3.055   7.534  17.881  0.00  0.00    +0.000 A 
ATOM     15  C   UNL     1       2.227   8.662  17.774  0.00  0.00    +0.000 A 
ATOM     16  C   UNL     1       1.386   9.043  18.831  0.00  0.00    +0.000 A 
ATOM     17  C   UNL     1       0.462  10.097  18.704  0.00  0.00    +0.000 A 
ATOM     18  C   UNL     1      -0.398  10.425  19.753  0.00  0.00    +0.000 A 
ATOM     19  C   UNL     1      -0.320   9.731  20.957  0.00  0.00    +0.000 A 
ATOM     20  C   UNL     1       0.603   8.695  21.105  0.00  0.00    +0.000 A 
ATOM     21  C   UNL     1       1.443   8.322  20.043  0.00  0.00    +0.000 A 
ATOM     22  C   UNL     1       2.292   7.206  20.143  0.00  0.00    +0.000 A 
ENDBRANCH  12  13
ENDBRANCH   3  12
TORSDOF 4
ENDMDL
MODEL 3
REMARK VINA RESULT:      -7.4      2.899      5.004
REMARK  Name = 
REMARK  5 active torsions:
REMARK  status: ('A' for Active; 'I' for Inactive)
REMARK    1  A    between atoms: C_1  and  C_2
REMARK    2  A    between atoms: C_2  and  C_3
REMARK    3  A    between atoms: N_5  and  C_6
REMARK    4  A    between atoms: N_5  and  C_17
REMARK    5  A    between atoms: C_6  and  C_7
REMARK                            x       y       z     vdW  Elec       q    Type
REMARK                         _______ _______ _______ _____ _____    ______ ____
ROOT
ATOM      1  C   UNL     1       6.425   4.669  14.397  0.00  0.00    +0.000 C 
ATOM      2  O   UNL     1       7.305   5.276  13.789  0.00  0.00    +0.000 OA
ATOM      3  N   UNL     1       6.396   4.585  15.793  0.00  0.00    +0.000 N 
ENDROOT
BRANCH   3   4
ATOM      4  C   UNL     1       7.498   5.195  16.580  0.00  0.00    +0.000 C 
ATOM      5  C   UNL     1       7.760   4.523  17.924  0.00  0.00    +0.000 C 
ATOM      6  C   UNL     1       7.234   5.496  18.964  0.00  0.00    +0.000 C 
ATOM      7  N   UNL     1       7.445   6.832  18.398  0.00  0.00    +0.000 NA
ATOM      8  C   UNL     1       7.326   6.686  16.934  0.00  0.00    +0.000 C 
ATOM      9  H   UNL     1       8.384   7.148  18.632  0.00  0.00    +0.000 HD
ENDBRANCH   3   4
BRANCH   1  11
ATOM     10  C   UNL     1       5.875   3.338  12.328  0.00  0.00    +0.000 C 
ATOM     11  C   UNL     1       5.327   3.979  13.602  0.00  0.00    +0.000 C 
ENDBRANCH   1  11
BRANCH   3  12
ATOM     12  C   UNL     1       5.517   3.657  16.506  0.00  0.00    +0.000 C 
BRANCH  12  13
ATOM     13  C   UNL     1       4.438   4.272  17.374  0.00  0.00    +0.000 A 
ATOM     14  C   UNL     1       3.977   3.614  18.520  0.00  0.00    +0.000 A 
ATOM     15  C   UNL     1       3.172   4.288  19.452  0.00  0.00    +0.000 A 
ATOM     16  C   UNL     1       2.811   5.630  19.256  0.00  0.00    +0.000 A 
ATOM     17  C   UNL     1       2.105   6.360  20.230  0.00  0.00    +0.000 A 
ATOM     18  C   UNL     1       1.800   7.708  20.033  0.00  0.00    +0.000 A 
ATOM     19  C   UNL     1       2.161   8.334  18.844  0.00  0.00    +0.000 A 
ATOM     20  C   UNL     1       2.845   7.619  17.860  0.00  0.00    +0.000 A 
ATOM     21  C   UNL     1       3.201   6.275  18.063  0.00  0.00    +0.000 A 
ATOM     22  C   UNL     1       3.991   5.581  17.129  0.00  0.00    +0.000 A 
ENDBRANCH  12  13
ENDBRANCH   3  12
TORSDOF 4
ENDMDL
MODEL 4
REMARK VINA RESULT:      -7.3      1.063      1.263
REMARK  Name = 
REMARK  5 active torsions:
REMARK  status: ('A' for Active; 'I' for Inactive)
REMARK    1  A    between atoms: C_1  and  C_2
REMARK    2  A    between atoms: C_2  and  C_3
REMARK    3  A    between atoms: N_5  and  C_6
REMARK    4  A    between atoms: N_5  and  C_17
REMARK    5  A    between atoms: C_6  and  C_7
REMARK                            x       y       z     vdW  Elec       q    Type
REMARK                         _______ _______ _______ _____ _____    ______ ____
ROOT
ATOM      1  C   UNL     1       4.311   4.370  19.181  0.00  0.00    +0.000 C 
ATOM      2  O   UNL     1       4.338   3.232  19.646  0.00  0.00    +0.000 OA
ATOM      3  N   UNL     1       3.162   4.918  18.599  0.00  0.00    +0.000 N 
ENDROOT
BRANCH   3   4
ATOM      4  C   UNL     1       1.942   4.082  18.476  0.00  0.00    +0.000 C 
ATOM      5  C   UNL     1       1.162   3.908  19.775  0.00  0.00    +0.000 C 
ATOM      6  C   UNL     1       1.418   2.473  20.203  0.00  0.00    +0.000 C 
ATOM      7  N   UNL     1       1.574   1.712  18.960  0.00  0.00    +0.000 NA
ATOM      8  C   UNL     1       2.163   2.640  17.975  0.00  0.00    +0.000 C 
ATOM      9  H   UNL     1       0.656   1.411  18.638  0.00  0.00    +0.000 HD
ENDBRANCH   3   4
BRANCH   1  11
ATOM     10  C   UNL     1       6.584   4.783  18.172  0.00  0.00    +0.000 C 
ATOM     11  C   UNL     1       5.575   5.215  19.235  0.00  0.00    +0.000 C 
ENDBRANCH   1  11
BRANCH   3  12
ATOM     12  C   UNL     1       3.193   6.154  17.815  0.00  0.00    +0.000 C 
BRANCH  12  13
ATOM     13  C   UNL     1       2.573   7.380  18.455  0.00  0.00    +0.000 A 
ATOM     14  C   UNL     1       2.181   8.475  17.676  0.00  0.00    +0.000 A 
ATOM     15  C   UNL     1       1.386   9.492  18.228  0.00  0.00    +0.000 A 
ATOM     16  C   UNL     1       0.969   9.436  19.567  0.00  0.00    +0.000 A 
ATOM     17  C   UNL     1       0.077  10.379  20.108  0.00  0.00    +0.000 A 
ATOM     18  C   UNL     1      -0.361  10.274  21.430  0.00  0.00    +0.000 A 
ATOM     19  C   UNL     1       0.116   9.247  22.239  0.00  0.00    +0.000 A 
ATOM     20  C   UNL     1       1.016   8.314  21.722  0.00  0.00    +0.000 A 
ATOM     21  C   UNL     1       1.430   8.379  20.382  0.00  0.00    +0.000 A 
ATOM     22  C   UNL     1       2.242   7.378  19.820  0.00  0.00    +0.000 A 
ENDBRANCH  12  13
ENDBRANCH   3  12
TORSDOF 4
ENDMDL
MODEL 5
REMARK VINA RESULT:      -7.3      1.320      1.575
REMARK  Name = 
REMARK  5 active torsions:
REMARK  status: ('A' for Active; 'I' for Inactive)
REMARK    1  A    between atoms: C_1  and  C_2
REMARK    2  A    between atoms: C_2  and  C_3
REMARK    3  A    between atoms: N_5  and  C_6
REMARK    4  A    between atoms: N_5  and  C_17
REMARK    5  A    between atoms: C_6  and  C_7
REMARK                            x       y       z     vdW  Elec       q    Type
REMARK                         _______ _______ _______ _____ _____    ______ ____
ROOT
ATOM      1  C   UNL     1       5.198   4.711  17.871  0.00  0.00    +0.000 C 
ATOM      2  O   UNL     1       5.528   4.244  16.782  0.00  0.00    +0.000 OA
ATOM      3  N   UNL     1       3.956   4.445  18.457  0.00  0.00    +0.000 N 
ENDROOT
BRANCH   3   4
ATOM      4  C   UNL     1       2.965   3.622  17.719  0.00  0.00    +0.000 C 
ATOM      5  C   UNL     1       1.511   3.923  18.066  0.00  0.00    +0.000 C 
ATOM      6  C   UNL     1       1.044   2.735  18.889  0.00  0.00    +0.000 C 
ATOM      7  N   UNL     1       1.784   1.580  18.370  0.00  0.00    +0.000 NA
ATOM      8  C   UNL     1       3.087   2.097  17.906  0.00  0.00    +0.000 C 
ATOM      9  H   UNL     1       1.274   1.186  17.582  0.00  0.00    +0.000 HD
ENDBRANCH   3   4
BRANCH   1  11
ATOM     10  C   UNL     1       7.376   5.973  17.735  0.00  0.00    +0.000 C 
ATOM     11  C   UNL     1       6.175   5.614  18.608  0.00  0.00    +0.000 C 
ENDBRANCH   1  11
BRANCH   3  12
ATOM     12  C   UNL     1       3.456   5.197  19.610  0.00  0.00    +0.000 C 
BRANCH  12  13
ATOM     13  C   UNL     1       2.929   6.591  19.335  0.00  0.00    +0.000 A 
ATOM     14  C   UNL     1       3.103   7.190  18.081  0.00  0.00    +0.000 A 
ATOM     15  C   UNL     1       2.404   8.362  17.750  0.00  0.00    +0.000 A 
ATOM     16  C   UNL     1       1.521   8.958  18.664  0.00  0.00    +0.000 A 
ATOM     17  C   UNL     1       0.722  10.062  18.313  0.00  0.00    +0.000 A 
ATOM     18  C   UNL     1      -0.184  10.607  19.224  0.00  0.00    +0.000 A 
ATOM     19  C   UNL     1      -0.277  10.082  20.510  0.00  0.00    +0.000 A 
ATOM     20  C   UNL     1       0.521   8.998  20.878  0.00  0.00    +0.000 A 
ATOM     21  C   UNL     1       1.404   8.408  19.959  0.00  0.00    +0.000 A 
ATOM     22  C   UNL     1       2.126   7.246  20.283  0.00  0.00    +0.000 A 
ENDBRANCH  12  13
ENDBRANCH   3  12
TORSDOF 4
ENDMDL
MODEL 6
REMARK VINA RESULT:      -7.3      3.893      5.789
REMARK  Name = 
REMARK  5 active torsions:
REMARK  status: ('A' for Active; 'I' for Inactive)
REMARK    1  A    between atoms: C_1  and  C_2
REMARK    2  A    between atoms: C_2  and  C_3
REMARK    3  A    between atoms: N_5  and  C_6
REMARK    4  A    between atoms: N_5  and  C_17
REMARK    5  A    between atoms: C_6  and  C_7
REMARK                            x       y       z     vdW  Elec       q    Type
REMARK                         _______ _______ _______ _____ _____    ______ ____
ROOT
ATOM      1  C   UNL     1       7.286   5.342  16.577  0.00  0.00    +0.000 C 
ATOM      2  O   UNL     1       7.787   6.388  16.168  0.00  0.00    +0.000 OA
ATOM      3  N   UNL     1       6.487   4.525  15.769  0.00  0.00    +0.000 N 
ENDROOT
BRANCH   3   4
ATOM      4  C   UNL     1       6.173   4.958  14.384  0.00  0.00    +0.000 C 
ATOM      5  C   UNL     1       5.216   4.036  13.636  0.00  0.00    +0.000 C 
ATOM      6  C   UNL     1       6.077   3.314  12.614  0.00  0.00    +0.000 C 
ATOM      7  N   UNL     1       7.128   4.265  12.240  0.00  0.00    +0.000 NA
ATOM      8  C   UNL     1       7.380   5.096  13.433  0.00  0.00    +0.000 C 
ATOM      9  H   UNL     1       6.789   4.853  11.482  0.00  0.00    +0.000 HD
ENDBRANCH   3   4
BRANCH   1  11
ATOM     10  C   UNL     1       7.666   6.129  18.941  0.00  0.00    +0.000 C 
ATOM     11  C   UNL     1       7.540   4.920  18.016  0.00  0.00    +0.000 C 
ENDBRANCH   1  11
BRANCH   3  12
ATOM     12  C   UNL     1       5.680   3.432  16.313  0.00  0.00    +0.000 C 
BRANCH  12  13
ATOM     13  C   UNL     1       4.625   3.809  17.334  0.00  0.00    +0.000 A 
ATOM     14  C   UNL     1       3.571   4.666  16.993  0.00  0.00    +0.000 A 
ATOM     15  C   UNL     1       2.469   4.812  17.850  0.00  0.00    +0.000 A 
ATOM     16  C   UNL     1       2.398   4.107  19.062  0.00  0.00    +0.000 A 
ATOM     17  C   UNL     1       1.253   4.146  19.879  0.00  0.00    +0.000 A 
ATOM     18  C   UNL     1       1.189   3.398  21.056  0.00  0.00    +0.000 A 
ATOM     19  C   UNL     1       2.281   2.632  21.452  0.00  0.00    +0.000 A 
ATOM     20  C   UNL     1       3.430   2.598  20.662  0.00  0.00    +0.000 A 
ATOM     21  C   UNL     1       3.494   3.307  19.451  0.00  0.00    +0.000 A 
ATOM     22  C   UNL     1       4.600   3.186  18.592  0.00  0.00    +0.000 A 
ENDBRANCH  12  13
ENDBRANCH   3  12
TORSDOF 4
ENDMDL
MODEL 7
REMARK VINA RESULT:      -7.2      1.460      3.597
REMARK  Name = 
REMARK  5 active torsions:
REMARK  status: ('A' for Active; 'I' for Inactive)
REMARK    1  A    between atoms: C_1  and  C_2
REMARK    2  A    between atoms: C_2  and  C_3
REMARK    3  A    between atoms: N_5  and  C_6
REMARK    4  A    between atoms: N_5  and  C_17
REMARK    5  A    between atoms: C_6  and  C_7
REMARK                            x       y       z     vdW  Elec       q    Type
REMARK                         _______ _______ _______ _____ _____    ______ ____
ROOT
ATOM      1  C   UNL     1       4.407   3.280  19.264  0.00  0.00    +0.000 C 
ATOM      2  O   UNL     1       5.215   2.813  20.064  0.00  0.00    +0.000 OA
ATOM      3  N   UNL     1       4.796   4.074  18.179  0.00  0.00    +0.000 N 
ENDROOT
BRANCH   3   4
ATOM      4  C   UNL     1       6.229   4.425  18.013  0.00  0.00    +0.000 C 
ATOM      5  C   UNL     1       6.660   5.687  18.753  0.00  0.00    +0.000 C 
ATOM      6  C   UNL     1       6.859   6.734  17.670  0.00  0.00    +0.000 C 
ATOM      7  N   UNL     1       7.321   5.998  16.489  0.00  0.00    +0.000 NA
ATOM      8  C   UNL     1       6.699   4.662  16.563  0.00  0.00    +0.000 C 
ATOM      9  H   UNL     1       8.334   5.904  16.532  0.00  0.00    +0.000 HD
ENDBRANCH   3   4
BRANCH   1  11
ATOM     10  C   UNL     1       2.574   2.855  20.941  0.00  0.00    +0.000 C 
ATOM     11  C   UNL     1       2.927   2.989  19.461  0.00  0.00    +0.000 C 
ENDBRANCH   1  11
BRANCH   3  12
ATOM     12  C   UNL     1       3.836   4.843  17.386  0.00  0.00    +0.000 C 
BRANCH  12  13
ATOM     13  C   UNL     1       3.362   6.155  17.977  0.00  0.00    +0.000 A 
ATOM     14  C   UNL     1       3.337   7.323  17.205  0.00  0.00    +0.000 A 
ATOM     15  C   UNL     1       2.669   8.468  17.668  0.00  0.00    +0.000 A 
ATOM     16  C   UNL     1       2.014   8.468  18.910  0.00  0.00    +0.000 A 
ATOM     17  C   UNL     1       1.240   9.560  19.341  0.00  0.00    +0.000 A 
ATOM     18  C   UNL     1       0.559   9.518  20.559  0.00  0.00    +0.000 A 
ATOM     19  C   UNL     1       0.673   8.399  21.380  0.00  0.00    +0.000 A 
ATOM     20  C   UNL     1       1.452   7.315  20.973  0.00  0.00    +0.000 A 
ATOM     21  C   UNL     1       2.106   7.323  19.730  0.00  0.00    +0.000 A 
ATOM     22  C   UNL     1       2.796   6.191  19.262  0.00  0.00    +0.000 A 
ENDBRANCH  12  13
ENDBRANCH   3  12
TORSDOF 4
ENDMDL
MODEL 8
REMARK VINA RESULT:      -7.2      0.977      1.836
REMARK  Name = 
REMARK  5 active torsions:
REMARK  status: ('A' for Active; 'I' for Inactive)
REMARK    1  A    between atoms: C_1  and  C_2
REMARK    2  A    between atoms: C_2  and  C_3
REMARK    3  A    between atoms: N_5  and  C_6
REMARK    4  A    between atoms: N_5  and  C_17
REMARK    5  A    between atoms: C_6  and  C_7
REMARK                            x       y       z     vdW  Elec       q    Type
REMARK                         _______ _______ _______ _____ _____    ______ ____
ROOT
ATOM      1  C   UNL     1       5.783   4.958  18.323  0.00  0.00    +0.000 C 
ATOM      2  O   UNL     1       6.599   4.117  18.697  0.00  0.00    +0.000 OA
ATOM      3  N   UNL     1       4.433   4.655  18.113  0.00  0.00    +0.000 N 
ENDROOT
BRANCH   3   4
ATOM      4  C   UNL     1       3.968   3.255  18.284  0.00  0.00    +0.000 C 
ATOM      5  C   UNL     1       2.746   2.890  17.447  0.00  0.00    +0.000 C 
ATOM      6  C   UNL     1       1.599   2.797  18.437  0.00  0.00    +0.000 C 
ATOM      7  N   UNL     1       2.195   2.323  19.690  0.00  0.00    +0.000 NA
ATOM      8  C   UNL     1       3.574   2.849  19.719  0.00  0.00    +0.000 C 
ATOM      9  H   UNL     1       2.220   1.305  19.682  0.00  0.00    +0.000 HD
ENDBRANCH   3   4
BRANCH   1  11
ATOM     10  C   UNL     1       7.738   6.546  18.417  0.00  0.00    +0.000 C 
ATOM     11  C   UNL     1       6.259   6.381  18.075  0.00  0.00    +0.000 C 
ENDBRANCH   1  11
BRANCH   3  12
ATOM     12  C   UNL     1       3.522   5.570  17.424  0.00  0.00    +0.000 C 
BRANCH  12  13
ATOM     13  C   UNL     1       2.671   6.469  18.298  0.00  0.00    +0.000 A 
ATOM     14  C   UNL     1       2.413   6.136  19.633  0.00  0.00    +0.000 A 
ATOM     15  C   UNL     1       1.845   7.079  20.504  0.00  0.00    +0.000 A 
ATOM     16  C   UNL     1       1.525   8.371  20.059  0.00  0.00    +0.000 A 
ATOM     17  C   UNL     1       1.067   9.368  20.940  0.00  0.00    +0.000 A 
ATOM     18  C   UNL     1       0.801  10.660  20.482  0.00  0.00    +0.000 A 
ATOM     19  C   UNL     1       0.952  10.963  19.132  0.00  0.00    +0.000 A 
ATOM     20  C   UNL     1       1.388   9.979  18.243  0.00  0.00    +0.000 A 
ATOM     21  C   UNL     1       1.705   8.688  18.695  0.00  0.00    +0.000 A 
ATOM     22  C   UNL     1       2.255   7.726  17.830  0.00  0.00    +0.000 A 
ENDBRANCH  12  13
ENDBRANCH   3  12
TORSDOF 4
ENDMDL
MODEL 9
REMARK VINA RESULT:      -7.1      0.891      1.202
REMARK  Name = 
REMARK  5 active torsions:
REMARK  status: ('A' for Active; 'I' for Inactive)
REMARK    1  A    between atoms: C_1  and  C_2
REMARK    2  A    between atoms: C_2  and  C_3
REMARK    3  A    between atoms: N_5  and  C_6
REMARK    4  A    between atoms: N_5  and  C_17
REMARK    5  A    between atoms: C_6  and  C_7
REMARK                            x       y       z     vdW  Elec       q    Type
REMARK                         _______ _______ _______ _____ _____    ______ ____
ROOT
ATOM      1  C   UNL     1       5.419   5.078  18.803  0.00  0.00    +0.000 C 
ATOM      2  O   UNL     1       6.201   4.312  19.364  0.00  0.00    +0.000 OA
ATOM      3  N   UNL     1       4.032   4.899  18.845  0.00  0.00    +0.000 N 
ENDROOT
BRANCH   3   4
ATOM      4  C   UNL     1       3.473   3.710  19.537  0.00  0.00    +0.000 C 
ATOM      5  C   UNL     1       4.178   2.398  19.207  0.00  0.00    +0.000 C 
ATOM      6  C   UNL     1       3.207   1.638  18.320  0.00  0.00    +0.000 C 
ATOM      7  N   UNL     1       1.869   2.027  18.775  0.00  0.00    +0.000 NA
ATOM      8  C   UNL     1       1.984   3.414  19.267  0.00  0.00    +0.000 C 
ATOM      9  H   UNL     1       1.588   1.417  19.540  0.00  0.00    +0.000 HD
ENDBRANCH   3   4
BRANCH   1  11
ATOM     10  C   UNL     1       6.834   5.806  16.849  0.00  0.00    +0.000 C 
ATOM     11  C   UNL     1       5.979   6.262  18.030  0.00  0.00    +0.000 C 
ENDBRANCH   1  11
BRANCH   3  12
ATOM     12  C   UNL     1       3.119   5.640  17.974  0.00  0.00    +0.000 C 
BRANCH  12  13
ATOM     13  C   UNL     1       2.639   6.986  18.478  0.00  0.00    +0.000 A 
ATOM     14  C   UNL     1       2.470   8.063  17.599  0.00  0.00    +0.000 A 
ATOM     15  C   UNL     1       1.794   9.221  18.015  0.00  0.00    +0.000 A 
ATOM     16  C   UNL     1       1.275   9.326  19.316  0.00  0.00    +0.000 A 
ATOM     17  C   UNL     1       0.492  10.423  19.717  0.00  0.00    +0.000 A 
ATOM     18  C   UNL     1      -0.054  10.481  21.001  0.00  0.00    +0.000 A 
ATOM     19  C   UNL     1       0.206   9.462  21.912  0.00  0.00    +0.000 A 
ATOM     20  C   UNL     1       0.996   8.375  21.534  0.00  0.00    +0.000 A 
ATOM     21  C   UNL     1       1.513   8.279  20.232  0.00  0.00    +0.000 A 
ATOM     22  C   UNL     1       2.210   7.134  19.808  0.00  0.00    +0.000 A 
ENDBRANCH  12  13
ENDBRANCH   3  12
TORSDOF 4
ENDMDL
