MODEL 1
REMARK VINA RESULT:      -8.9      0.000      0.000
REMARK  Name = 
REMARK  6 active torsions:
REMARK  status: ('A' for Active; 'I' for Inactive)
REMARK    1  A    between atoms: C_2  and  C_3
REMARK    2  A    between atoms: C_2  and  C_23
REMARK    3  A    between atoms: C_4  and  O_5
REMARK    4  A    between atoms: N_8  and  C_9
REMARK    5  A    between atoms: C_9  and  C_10
REMARK    6  A    between atoms: C_16  and  C_17
REMARK                            x       y       z     vdW  Elec       q    Type
REMARK                         _______ _______ _______ _____ _____    ______ ____
ROOT
ATOM      1  C   UNL     1       5.666   5.606  17.099  0.00  0.00    +0.000 C 
ATOM      2  C   UNL     1       4.965   6.574  16.501  0.00  0.00    +0.000 C 
ATOM      3  C   UNL     1       3.896   6.980  17.453  0.00  0.00    +0.000 C 
ATOM      4  O   UNL     1       3.116   7.900  17.285  0.00  0.00    +0.000 OA
ATOM      5  N   UNL     1       3.992   6.139  18.544  0.00  0.00    +0.000 N 
ATOM      6  C   UNL     1       5.086   5.206  18.421  0.00  0.00    +0.000 C 
ENDROOT
BRANCH   6   7
ATOM      7  C   UNL     1       4.633   3.752  18.517  0.00  0.00    +0.000 A 
ATOM      8  C   UNL     1       3.931   3.100  17.492  0.00  0.00    +0.000 A 
ATOM      9  C   UNL     1       3.568   1.771  17.663  0.00  0.00    +0.000 A 
ATOM     10  N   UNL     1       3.827   1.060  18.779  0.00  0.00    +0.000 NA
ATOM     11  C   UNL     1       4.484   1.699  19.766  0.00  0.00    +0.000 A 
ATOM     12  C   UNL     1       4.909   3.016  19.679  0.00  0.00    +0.000 A 
ENDBRANCH   6   7
BRANCH   1  14
ATOM     13  O   UNL     1       7.766   4.613  17.266  0.00  0.00    +0.000 OA
ATOM     14  C   UNL     1       6.839   4.907  16.515  0.00  0.00    +0.000 C 
BRANCH  14  15
ATOM     15  C   UNL     1       6.847   4.655  15.085  0.00  0.00    +0.000 A 
ATOM     16  C   UNL     1       6.158   3.746  14.303  0.00  0.00    +0.000 A 
ATOM     17  C   UNL     1       6.600   3.940  12.965  0.00  0.00    +0.000 A 
ATOM     18  C   UNL     1       7.515   4.956  13.008  0.00  0.00    +0.000 A 
ATOM     19  O   UNL     1       7.662   5.406  14.280  0.00  0.00    +0.000 OA
ENDBRANCH  14  15
ENDBRANCH   1  14
BRANCH   2  20
ATOM     20  O   UNL     1       5.129   7.147  15.267  0.00  0.00    +0.000 OA
ATOM     21  H   UNL     1       6.082   7.286  15.104  0.00  0.00    +0.000 HD
ENDBRANCH   2  20
BRANCH   5  22
ATOM     22  C   UNL     1       3.188   6.242  19.747  0.00  0.00    +0.000 C 
BRANCH  22  23
ATOM     23  C   UNL     1       2.289   5.061  20.020  0.00  0.00    +0.000 A 
ATOM     24  C   UNL     1       1.461   4.566  19.002  0.00  0.00    +0.000 A 
ATOM     25  C   UNL     1       0.693   3.420  19.201  0.00  0.00    +0.000 A 
ATOM     26  C   UNL     1       0.747   2.749  20.420  0.00  0.00    +0.000 A 
ATOM     27  C   UNL     1       1.553   3.239  21.447  0.00  0.00    +0.000 A 
ATOM     28  C   UNL     1       2.311   4.398  21.255  0.00  0.00    +0.000 A 
ENDBRANCH  22  23
ENDBRANCH   5  22
TORSDOF 6
ENDMDL
MODEL 2
REMARK VINA RESULT:      -8.6      0.188      1.304
REMARK  Name = 
REMARK  6 active torsions:
REMARK  status: ('A' for Active; 'I' for Inactive)
REMARK    1  A    between atoms: C_2  and  C_3
REMARK    2  A    between atoms: C_2  and  C_23
REMARK    3  A    between atoms: C_4  and  O_5
REMARK    4  A    between atoms: N_8  and  C_9
REMARK    5  A    between atoms: C_9  and  C_10
REMARK    6  A    between atoms: C_16  and  C_17
REMARK                            x       y       z     vdW  Elec       q    Type
REMARK                         _______ _______ _______ _____ _____    ______ ____
ROOT
ATOM      1  C   UNL     1       5.632   5.663  17.123  0.00  0.00    +0.000 C 
ATOM      2  C   UNL     1       4.928   6.625  16.518  0.00  0.00    +0.000 C 
ATOM      3  C   UNL     1       3.843   7.018  17.456  0.00  0.00    +0.000 C 
ATOM      4  O   UNL     1       3.055   7.930  17.280  0.00  0.00    +0.000 OA
ATOM      5  N   UNL     1       3.934   6.175  18.546  0.00  0.00    +0.000 N 
ATOM      6  C   UNL     1       5.039   5.254  18.436  0.00  0.00    +0.000 C 
ENDROOT
BRANCH   6   7
ATOM      7  C   UNL     1       4.600   3.795  18.522  0.00  0.00    +0.000 A 
ATOM      8  C   UNL     1       4.913   2.964  19.607  0.00  0.00    +0.000 A 
ATOM      9  C   UNL     1       4.461   1.652  19.604  0.00  0.00    +0.000 A 
ATOM     10  N   UNL     1       3.750   1.104  18.598  0.00  0.00    +0.000 NA
ATOM     11  C   UNL     1       3.470   1.904  17.551  0.00  0.00    +0.000 A 
ATOM     12  C   UNL     1       3.856   3.233  17.473  0.00  0.00    +0.000 A 
ENDBRANCH   6   7
BRANCH   1  14
ATOM     13  O   UNL     1       7.756   4.726  17.308  0.00  0.00    +0.000 OA
ATOM     14  C   UNL     1       6.820   4.979  16.552  0.00  0.00    +0.000 C 
BRANCH  14  15
ATOM     15  C   UNL     1       6.832   4.692  15.129  0.00  0.00    +0.000 A 
ATOM     16  C   UNL     1       6.138   3.769  14.368  0.00  0.00    +0.000 A 
ATOM     17  C   UNL     1       6.586   3.927  13.027  0.00  0.00    +0.000 A 
ATOM     18  C   UNL     1       7.508   4.936  13.048  0.00  0.00    +0.000 A 
ATOM     19  O   UNL     1       7.654   5.416  14.309  0.00  0.00    +0.000 OA
ENDBRANCH  14  15
ENDBRANCH   1  14
BRANCH   2  20
ATOM     20  O   UNL     1       5.103   7.203  15.287  0.00  0.00    +0.000 OA
ATOM     21  H   UNL     1       4.727   6.615  14.603  0.00  0.00    +0.000 HD
ENDBRANCH   2  20
BRANCH   5  22
ATOM     22  C   UNL     1       3.112   6.266  19.739  0.00  0.00    +0.000 C 
BRANCH  22  23
ATOM     23  C   UNL     1       2.364   5.006  20.099  0.00  0.00    +0.000 A 
ATOM     24  C   UNL     1       2.561   4.413  21.355  0.00  0.00    +0.000 A 
ATOM     25  C   UNL     1       1.812   3.305  21.745  0.00  0.00    +0.000 A 
ATOM     26  C   UNL     1       0.851   2.776  20.888  0.00  0.00    +0.000 A 
ATOM     27  C   UNL     1       0.656   3.344  19.630  0.00  0.00    +0.000 A 
ATOM     28  C   UNL     1       1.417   4.446  19.229  0.00  0.00    +0.000 A 
ENDBRANCH  22  23
ENDBRANCH   5  22
TORSDOF 6
ENDMDL
MODEL 3
REMARK VINA RESULT:      -8.2      0.570      1.168
REMARK  Name = 
REMARK  6 active torsions:
REMARK  status: ('A' for Active; 'I' for Inactive)
REMARK    1  A    between atoms: C_2  and  C_3
REMARK    2  A    between atoms: C_2  and  C_23
REMARK    3  A    between atoms: C_4  and  O_5
REMARK    4  A    between atoms: N_8  and  C_9
REMARK    5  A    between atoms: C_9  and  C_10
REMARK    6  A    between atoms: C_16  and  C_17
REMARK                            x       y       z     vdW  Elec       q    Type
REMARK                         _______ _______ _______ _____ _____    ______ ____
ROOT
ATOM      1  C   UNL     1       5.635   5.602  17.068  0.00  0.00    +0.000 C 
ATOM      2  C   UNL     1       4.917   6.560  16.473  0.00  0.00    +0.000 C 
ATOM      3  C   UNL     1       3.868   6.975  17.442  0.00  0.00    +0.000 C 
ATOM      4  O   UNL     1       3.081   7.890  17.280  0.00  0.00    +0.000 OA
ATOM      5  N   UNL     1       3.991   6.148  18.542  0.00  0.00    +0.000 N 
ATOM      6  C   UNL     1       5.086   5.217  18.407  0.00  0.00    +0.000 C 
ENDROOT
BRANCH   6   7
ATOM      7  C   UNL     1       4.640   3.763  18.531  0.00  0.00    +0.000 A 
ATOM      8  C   UNL     1       4.927   2.968  19.650  0.00  0.00    +0.000 A 
ATOM      9  C   UNL     1       4.471   1.657  19.680  0.00  0.00    +0.000 A 
ATOM     10  N   UNL     1       3.779   1.079  18.677  0.00  0.00    +0.000 NA
ATOM     11  C   UNL     1       3.524   1.845  17.598  0.00  0.00    +0.000 A 
ATOM     12  C   UNL     1       3.917   3.169  17.486  0.00  0.00    +0.000 A 
ENDBRANCH   6   7
BRANCH   1  14
ATOM     13  O   UNL     1       7.760   4.657  17.192  0.00  0.00    +0.000 OA
ATOM     14  C   UNL     1       6.798   4.900  16.467  0.00  0.00    +0.000 C 
BRANCH  14  15
ATOM     15  C   UNL     1       6.753   4.584  15.050  0.00  0.00    +0.000 A 
ATOM     16  C   UNL     1       7.500   5.040  13.978  0.00  0.00    +0.000 A 
ATOM     17  C   UNL     1       6.981   4.400  12.819  0.00  0.00    +0.000 A 
ATOM     18  C   UNL     1       5.968   3.590  13.250  0.00  0.00    +0.000 A 
ATOM     19  O   UNL     1       5.830   3.681  14.597  0.00  0.00    +0.000 OA
ENDBRANCH  14  15
ENDBRANCH   1  14
BRANCH   2  20
ATOM     20  O   UNL     1       5.052   7.117  15.228  0.00  0.00    +0.000 OA
ATOM     21  H   UNL     1       6.000   7.259  15.043  0.00  0.00    +0.000 HD
ENDBRANCH   2  20
BRANCH   5  22
ATOM     22  C   UNL     1       3.213   6.264  19.761  0.00  0.00    +0.000 C 
BRANCH  22  23
ATOM     23  C   UNL     1       2.327   5.082  20.070  0.00  0.00    +0.000 A 
ATOM     24  C   UNL     1       1.457   4.588  19.087  0.00  0.00    +0.000 A 
ATOM     25  C   UNL     1       0.699   3.441  19.318  0.00  0.00    +0.000 A 
ATOM     26  C   UNL     1       0.805   2.769  20.532  0.00  0.00    +0.000 A 
ATOM     27  C   UNL     1       1.652   3.258  21.525  0.00  0.00    +0.000 A 
ATOM     28  C   UNL     1       2.401   4.418  21.302  0.00  0.00    +0.000 A 
ENDBRANCH  22  23
ENDBRANCH   5  22
TORSDOF 6
ENDMDL
MODEL 4
REMARK VINA RESULT:      -7.0      1.491      6.098
REMARK  Name = 
REMARK  6 active torsions:
REMARK  status: ('A' for Active; 'I' for Inactive)
REMARK    1  A    between atoms: C_2  and  C_3
REMARK    2  A    between atoms: C_2  and  C_23
REMARK    3  A    between atoms: C_4  and  O_5
REMARK    4  A    between atoms: N_8  and  C_9
REMARK    5  A    between atoms: C_9  and  C_10
REMARK    6  A    between atoms: C_16  and  C_17
REMARK                            x       y       z     vdW  Elec       q    Type
REMARK                         _______ _______ _______ _____ _____    ______ ____
ROOT
ATOM      1  C   UNL     1       3.648   5.903  17.469  0.00  0.00    +0.000 C 
ATOM      2  C   UNL     1       4.492   6.938  17.512  0.00  0.00    +0.000 C 
ATOM      3  C   UNL     1       5.788   6.460  16.963  0.00  0.00    +0.000 C 
ATOM      4  O   UNL     1       6.770   7.154  16.766  0.00  0.00    +0.000 OA
ATOM      5  N   UNL     1       5.639   5.112  16.705  0.00  0.00    +0.000 N 
ATOM      6  C   UNL     1       4.308   4.641  17.004  0.00  0.00    +0.000 C 
ENDROOT
BRANCH   6   7
ATOM      7  C   UNL     1       4.301   3.496  18.012  0.00  0.00    +0.000 A 
ATOM      8  C   UNL     1       4.871   3.598  19.289  0.00  0.00    +0.000 A 
ATOM      9  C   UNL     1       4.808   2.507  20.145  0.00  0.00    +0.000 A 
ATOM     10  N   UNL     1       4.248   1.326  19.817  0.00  0.00    +0.000 NA
ATOM     11  C   UNL     1       3.719   1.230  18.581  0.00  0.00    +0.000 A 
ATOM     12  C   UNL     1       3.712   2.271  17.665  0.00  0.00    +0.000 A 
ENDBRANCH   6   7
BRANCH   1  14
ATOM     13  O   UNL     1       1.469   6.717  17.357  0.00  0.00    +0.000 OA
ATOM     14  C   UNL     1       2.231   5.928  17.912  0.00  0.00    +0.000 C 
BRANCH  14  15
ATOM     15  C   UNL     1       1.836   5.058  19.005  0.00  0.00    +0.000 A 
ATOM     16  C   UNL     1       2.046   5.137  20.370  0.00  0.00    +0.000 A 
ATOM     17  C   UNL     1       1.456   3.975  20.941  0.00  0.00    +0.000 A 
ATOM     18  C   UNL     1       0.915   3.270  19.901  0.00  0.00    +0.000 A 
ATOM     19  O   UNL     1       1.126   3.921  18.729  0.00  0.00    +0.000 OA
ENDBRANCH  14  15
ENDBRANCH   1  14
BRANCH   2  20
ATOM     20  O   UNL     1       4.290   8.221  17.951  0.00  0.00    +0.000 OA
ATOM     21  H   UNL     1       4.676   8.318  18.842  0.00  0.00    +0.000 HD
ENDBRANCH   2  20
BRANCH   5  22
ATOM     22  C   UNL     1       6.642   4.267  16.082  0.00  0.00    +0.000 C 
BRANCH  22  23
ATOM     23  C   UNL     1       6.679   4.323  14.575  0.00  0.00    +0.000 A 
ATOM     24  C   UNL     1       7.596   5.167  13.931  0.00  0.00    +0.000 A 
ATOM     25  C   UNL     1       7.714   5.165  12.542  0.00  0.00    +0.000 A 
ATOM     26  C   UNL     1       6.920   4.314  11.777  0.00  0.00    +0.000 A 
ATOM     27  C   UNL     1       5.992   3.481  12.402  0.00  0.00    +0.000 A 
ATOM     28  C   UNL     1       5.861   3.494  13.794  0.00  0.00    +0.000 A 
ENDBRANCH  22  23
ENDBRANCH   5  22
TORSDOF 6
ENDMDL
MODEL 5
REMARK VINA RESULT:      -6.9      8.220     10.864
REMARK  Name = 
REMARK  6 active torsions:
REMARK  status: ('A' for Active; 'I' for Inactive)
REMARK    1  A    between atoms: C_2  and  C_3
REMARK    2  A    between atoms: C_2  and  C_23
REMARK    3  A    between atoms: C_4  and  O_5
REMARK    4  A    between atoms: N_8  and  C_9
REMARK    5  A    between atoms: C_9  and  C_10
REMARK    6  A    between atoms: C_16  and  C_17
REMARK                            x       y       z     vdW  Elec       q    Type
REMARK                         _______ _______ _______ _____ _____    ______ ____
ROOT
ATOM      1  C   UNL     1      -0.513  10.581  20.202  0.00  0.00    +0.000 C 
ATOM      2  C   UNL     1      -0.108   9.785  21.197  0.00  0.00    +0.000 C 
ATOM      3  C   UNL     1      -0.284  10.552  22.459  0.00  0.00    +0.000 C 
ATOM      4  O   UNL     1      -0.100  10.115  23.581  0.00  0.00    +0.000 OA
ATOM      5  N   UNL     1      -0.714  11.815  22.102  0.00  0.00    +0.000 N 
ATOM      6  C   UNL     1      -0.884  11.953  20.675  0.00  0.00    +0.000 C 
ENDROOT
BRANCH   6   7
ATOM      7  C   UNL     1      -0.049  13.087  20.090  0.00  0.00    +0.000 A 
ATOM      8  C   UNL     1       1.351  13.123  20.161  0.00  0.00    +0.000 A 
ATOM      9  C   UNL     1       2.029  14.191  19.590  0.00  0.00    +0.000 A 
ATOM     10  N   UNL     1       1.419  15.229  18.982  0.00  0.00    +0.000 NA
ATOM     11  C   UNL     1       0.073  15.197  18.935  0.00  0.00    +0.000 A 
ATOM     12  C   UNL     1      -0.689  14.163  19.455  0.00  0.00    +0.000 A 
ENDBRANCH   6   7
BRANCH   1  14
ATOM     13  O   UNL     1       0.513   9.767  18.277  0.00  0.00    +0.000 OA
ATOM     14  C   UNL     1      -0.522  10.220  18.762  0.00  0.00    +0.000 C 
BRANCH  14  15
ATOM     15  C   UNL     1      -1.731  10.467  17.998  0.00  0.00    +0.000 A 
ATOM     16  C   UNL     1      -2.116  11.526  17.194  0.00  0.00    +0.000 A 
ATOM     17  C   UNL     1      -3.429  11.231  16.733  0.00  0.00    +0.000 A 
ATOM     18  C   UNL     1      -3.758  10.016  17.267  0.00  0.00    +0.000 A 
ATOM     19  O   UNL     1      -2.736   9.538  18.020  0.00  0.00    +0.000 OA
ENDBRANCH  14  15
ENDBRANCH   1  14
BRANCH   2  20
ATOM     20  O   UNL     1       0.378   8.504  21.159  0.00  0.00    +0.000 OA
ATOM     21  H   UNL     1       0.831   8.361  20.306  0.00  0.00    +0.000 HD
ENDBRANCH   2  20
BRANCH   5  22
ATOM     22  C   UNL     1      -1.086  12.862  23.035  0.00  0.00    +0.000 C 
BRANCH  22  23
ATOM     23  C   UNL     1      -2.559  13.183  23.085  0.00  0.00    +0.000 A 
ATOM     24  C   UNL     1      -3.418  12.396  23.866  0.00  0.00    +0.000 A 
ATOM     25  C   UNL     1      -4.764  12.729  24.002  0.00  0.00    +0.000 A 
ATOM     26  C   UNL     1      -5.271  13.857  23.362  0.00  0.00    +0.000 A 
ATOM     27  C   UNL     1      -4.433  14.639  22.567  0.00  0.00    +0.000 A 
ATOM     28  C   UNL     1      -3.086  14.298  22.417  0.00  0.00    +0.000 A 
ENDBRANCH  22  23
ENDBRANCH   5  22
TORSDOF 6
ENDMDL
MODEL 6
REMARK VINA RESULT:      -6.8      1.459      6.084
REMARK  Name = 
REMARK  6 active torsions:
REMARK  status: ('A' for Active; 'I' for Inactive)
REMARK    1  A    between atoms: C_2  and  C_3
REMARK    2  A    between atoms: C_2  and  C_23
REMARK    3  A    between atoms: C_4  and  O_5
REMARK    4  A    between atoms: N_8  and  C_9
REMARK    5  A    between atoms: C_9  and  C_10
REMARK    6  A    between atoms: C_16  and  C_17
REMARK                            x       y       z     vdW  Elec       q    Type
REMARK                         _______ _______ _______ _____ _____    ______ ____
ROOT
ATOM      1  C   UNL     1       3.287   5.370  17.475  0.00  0.00    +0.000 C 
ATOM      2  C   UNL     1       3.916   6.550  17.465  0.00  0.00    +0.000 C 
ATOM      3  C   UNL     1       5.283   6.303  16.934  0.00  0.00    +0.000 C 
ATOM      4  O   UNL     1       6.114   7.163  16.700  0.00  0.00    +0.000 OA
ATOM      5  N   UNL     1       5.397   4.941  16.742  0.00  0.00    +0.000 N 
ATOM      6  C   UNL     1       4.180   4.238  17.069  0.00  0.00    +0.000 C 
ENDROOT
BRANCH   6   7
ATOM      7  C   UNL     1       4.388   3.164  18.133  0.00  0.00    +0.000 A 
ATOM      8  C   UNL     1       3.973   1.834  17.969  0.00  0.00    +0.000 A 
ATOM      9  C   UNL     1       4.215   0.922  18.988  0.00  0.00    +0.000 A 
ATOM     10  N   UNL     1       4.809   1.241  20.155  0.00  0.00    +0.000 NA
ATOM     11  C   UNL     1       5.187   2.524  20.312  0.00  0.00    +0.000 A 
ATOM     12  C   UNL     1       5.011   3.501  19.344  0.00  0.00    +0.000 A 
ENDBRANCH   6   7
BRANCH   1  14
ATOM     13  O   UNL     1       0.983   5.594  17.224  0.00  0.00    +0.000 OA
ATOM     14  C   UNL     1       1.889   5.145  17.922  0.00  0.00    +0.000 C 
BRANCH  14  15
ATOM     15  C   UNL     1       1.673   4.450  19.179  0.00  0.00    +0.000 A 
ATOM     16  C   UNL     1       0.954   3.310  19.492  0.00  0.00    +0.000 A 
ATOM     17  C   UNL     1       1.075   3.126  20.897  0.00  0.00    +0.000 A 
ATOM     18  C   UNL     1       1.864   4.147  21.351  0.00  0.00    +0.000 A 
ATOM     19  O   UNL     1       2.243   4.945  20.320  0.00  0.00    +0.000 OA
ENDBRANCH  14  15
ENDBRANCH   1  14
BRANCH   2  20
ATOM     20  O   UNL     1       3.468   7.790  17.841  0.00  0.00    +0.000 OA
ATOM     21  H   UNL     1       4.226   8.404  17.879  0.00  0.00    +0.000 HD
ENDBRANCH   2  20
BRANCH   5  22
ATOM     22  C   UNL     1       6.547   4.276  16.157  0.00  0.00    +0.000 C 
BRANCH  22  23
ATOM     23  C   UNL     1       6.617   4.322  14.651  0.00  0.00    +0.000 A 
ATOM     24  C   UNL     1       7.528   5.182  14.021  0.00  0.00    +0.000 A 
ATOM     25  C   UNL     1       7.677   5.173  12.636  0.00  0.00    +0.000 A 
ATOM     26  C   UNL     1       6.918   4.301  11.860  0.00  0.00    +0.000 A 
ATOM     27  C   UNL     1       5.995   3.453  12.470  0.00  0.00    +0.000 A 
ATOM     28  C   UNL     1       5.834   3.471  13.858  0.00  0.00    +0.000 A 
ENDBRANCH  22  23
ENDBRANCH   5  22
TORSDOF 6
ENDMDL
MODEL 7
REMARK VINA RESULT:      -6.8      8.184     10.750
REMARK  Name = 
REMARK  6 active torsions:
REMARK  status: ('A' for Active; 'I' for Inactive)
REMARK    1  A    between atoms: C_2  and  C_3
REMARK    2  A    between atoms: C_2  and  C_23
REMARK    3  A    between atoms: C_4  and  O_5
REMARK    4  A    between atoms: N_8  and  C_9
REMARK    5  A    between atoms: C_9  and  C_10
REMARK    6  A    between atoms: C_16  and  C_17
REMARK                            x       y       z     vdW  Elec       q    Type
REMARK                         _______ _______ _______ _____ _____    ______ ____
ROOT
ATOM      1  C   UNL     1      -0.453  10.597  20.170  0.00  0.00    +0.000 C 
ATOM      2  C   UNL     1      -0.066   9.799  21.170  0.00  0.00    +0.000 C 
ATOM      3  C   UNL     1      -0.266  10.562  22.430  0.00  0.00    +0.000 C 
ATOM      4  O   UNL     1      -0.104  10.122  23.554  0.00  0.00    +0.000 OA
ATOM      5  N   UNL     1      -0.690  11.825  22.069  0.00  0.00    +0.000 N 
ATOM      6  C   UNL     1      -0.834  11.968  20.640  0.00  0.00    +0.000 C 
ENDROOT
BRANCH   6   7
ATOM      7  C   UNL     1       0.011  13.105  20.074  0.00  0.00    +0.000 A 
ATOM      8  C   UNL     1      -0.538  14.203  19.397  0.00  0.00    +0.000 A 
ATOM      9  C   UNL     1       0.309  15.197  18.926  0.00  0.00    +0.000 A 
ATOM     10  N   UNL     1       1.650  15.165  19.055  0.00  0.00    +0.000 NA
ATOM     11  C   UNL     1       2.171  14.097  19.689  0.00  0.00    +0.000 A 
ATOM     12  C   UNL     1       1.407  13.067  20.216  0.00  0.00    +0.000 A 
ENDBRANCH   6   7
BRANCH   1  14
ATOM     13  O   UNL     1       0.620   9.821  18.254  0.00  0.00    +0.000 OA
ATOM     14  C   UNL     1      -0.433  10.241  18.728  0.00  0.00    +0.000 C 
BRANCH  14  15
ATOM     15  C   UNL     1      -1.641  10.454  17.951  0.00  0.00    +0.000 A 
ATOM     16  C   UNL     1      -2.708  11.319  18.120  0.00  0.00    +0.000 A 
ATOM     17  C   UNL     1      -3.619  11.055  17.060  0.00  0.00    +0.000 A 
ATOM     18  C   UNL     1      -3.053  10.063  16.307  0.00  0.00    +0.000 A 
ATOM     19  O   UNL     1      -1.852   9.703  16.827  0.00  0.00    +0.000 OA
ENDBRANCH  14  15
ENDBRANCH   1  14
BRANCH   2  20
ATOM     20  O   UNL     1       0.422   8.519  21.136  0.00  0.00    +0.000 OA
ATOM     21  H   UNL     1      -0.058   8.012  20.453  0.00  0.00    +0.000 HD
ENDBRANCH   2  20
BRANCH   5  22
ATOM     22  C   UNL     1      -1.081  12.869  22.998  0.00  0.00    +0.000 C 
BRANCH  22  23
ATOM     23  C   UNL     1      -2.561  13.159  23.051  0.00  0.00    +0.000 A 
ATOM     24  C   UNL     1      -3.392  12.395  23.883  0.00  0.00    +0.000 A 
ATOM     25  C   UNL     1      -4.744  12.704  24.019  0.00  0.00    +0.000 A 
ATOM     26  C   UNL     1      -5.283  13.787  23.330  0.00  0.00    +0.000 A 
ATOM     27  C   UNL     1      -4.474  14.546  22.486  0.00  0.00    +0.000 A 
ATOM     28  C   UNL     1      -3.121  14.227  22.335  0.00  0.00    +0.000 A 
ENDBRANCH  22  23
ENDBRANCH   5  22
TORSDOF 6
ENDMDL
MODEL 8
REMARK VINA RESULT:      -6.7      8.206     10.750
REMARK  Name = 
REMARK  6 active torsions:
REMARK  status: ('A' for Active; 'I' for Inactive)
REMARK    1  A    between atoms: C_2  and  C_3
REMARK    2  A    between atoms: C_2  and  C_23
REMARK    3  A    between atoms: C_4  and  O_5
REMARK    4  A    between atoms: N_8  and  C_9
REMARK    5  A    between atoms: C_9  and  C_10
REMARK    6  A    between atoms: C_16  and  C_17
REMARK                            x       y       z     vdW  Elec       q    Type
REMARK                         _______ _______ _______ _____ _____    ______ ____
ROOT
ATOM      1  C   UNL     1      -0.435  10.670  20.118  0.00  0.00    +0.000 C 
ATOM      2  C   UNL     1      -0.109   9.868  21.137  0.00  0.00    +0.000 C 
ATOM      3  C   UNL     1      -0.312  10.654  22.383  0.00  0.00    +0.000 C 
ATOM      4  O   UNL     1      -0.199  10.220  23.516  0.00  0.00    +0.000 OA
ATOM      5  N   UNL     1      -0.673  11.929  21.997  0.00  0.00    +0.000 N 
ATOM      6  C   UNL     1      -0.771  12.060  20.563  0.00  0.00    +0.000 C 
ENDROOT
BRANCH   6   7
ATOM      7  C   UNL     1       0.136  13.155  20.008  0.00  0.00    +0.000 A 
ATOM      8  C   UNL     1       1.533  13.123  20.123  0.00  0.00    +0.000 A 
ATOM      9  C   UNL     1       2.278  14.159  19.578  0.00  0.00    +0.000 A 
ATOM     10  N   UNL     1       1.739  15.227  18.957  0.00  0.00    +0.000 NA
ATOM     11  C   UNL     1       0.395  15.259  18.868  0.00  0.00    +0.000 A 
ATOM     12  C   UNL     1      -0.433  14.262  19.359  0.00  0.00    +0.000 A 
ENDBRANCH   6   7
BRANCH   1  14
ATOM     13  O   UNL     1       0.666   9.856  18.234  0.00  0.00    +0.000 OA
ATOM     14  C   UNL     1      -0.391  10.296  18.681  0.00  0.00    +0.000 C 
BRANCH  14  15
ATOM     15  C   UNL     1      -1.579  10.517  17.876  0.00  0.00    +0.000 A 
ATOM     16  C   UNL     1      -2.557  11.494  17.922  0.00  0.00    +0.000 A 
ATOM     17  C   UNL     1      -3.498  11.177  16.904  0.00  0.00    +0.000 A 
ATOM     18  C   UNL     1      -3.036  10.042  16.295  0.00  0.00    +0.000 A 
ATOM     19  O   UNL     1      -1.870   9.643  16.864  0.00  0.00    +0.000 OA
ENDBRANCH  14  15
ENDBRANCH   1  14
BRANCH   2  20
ATOM     20  O   UNL     1       0.326   8.569  21.130  0.00  0.00    +0.000 OA
ATOM     21  H   UNL     1      -0.437   7.977  20.985  0.00  0.00    +0.000 HD
ENDBRANCH   2  20
BRANCH   5  22
ATOM     22  C   UNL     1      -1.046  12.999  22.904  0.00  0.00    +0.000 C 
BRANCH  22  23
ATOM     23  C   UNL     1      -2.523  13.298  22.970  0.00  0.00    +0.000 A 
ATOM     24  C   UNL     1      -3.068  14.303  22.158  0.00  0.00    +0.000 A 
ATOM     25  C   UNL     1      -4.443  14.532  22.133  0.00  0.00    +0.000 A 
ATOM     26  C   UNL     1      -5.293  13.755  22.915  0.00  0.00    +0.000 A 
ATOM     27  C   UNL     1      -4.764  12.764  23.741  0.00  0.00    +0.000 A 
ATOM     28  C   UNL     1      -3.384  12.543  23.780  0.00  0.00    +0.000 A 
ENDBRANCH  22  23
ENDBRANCH   5  22
TORSDOF 6
ENDMDL
MODEL 9
REMARK VINA RESULT:      -6.7      3.330      5.701
REMARK  Name = 
REMARK  6 active torsions:
REMARK  status: ('A' for Active; 'I' for Inactive)
REMARK    1  A    between atoms: C_2  and  C_3
REMARK    2  A    between atoms: C_2  and  C_23
REMARK    3  A    between atoms: C_4  and  O_5
REMARK    4  A    between atoms: N_8  and  C_9
REMARK    5  A    between atoms: C_9  and  C_10
REMARK    6  A    between atoms: C_16  and  C_17
REMARK                            x       y       z     vdW  Elec       q    Type
REMARK                         _______ _______ _______ _____ _____    ______ ____
ROOT
ATOM      1  C   UNL     1       2.179   5.158  18.705  0.00  0.00    +0.000 C 
ATOM      2  C   UNL     1       1.763   5.443  19.943  0.00  0.00    +0.000 C 
ATOM      3  C   UNL     1       1.834   6.921  20.090  0.00  0.00    +0.000 C 
ATOM      4  O   UNL     1       1.450   7.552  21.058  0.00  0.00    +0.000 OA
ATOM      5  N   UNL     1       2.384   7.412  18.923  0.00  0.00    +0.000 N 
ATOM      6  C   UNL     1       2.658   6.368  17.965  0.00  0.00    +0.000 C 
ENDROOT
BRANCH   6   7
ATOM      7  C   UNL     1       4.123   6.330  17.539  0.00  0.00    +0.000 A 
ATOM      8  C   UNL     1       5.166   5.999  18.416  0.00  0.00    +0.000 A 
ATOM      9  C   UNL     1       6.469   5.980  17.937  0.00  0.00    +0.000 A 
ATOM     10  N   UNL     1       6.808   6.288  16.669  0.00  0.00    +0.000 NA
ATOM     11  C   UNL     1       5.801   6.623  15.838  0.00  0.00    +0.000 A 
ATOM     12  C   UNL     1       4.468   6.648  16.216  0.00  0.00    +0.000 A 
ENDBRANCH   6   7
BRANCH   1  14
ATOM     13  O   UNL     1       1.529   3.530  17.171  0.00  0.00    +0.000 OA
ATOM     14  C   UNL     1       2.265   3.796  18.119  0.00  0.00    +0.000 C 
BRANCH  14  15
ATOM     15  C   UNL     1       3.175   2.842  18.727  0.00  0.00    +0.000 A 
ATOM     16  C   UNL     1       3.568   1.570  18.349  0.00  0.00    +0.000 A 
ATOM     17  C   UNL     1       4.457   1.102  19.356  0.00  0.00    +0.000 A 
ATOM     18  C   UNL     1       4.562   2.111  20.273  0.00  0.00    +0.000 A 
ATOM     19  O   UNL     1       3.805   3.172  19.896  0.00  0.00    +0.000 OA
ENDBRANCH  14  15
ENDBRANCH   1  14
BRANCH   2  20
ATOM     20  O   UNL     1       1.332   4.608  20.941  0.00  0.00    +0.000 OA
ATOM     21  H   UNL     1       1.093   3.744  20.554  0.00  0.00    +0.000 HD
ENDBRANCH   2  20
BRANCH   5  22
ATOM     22  C   UNL     1       2.556   8.819  18.612  0.00  0.00    +0.000 C 
BRANCH  22  23
ATOM     23  C   UNL     1       1.285   9.631  18.590  0.00  0.00    +0.000 A 
ATOM     24  C   UNL     1       0.266   9.307  17.682  0.00  0.00    +0.000 A 
ATOM     25  C   UNL     1      -0.953   9.982  17.708  0.00  0.00    +0.000 A 
ATOM     26  C   UNL     1      -1.173  10.987  18.646  0.00  0.00    +0.000 A 
ATOM     27  C   UNL     1      -0.163  11.332  19.543  0.00  0.00    +0.000 A 
ATOM     28  C   UNL     1       1.066  10.668  19.509  0.00  0.00    +0.000 A 
ENDBRANCH  22  23
ENDBRANCH   5  22
TORSDOF 6
ENDMDL
