MODEL 1
REMARK VINA RESULT:      -7.9      0.000      0.000
REMARK  Name = 
REMARK  9 active torsions:
REMARK  status: ('A' for Active; 'I' for Inactive)
REMARK    1  A    between atoms: C_1  and  O_2
REMARK    2  A    between atoms: O_2  and  C_3
REMARK    3  A    between atoms: C_3  and  C_5
REMARK    4  A    between atoms: C_5  and  C_6
REMARK    5  A    between atoms: C_5  and  C_9
REMARK    6  A    between atoms: C_6  and  C_7
REMARK    7  A    between atoms: N_12  and  S_13
REMARK    8  A    between atoms: S_13  and  C_16
REMARK    9  A    between atoms: C_19  and  C_20
REMARK                            x       y       z     vdW  Elec       q    Type
REMARK                         _______ _______ _______ _____ _____    ______ ____
ROOT
ATOM      1  C   UNL     1       4.876   5.423  18.146  0.00  0.00    +0.000 C 
ATOM      2  C   UNL     1       4.074   6.440  18.497  0.00  0.00    +0.000 C 
ATOM      3  C   UNL     1       2.753   6.255  19.208  0.00  0.00    +0.000 C 
ATOM      4  N   UNL     1       1.767   7.106  19.221  0.00  0.00    +0.000 NA
ATOM      5  C   UNL     1       2.581   4.934  19.876  0.00  0.00    +0.000 A 
ATOM      6  C   UNL     1       1.455   4.688  20.678  0.00  0.00    +0.000 A 
ATOM      7  C   UNL     1       1.309   3.460  21.332  0.00  0.00    +0.000 A 
ATOM      8  C   UNL     1       2.274   2.467  21.177  0.00  0.00    +0.000 A 
ATOM      9  C   UNL     1       3.378   2.694  20.356  0.00  0.00    +0.000 A 
ATOM     10  C   UNL     1       3.530   3.927  19.700  0.00  0.00    +0.000 A 
ATOM     11  C   UNL     1       4.706   4.132  18.827  0.00  0.00    +0.000 C 
ATOM     12  O   UNL     1       5.569   3.261  18.728  0.00  0.00    +0.000 OA
ENDROOT
BRANCH   4  13
ATOM     13  S   UNL     1       1.830   8.481  18.353  0.00  0.00    +0.000 S 
ATOM     14  O   UNL     1       3.223   8.799  18.092  0.00  0.00    +0.000 OA
ATOM     15  O   UNL     1       0.894   8.373  17.244  0.00  0.00    +0.000 OA
BRANCH  13  16
ATOM     16  C   UNL     1       1.207   9.771  19.403  0.00  0.00    +0.000 A 
ATOM     17  C   UNL     1       0.793   9.483  20.707  0.00  0.00    +0.000 A 
ATOM     18  C   UNL     1       0.324  10.515  21.524  0.00  0.00    +0.000 A 
ATOM     19  C   UNL     1       0.277  11.833  21.045  0.00  0.00    +0.000 A 
ATOM     20  C   UNL     1      -0.243  12.945  21.911  0.00  0.00    +0.000 C 
ATOM     21  C   UNL     1       0.714  12.109  19.746  0.00  0.00    +0.000 A 
ATOM     22  C   UNL     1       1.186  11.080  18.923  0.00  0.00    +0.000 A 
ENDBRANCH  13  16
ENDBRANCH   4  13
BRANCH   1  23
ATOM     23  C   UNL     1       6.001   5.541  17.107  0.00  0.00    +0.000 C 
BRANCH  23  24
ATOM     24  C   UNL     1       7.191   6.480  17.462  0.00  0.00    +0.000 C 
ATOM     25  C   UNL     1       7.878   6.347  18.811  0.00  0.00    +0.000 C 
ATOM     26  O   UNL     1       7.578   7.348  16.674  0.00  0.00    +0.000 OA
ENDBRANCH  23  24
BRANCH  23  27
ATOM     27  C   UNL     1       5.416   5.905  15.760  0.00  0.00    +0.000 C 
ATOM     28  O   UNL     1       5.121   7.020  15.399  0.00  0.00    +0.000 OA
BRANCH  27  30
ATOM     29  C   UNL     1       6.655   4.545  14.284  0.00  0.00    +0.000 C 
ATOM     30  O   UNL     1       5.411   4.798  14.938  0.00  0.00    +0.000 OA
ENDBRANCH  27  30
ENDBRANCH  23  27
ENDBRANCH   1  23
TORSDOF 6
ENDMDL
MODEL 2
REMARK VINA RESULT:      -7.9      1.349      1.636
REMARK  Name = 
REMARK  9 active torsions:
REMARK  status: ('A' for Active; 'I' for Inactive)
REMARK    1  A    between atoms: C_1  and  O_2
REMARK    2  A    between atoms: O_2  and  C_3
REMARK    3  A    between atoms: C_3  and  C_5
REMARK    4  A    between atoms: C_5  and  C_6
REMARK    5  A    between atoms: C_5  and  C_9
REMARK    6  A    between atoms: C_6  and  C_7
REMARK    7  A    between atoms: N_12  and  S_13
REMARK    8  A    between atoms: S_13  and  C_16
REMARK    9  A    between atoms: C_19  and  C_20
REMARK                            x       y       z     vdW  Elec       q    Type
REMARK                         _______ _______ _______ _____ _____    ______ ____
ROOT
ATOM      1  C   UNL     1       4.943   5.265  17.417  0.00  0.00    +0.000 C 
ATOM      2  C   UNL     1       4.125   6.133  18.032  0.00  0.00    +0.000 C 
ATOM      3  C   UNL     1       2.692   5.817  18.394  0.00  0.00    +0.000 C 
ATOM      4  N   UNL     1       1.748   6.689  18.608  0.00  0.00    +0.000 NA
ATOM      5  C   UNL     1       2.358   4.365  18.420  0.00  0.00    +0.000 A 
ATOM      6  C   UNL     1       1.098   3.937  18.868  0.00  0.00    +0.000 A 
ATOM      7  C   UNL     1       0.795   2.572  18.923  0.00  0.00    +0.000 A 
ATOM      8  C   UNL     1       1.739   1.630  18.518  0.00  0.00    +0.000 A 
ATOM      9  C   UNL     1       2.981   2.051  18.043  0.00  0.00    +0.000 A 
ATOM     10  C   UNL     1       3.290   3.421  17.988  0.00  0.00    +0.000 A 
ATOM     11  C   UNL     1       4.610   3.835  17.467  0.00  0.00    +0.000 C 
ATOM     12  O   UNL     1       5.447   2.993  17.148  0.00  0.00    +0.000 OA
ENDROOT
BRANCH   4  13
ATOM     13  S   UNL     1       2.013   8.283  18.409  0.00  0.00    +0.000 S 
ATOM     14  O   UNL     1       3.429   8.543  18.599  0.00  0.00    +0.000 OA
ATOM     15  O   UNL     1       1.358   8.711  17.182  0.00  0.00    +0.000 OA
BRANCH  13  16
ATOM     16  C   UNL     1       1.166   9.106  19.736  0.00  0.00    +0.000 A 
ATOM     17  C   UNL     1       0.466  10.292  19.499  0.00  0.00    +0.000 A 
ATOM     18  C   UNL     1      -0.211  10.914  20.553  0.00  0.00    +0.000 A 
ATOM     19  C   UNL     1      -0.196  10.348  21.837  0.00  0.00    +0.000 A 
ATOM     20  C   UNL     1      -0.905  11.021  22.978  0.00  0.00    +0.000 C 
ATOM     21  C   UNL     1       0.492   9.151  22.053  0.00  0.00    +0.000 A 
ATOM     22  C   UNL     1       1.170   8.522  21.002  0.00  0.00    +0.000 A 
ENDBRANCH  13  16
ENDBRANCH   4  13
BRANCH   1  23
ATOM     23  C   UNL     1       6.241   5.673  16.703  0.00  0.00    +0.000 C 
BRANCH  23  24
ATOM     24  C   UNL     1       7.116   6.757  17.399  0.00  0.00    +0.000 C 
ATOM     25  C   UNL     1       7.879   6.409  18.666  0.00  0.00    +0.000 C 
ATOM     26  O   UNL     1       7.187   7.906  16.952  0.00  0.00    +0.000 OA
ENDBRANCH  23  24
BRANCH  23  27
ATOM     27  C   UNL     1       5.936   6.068  15.275  0.00  0.00    +0.000 C 
ATOM     28  O   UNL     1       5.118   6.889  14.930  0.00  0.00    +0.000 OA
BRANCH  27  30
ATOM     29  C   UNL     1       6.423   4.193  13.931  0.00  0.00    +0.000 C 
ATOM     30  O   UNL     1       6.838   5.468  14.421  0.00  0.00    +0.000 OA
ENDBRANCH  27  30
ENDBRANCH  23  27
ENDBRANCH   1  23
TORSDOF 6
ENDMDL
MODEL 3
REMARK VINA RESULT:      -7.9      0.968      2.013
REMARK  Name = 
REMARK  9 active torsions:
REMARK  status: ('A' for Active; 'I' for Inactive)
REMARK    1  A    between atoms: C_1  and  O_2
REMARK    2  A    between atoms: O_2  and  C_3
REMARK    3  A    between atoms: C_3  and  C_5
REMARK    4  A    between atoms: C_5  and  C_6
REMARK    5  A    between atoms: C_5  and  C_9
REMARK    6  A    between atoms: C_6  and  C_7
REMARK    7  A    between atoms: N_12  and  S_13
REMARK    8  A    between atoms: S_13  and  C_16
REMARK    9  A    between atoms: C_19  and  C_20
REMARK                            x       y       z     vdW  Elec       q    Type
REMARK                         _______ _______ _______ _____ _____    ______ ____
ROOT
ATOM      1  C   UNL     1       5.010   5.958  18.060  0.00  0.00    +0.000 C 
ATOM      2  C   UNL     1       4.123   6.892  18.435  0.00  0.00    +0.000 C 
ATOM      3  C   UNL     1       2.811   6.572  19.113  0.00  0.00    +0.000 C 
ATOM      4  N   UNL     1       1.758   7.339  19.141  0.00  0.00    +0.000 NA
ATOM      5  C   UNL     1       2.736   5.216  19.725  0.00  0.00    +0.000 A 
ATOM      6  C   UNL     1       1.621   4.847  20.495  0.00  0.00    +0.000 A 
ATOM      7  C   UNL     1       1.565   3.584  21.095  0.00  0.00    +0.000 A 
ATOM      8  C   UNL     1       2.610   2.680  20.920  0.00  0.00    +0.000 A 
ATOM      9  C   UNL     1       3.705   3.029  20.130  0.00  0.00    +0.000 A 
ATOM     10  C   UNL     1       3.766   4.296  19.527  0.00  0.00    +0.000 A 
ATOM     11  C   UNL     1       4.935   4.631  18.685  0.00  0.00    +0.000 C 
ATOM     12  O   UNL     1       5.867   3.838  18.568  0.00  0.00    +0.000 OA
ENDROOT
BRANCH   4  13
ATOM     13  S   UNL     1       1.723   8.751  18.330  0.00  0.00    +0.000 S 
ATOM     14  O   UNL     1       3.089   9.153  18.045  0.00  0.00    +0.000 OA
ATOM     15  O   UNL     1       0.762   8.636  17.243  0.00  0.00    +0.000 OA
BRANCH  13  16
ATOM     16  C   UNL     1       1.064   9.961  19.450  0.00  0.00    +0.000 A 
ATOM     17  C   UNL     1       0.575   9.574  20.701  0.00  0.00    +0.000 A 
ATOM     18  C   UNL     1       0.078  10.545  21.576  0.00  0.00    +0.000 A 
ATOM     19  C   UNL     1       0.078  11.899  21.207  0.00  0.00    +0.000 A 
ATOM     20  C   UNL     1      -0.472  12.945  22.134  0.00  0.00    +0.000 C 
ATOM     21  C   UNL     1       0.589  12.272  19.960  0.00  0.00    +0.000 A 
ATOM     22  C   UNL     1       1.090  11.306  19.081  0.00  0.00    +0.000 A 
ENDBRANCH  13  16
ENDBRANCH   4  13
BRANCH   1  23
ATOM     23  C   UNL     1       6.139   6.210  17.047  0.00  0.00    +0.000 C 
BRANCH  23  24
ATOM     24  C   UNL     1       6.558   5.010  16.149  0.00  0.00    +0.000 C 
ATOM     25  C   UNL     1       5.549   4.398  15.191  0.00  0.00    +0.000 C 
ATOM     26  O   UNL     1       7.693   4.528  16.212  0.00  0.00    +0.000 OA
ENDBRANCH  23  24
BRANCH  23  27
ATOM     27  C   UNL     1       7.341   6.791  17.757  0.00  0.00    +0.000 C 
ATOM     28  O   UNL     1       7.915   6.291  18.697  0.00  0.00    +0.000 OA
BRANCH  27  30
ATOM     29  C   UNL     1       8.159   8.997  17.922  0.00  0.00    +0.000 C 
ATOM     30  O   UNL     1       7.791   7.905  17.079  0.00  0.00    +0.000 OA
ENDBRANCH  27  30
ENDBRANCH  23  27
ENDBRANCH   1  23
TORSDOF 6
ENDMDL
MODEL 4
REMARK VINA RESULT:      -7.8      0.839      1.075
REMARK  Name = 
REMARK  9 active torsions:
REMARK  status: ('A' for Active; 'I' for Inactive)
REMARK    1  A    between atoms: C_1  and  O_2
REMARK    2  A    between atoms: O_2  and  C_3
REMARK    3  A    between atoms: C_3  and  C_5
REMARK    4  A    between atoms: C_5  and  C_6
REMARK    5  A    between atoms: C_5  and  C_9
REMARK    6  A    between atoms: C_6  and  C_7
REMARK    7  A    between atoms: N_12  and  S_13
REMARK    8  A    between atoms: S_13  and  C_16
REMARK    9  A    between atoms: C_19  and  C_20
REMARK                            x       y       z     vdW  Elec       q    Type
REMARK                         _______ _______ _______ _____ _____    ______ ____
ROOT
ATOM      1  C   UNL     1       4.934   5.565  18.089  0.00  0.00    +0.000 C 
ATOM      2  C   UNL     1       4.133   6.581  18.445  0.00  0.00    +0.000 C 
ATOM      3  C   UNL     1       2.808   6.392  19.147  0.00  0.00    +0.000 C 
ATOM      4  N   UNL     1       1.823   7.245  19.162  0.00  0.00    +0.000 NA
ATOM      5  C   UNL     1       2.629   5.066  19.803  0.00  0.00    +0.000 A 
ATOM      6  C   UNL     1       1.499   4.816  20.597  0.00  0.00    +0.000 A 
ATOM      7  C   UNL     1       1.346   3.582  21.239  0.00  0.00    +0.000 A 
ATOM      8  C   UNL     1       2.310   2.589  21.081  0.00  0.00    +0.000 A 
ATOM      9  C   UNL     1       3.419   2.820  20.268  0.00  0.00    +0.000 A 
ATOM     10  C   UNL     1       3.578   4.059  19.623  0.00  0.00    +0.000 A 
ATOM     11  C   UNL     1       4.758   4.269  18.758  0.00  0.00    +0.000 C 
ATOM     12  O   UNL     1       5.620   3.397  18.657  0.00  0.00    +0.000 OA
ENDROOT
BRANCH   4  13
ATOM     13  S   UNL     1       1.894   8.628  18.306  0.00  0.00    +0.000 S 
ATOM     14  O   UNL     1       3.207   9.218  18.490  0.00  0.00    +0.000 OA
ATOM     15  O   UNL     1       1.400   8.367  16.962  0.00  0.00    +0.000 OA
BRANCH  13  16
ATOM     16  C   UNL     1       0.731   9.744  19.053  0.00  0.00    +0.000 A 
ATOM     17  C   UNL     1      -0.361  10.221  18.321  0.00  0.00    +0.000 A 
ATOM     18  C   UNL     1      -1.276  11.082  18.933  0.00  0.00    +0.000 A 
ATOM     19  C   UNL     1      -1.107  11.460  20.274  0.00  0.00    +0.000 A 
ATOM     20  C   UNL     1      -2.075  12.401  20.931  0.00  0.00    +0.000 C 
ATOM     21  C   UNL     1      -0.021  10.959  20.998  0.00  0.00    +0.000 A 
ATOM     22  C   UNL     1       0.897  10.095  20.392  0.00  0.00    +0.000 A 
ENDBRANCH  13  16
ENDBRANCH   4  13
BRANCH   1  23
ATOM     23  C   UNL     1       6.065   5.690  17.057  0.00  0.00    +0.000 C 
BRANCH  23  24
ATOM     24  C   UNL     1       7.296   6.553  17.462  0.00  0.00    +0.000 C 
ATOM     25  C   UNL     1       7.917   6.379  18.838  0.00  0.00    +0.000 C 
ATOM     26  O   UNL     1       7.767   7.396  16.693  0.00  0.00    +0.000 OA
ENDBRANCH  23  24
BRANCH  23  27
ATOM     27  C   UNL     1       5.499   6.154  15.733  0.00  0.00    +0.000 C 
ATOM     28  O   UNL     1       4.807   7.131  15.566  0.00  0.00    +0.000 OA
BRANCH  27  30
ATOM     29  C   UNL     1       6.027   3.984  14.974  0.00  0.00    +0.000 C 
ATOM     30  O   UNL     1       6.015   5.387  14.710  0.00  0.00    +0.000 OA
ENDBRANCH  27  30
ENDBRANCH  23  27
ENDBRANCH   1  23
TORSDOF 6
ENDMDL
MODEL 5
REMARK VINA RESULT:      -7.7      1.554      1.726
REMARK  Name = 
REMARK  9 active torsions:
REMARK  status: ('A' for Active; 'I' for Inactive)
REMARK    1  A    between atoms: C_1  and  O_2
REMARK    2  A    between atoms: O_2  and  C_3
REMARK    3  A    between atoms: C_3  and  C_5
REMARK    4  A    between atoms: C_5  and  C_6
REMARK    5  A    between atoms: C_5  and  C_9
REMARK    6  A    between atoms: C_6  and  C_7
REMARK    7  A    between atoms: N_12  and  S_13
REMARK    8  A    between atoms: S_13  and  C_16
REMARK    9  A    between atoms: C_19  and  C_20
REMARK                            x       y       z     vdW  Elec       q    Type
REMARK                         _______ _______ _______ _____ _____    ______ ____
ROOT
ATOM      1  C   UNL     1       4.933   5.778  18.140  0.00  0.00    +0.000 C 
ATOM      2  C   UNL     1       4.116   6.788  18.475  0.00  0.00    +0.000 C 
ATOM      3  C   UNL     1       2.744   6.586  19.077  0.00  0.00    +0.000 C 
ATOM      4  N   UNL     1       1.766   7.446  19.054  0.00  0.00    +0.000 NA
ATOM      5  C   UNL     1       2.512   5.240  19.672  0.00  0.00    +0.000 A 
ATOM      6  C   UNL     1       1.328   4.971  20.376  0.00  0.00    +0.000 A 
ATOM      7  C   UNL     1       1.123   3.717  20.962  0.00  0.00    +0.000 A 
ATOM      8  C   UNL     1       2.090   2.722  20.835  0.00  0.00    +0.000 A 
ATOM      9  C   UNL     1       3.254   2.972  20.110  0.00  0.00    +0.000 A 
ATOM     10  C   UNL     1       3.464   4.231  19.522  0.00  0.00    +0.000 A 
ATOM     11  C   UNL     1       4.703   4.461  18.749  0.00  0.00    +0.000 C 
ATOM     12  O   UNL     1       5.565   3.586  18.676  0.00  0.00    +0.000 OA
ENDROOT
BRANCH   4  13
ATOM     13  S   UNL     1       1.904   8.858  18.255  0.00  0.00    +0.000 S 
ATOM     14  O   UNL     1       2.798   9.725  19.001  0.00  0.00    +0.000 OA
ATOM     15  O   UNL     1       2.178   8.572  16.854  0.00  0.00    +0.000 OA
BRANCH  13  16
ATOM     16  C   UNL     1       0.302   9.624  18.301  0.00  0.00    +0.000 A 
ATOM     17  C   UNL     1      -0.032  10.501  19.337  0.00  0.00    +0.000 A 
ATOM     18  C   UNL     1      -1.290  11.109  19.344  0.00  0.00    +0.000 A 
ATOM     19  C   UNL     1      -2.209  10.851  18.315  0.00  0.00    +0.000 A 
ATOM     20  C   UNL     1      -3.570  11.486  18.327  0.00  0.00    +0.000 C 
ATOM     21  C   UNL     1      -1.852   9.988  17.275  0.00  0.00    +0.000 A 
ATOM     22  C   UNL     1      -0.593   9.377  17.261  0.00  0.00    +0.000 A 
ENDBRANCH  13  16
ENDBRANCH   4  13
BRANCH   1  23
ATOM     23  C   UNL     1       6.135   5.929  17.194  0.00  0.00    +0.000 C 
BRANCH  23  24
ATOM     24  C   UNL     1       7.233   6.951  17.609  0.00  0.00    +0.000 C 
ATOM     25  C   UNL     1       8.108   6.665  18.818  0.00  0.00    +0.000 C 
ATOM     26  O   UNL     1       7.397   8.004  16.985  0.00  0.00    +0.000 OA
ENDBRANCH  23  24
BRANCH  23  27
ATOM     27  C   UNL     1       5.646   6.211  15.790  0.00  0.00    +0.000 C 
ATOM     28  O   UNL     1       4.821   7.040  15.484  0.00  0.00    +0.000 OA
BRANCH  27  30
ATOM     29  C   UNL     1       5.748   4.312  14.395  0.00  0.00    +0.000 C 
ATOM     30  O   UNL     1       6.392   5.490  14.882  0.00  0.00    +0.000 OA
ENDBRANCH  27  30
ENDBRANCH  23  27
ENDBRANCH   1  23
TORSDOF 6
ENDMDL
MODEL 6
REMARK VINA RESULT:      -7.7      4.783     10.332
REMARK  Name = 
REMARK  9 active torsions:
REMARK  status: ('A' for Active; 'I' for Inactive)
REMARK    1  A    between atoms: C_1  and  O_2
REMARK    2  A    between atoms: O_2  and  C_3
REMARK    3  A    between atoms: C_3  and  C_5
REMARK    4  A    between atoms: C_5  and  C_6
REMARK    5  A    between atoms: C_5  and  C_9
REMARK    6  A    between atoms: C_6  and  C_7
REMARK    7  A    between atoms: N_12  and  S_13
REMARK    8  A    between atoms: S_13  and  C_16
REMARK    9  A    between atoms: C_19  and  C_20
REMARK                            x       y       z     vdW  Elec       q    Type
REMARK                         _______ _______ _______ _____ _____    ______ ____
ROOT
ATOM      1  C   UNL     1      -2.930  13.002  21.188  0.00  0.00    +0.000 C 
ATOM      2  C   UNL     1      -1.803  12.514  20.647  0.00  0.00    +0.000 C 
ATOM      3  C   UNL     1      -1.784  11.595  19.448  0.00  0.00    +0.000 C 
ATOM      4  N   UNL     1      -0.818  10.784  19.122  0.00  0.00    +0.000 NA
ATOM      5  C   UNL     1      -3.035  11.594  18.638  0.00  0.00    +0.000 A 
ATOM      6  C   UNL     1      -3.095  10.884  17.429  0.00  0.00    +0.000 A 
ATOM      7  C   UNL     1      -4.259  10.909  16.652  0.00  0.00    +0.000 A 
ATOM      8  C   UNL     1      -5.371  11.629  17.084  0.00  0.00    +0.000 A 
ATOM      9  C   UNL     1      -5.328  12.311  18.300  0.00  0.00    +0.000 A 
ATOM     10  C   UNL     1      -4.160  12.290  19.081  0.00  0.00    +0.000 A 
ATOM     11  C   UNL     1      -4.151  13.012  20.371  0.00  0.00    +0.000 C 
ATOM     12  O   UNL     1      -5.126  13.674  20.723  0.00  0.00    +0.000 OA
ENDROOT
BRANCH   4  13
ATOM     13  S   UNL     1       0.491  10.608  20.074  0.00  0.00    +0.000 S 
ATOM     14  O   UNL     1       1.343  11.771  19.907  0.00  0.00    +0.000 OA
ATOM     15  O   UNL     1       0.046  10.223  21.406  0.00  0.00    +0.000 OA
BRANCH  13  16
ATOM     16  C   UNL     1       1.398   9.221  19.435  0.00  0.00    +0.000 A 
ATOM     17  C   UNL     1       1.626   8.097  20.234  0.00  0.00    +0.000 A 
ATOM     18  C   UNL     1       2.326   7.008  19.706  0.00  0.00    +0.000 A 
ATOM     19  C   UNL     1       2.788   7.037  18.382  0.00  0.00    +0.000 A 
ATOM     20  C   UNL     1       3.556   5.878  17.814  0.00  0.00    +0.000 C 
ATOM     21  C   UNL     1       2.534   8.160  17.589  0.00  0.00    +0.000 A 
ATOM     22  C   UNL     1       1.833   9.253  18.111  0.00  0.00    +0.000 A 
ENDBRANCH  13  16
ENDBRANCH   4  13
BRANCH   1  23
ATOM     23  C   UNL     1      -3.008  13.603  22.600  0.00  0.00    +0.000 C 
BRANCH  23  24
ATOM     24  C   UNL     1      -1.826  14.513  23.045  0.00  0.00    +0.000 C 
ATOM     25  C   UNL     1      -1.637  15.873  22.393  0.00  0.00    +0.000 C 
ATOM     26  O   UNL     1      -1.022  14.143  23.906  0.00  0.00    +0.000 OA
ENDBRANCH  23  24
BRANCH  23  27
ATOM     27  C   UNL     1      -3.245  12.503  23.611  0.00  0.00    +0.000 C 
ATOM     28  O   UNL     1      -2.648  11.452  23.661  0.00  0.00    +0.000 OA
BRANCH  27  30
ATOM     29  C   UNL     1      -5.507  12.683  24.253  0.00  0.00    +0.000 C 
ATOM     30  O   UNL     1      -4.137  12.933  24.570  0.00  0.00    +0.000 OA
ENDBRANCH  27  30
ENDBRANCH  23  27
ENDBRANCH   1  23
TORSDOF 6
ENDMDL
MODEL 7
REMARK VINA RESULT:      -7.7      4.454     10.011
REMARK  Name = 
REMARK  9 active torsions:
REMARK  status: ('A' for Active; 'I' for Inactive)
REMARK    1  A    between atoms: C_1  and  O_2
REMARK    2  A    between atoms: O_2  and  C_3
REMARK    3  A    between atoms: C_3  and  C_5
REMARK    4  A    between atoms: C_5  and  C_6
REMARK    5  A    between atoms: C_5  and  C_9
REMARK    6  A    between atoms: C_6  and  C_7
REMARK    7  A    between atoms: N_12  and  S_13
REMARK    8  A    between atoms: S_13  and  C_16
REMARK    9  A    between atoms: C_19  and  C_20
REMARK                            x       y       z     vdW  Elec       q    Type
REMARK                         _______ _______ _______ _____ _____    ______ ____
ROOT
ATOM      1  C   UNL     1      -2.756  12.583  20.623  0.00  0.00    +0.000 C 
ATOM      2  C   UNL     1      -1.608  12.018  20.220  0.00  0.00    +0.000 C 
ATOM      3  C   UNL     1      -1.516  11.051  19.062  0.00  0.00    +0.000 C 
ATOM      4  N   UNL     1      -0.567  10.180  18.867  0.00  0.00    +0.000 NA
ATOM      5  C   UNL     1      -2.676  11.081  18.127  0.00  0.00    +0.000 A 
ATOM      6  C   UNL     1      -2.651  10.325  16.943  0.00  0.00    +0.000 A 
ATOM      7  C   UNL     1      -3.726  10.378  16.049  0.00  0.00    +0.000 A 
ATOM      8  C   UNL     1      -4.836  11.170  16.338  0.00  0.00    +0.000 A 
ATOM      9  C   UNL     1      -4.880  11.897  17.526  0.00  0.00    +0.000 A 
ATOM     10  C   UNL     1      -3.801  11.849  18.425  0.00  0.00    +0.000 A 
ATOM     11  C   UNL     1      -3.885  12.622  19.683  0.00  0.00    +0.000 C 
ATOM     12  O   UNL     1      -4.853  13.345  19.908  0.00  0.00    +0.000 OA
ENDROOT
BRANCH   4  13
ATOM     13  S   UNL     1       0.626   9.977  19.957  0.00  0.00    +0.000 S 
ATOM     14  O   UNL     1       1.446  11.175  19.971  0.00  0.00    +0.000 OA
ATOM     15  O   UNL     1       0.042   9.485  21.196  0.00  0.00    +0.000 OA
BRANCH  13  16
ATOM     16  C   UNL     1       1.656   8.667  19.340  0.00  0.00    +0.000 A 
ATOM     17  C   UNL     1       1.867   7.516  20.104  0.00  0.00    +0.000 A 
ATOM     18  C   UNL     1       2.665   6.488  19.592  0.00  0.00    +0.000 A 
ATOM     19  C   UNL     1       3.242   6.605  18.319  0.00  0.00    +0.000 A 
ATOM     20  C   UNL     1       4.116   5.513  17.771  0.00  0.00    +0.000 C 
ATOM     21  C   UNL     1       3.005   7.755  17.559  0.00  0.00    +0.000 A 
ATOM     22  C   UNL     1       2.206   8.786  18.065  0.00  0.00    +0.000 A 
ENDBRANCH  13  16
ENDBRANCH   4  13
BRANCH   1  23
ATOM     23  C   UNL     1      -2.946  13.244  21.998  0.00  0.00    +0.000 C 
BRANCH  23  24
ATOM     24  C   UNL     1      -2.436  14.707  22.152  0.00  0.00    +0.000 C 
ATOM     25  C   UNL     1      -2.760  15.488  23.414  0.00  0.00    +0.000 C 
ATOM     26  O   UNL     1      -1.787  15.256  21.256  0.00  0.00    +0.000 OA
ENDBRANCH  23  24
BRANCH  23  27
ATOM     27  C   UNL     1      -2.361  12.358  23.075  0.00  0.00    +0.000 C 
ATOM     28  O   UNL     1      -1.208  12.356  23.437  0.00  0.00    +0.000 OA
BRANCH  27  30
ATOM     29  C   UNL     1      -4.169  12.437  24.587  0.00  0.00    +0.000 C 
ATOM     30  O   UNL     1      -3.370  11.655  23.700  0.00  0.00    +0.000 OA
ENDBRANCH  27  30
ENDBRANCH  23  27
ENDBRANCH   1  23
TORSDOF 6
ENDMDL
MODEL 8
REMARK VINA RESULT:      -7.7      1.904      2.721
REMARK  Name = 
REMARK  9 active torsions:
REMARK  status: ('A' for Active; 'I' for Inactive)
REMARK    1  A    between atoms: C_1  and  O_2
REMARK    2  A    between atoms: O_2  and  C_3
REMARK    3  A    between atoms: C_3  and  C_5
REMARK    4  A    between atoms: C_5  and  C_6
REMARK    5  A    between atoms: C_5  and  C_9
REMARK    6  A    between atoms: C_6  and  C_7
REMARK    7  A    between atoms: N_12  and  S_13
REMARK    8  A    between atoms: S_13  and  C_16
REMARK    9  A    between atoms: C_19  and  C_20
REMARK                            x       y       z     vdW  Elec       q    Type
REMARK                         _______ _______ _______ _____ _____    ______ ____
ROOT
ATOM      1  C   UNL     1       4.810   6.223  17.926  0.00  0.00    +0.000 C 
ATOM      2  C   UNL     1       3.982   7.188  18.354  0.00  0.00    +0.000 C 
ATOM      3  C   UNL     1       2.638   6.914  18.988  0.00  0.00    +0.000 C 
ATOM      4  N   UNL     1       1.640   7.749  19.056  0.00  0.00    +0.000 NA
ATOM      5  C   UNL     1       2.458   5.526  19.501  0.00  0.00    +0.000 A 
ATOM      6  C   UNL     1       1.307   5.183  20.227  0.00  0.00    +0.000 A 
ATOM      7  C   UNL     1       1.152   3.889  20.736  0.00  0.00    +0.000 A 
ATOM      8  C   UNL     1       2.136   2.928  20.511  0.00  0.00    +0.000 A 
ATOM      9  C   UNL     1       3.267   3.254  19.764  0.00  0.00    +0.000 A 
ATOM     10  C   UNL     1       3.427   4.553  19.253  0.00  0.00    +0.000 A 
ATOM     11  C   UNL     1       4.632   4.864  18.454  0.00  0.00    +0.000 C 
ATOM     12  O   UNL     1       5.510   4.017  18.295  0.00  0.00    +0.000 OA
ENDROOT
BRANCH   4  13
ATOM     13  S   UNL     1       1.718   9.212  18.346  0.00  0.00    +0.000 S 
ATOM     14  O   UNL     1       2.494  10.096  19.196  0.00  0.00    +0.000 OA
ATOM     15  O   UNL     1       2.097   9.031  16.953  0.00  0.00    +0.000 OA
BRANCH  13  16
ATOM     16  C   UNL     1       0.061   9.854  18.329  0.00  0.00    +0.000 A 
ATOM     17  C   UNL     1      -0.353  10.767  19.303  0.00  0.00    +0.000 A 
ATOM     18  C   UNL     1      -1.654  11.275  19.260  0.00  0.00    +0.000 A 
ATOM     19  C   UNL     1      -2.537  10.881  18.243  0.00  0.00    +0.000 A 
ATOM     20  C   UNL     1      -3.943  11.409  18.202  0.00  0.00    +0.000 C 
ATOM     21  C   UNL     1      -2.101   9.983  17.264  0.00  0.00    +0.000 A 
ATOM     22  C   UNL     1      -0.799   9.471  17.301  0.00  0.00    +0.000 A 
ENDBRANCH  13  16
ENDBRANCH   4  13
BRANCH   1  23
ATOM     23  C   UNL     1       5.972   6.465  16.950  0.00  0.00    +0.000 C 
BRANCH  23  24
ATOM     24  C   UNL     1       6.294   5.323  15.942  0.00  0.00    +0.000 C 
ATOM     25  C   UNL     1       5.221   4.847  14.977  0.00  0.00    +0.000 C 
ATOM     26  O   UNL     1       7.402   4.779  15.923  0.00  0.00    +0.000 OA
ENDBRANCH  23  24
BRANCH  23  27
ATOM     27  C   UNL     1       7.211   6.862  17.721  0.00  0.00    +0.000 C 
ATOM     28  O   UNL     1       7.663   6.279  18.678  0.00  0.00    +0.000 OA
BRANCH  27  30
ATOM     29  C   UNL     1       8.028   9.069  17.885  0.00  0.00    +0.000 C 
ATOM     30  O   UNL     1       7.847   7.904  17.079  0.00  0.00    +0.000 OA
ENDBRANCH  27  30
ENDBRANCH  23  27
ENDBRANCH   1  23
TORSDOF 6
ENDMDL
MODEL 9
REMARK VINA RESULT:      -7.6      1.210      2.306
REMARK  Name = 
REMARK  9 active torsions:
REMARK  status: ('A' for Active; 'I' for Inactive)
REMARK    1  A    between atoms: C_1  and  O_2
REMARK    2  A    between atoms: O_2  and  C_3
REMARK    3  A    between atoms: C_3  and  C_5
REMARK    4  A    between atoms: C_5  and  C_6
REMARK    5  A    between atoms: C_5  and  C_9
REMARK    6  A    between atoms: C_6  and  C_7
REMARK    7  A    between atoms: N_12  and  S_13
REMARK    8  A    between atoms: S_13  and  C_16
REMARK    9  A    between atoms: C_19  and  C_20
REMARK                            x       y       z     vdW  Elec       q    Type
REMARK                         _______ _______ _______ _____ _____    ______ ____
ROOT
ATOM      1  C   UNL     1       4.846   5.926  17.628  0.00  0.00    +0.000 C 
ATOM      2  C   UNL     1       3.977   6.791  18.171  0.00  0.00    +0.000 C 
ATOM      3  C   UNL     1       2.628   6.385  18.719  0.00  0.00    +0.000 C 
ATOM      4  N   UNL     1       1.601   7.170  18.881  0.00  0.00    +0.000 NA
ATOM      5  C   UNL     1       2.483   4.932  19.015  0.00  0.00    +0.000 A 
ATOM      6  C   UNL     1       1.327   4.450  19.649  0.00  0.00    +0.000 A 
ATOM      7  C   UNL     1       1.204   3.090  19.956  0.00  0.00    +0.000 A 
ATOM      8  C   UNL     1       2.225   2.204  19.620  0.00  0.00    +0.000 A 
ATOM      9  C   UNL     1       3.362   2.671  18.962  0.00  0.00    +0.000 A 
ATOM     10  C   UNL     1       3.490   4.036  18.654  0.00  0.00    +0.000 A 
ATOM     11  C   UNL     1       4.702   4.498  17.944  0.00  0.00    +0.000 C 
ATOM     12  O   UNL     1       5.612   3.712  17.686  0.00  0.00    +0.000 OA
ENDROOT
BRANCH   4  13
ATOM     13  S   UNL     1       1.646   8.724  18.399  0.00  0.00    +0.000 S 
ATOM     14  O   UNL     1       3.031   9.155  18.357  0.00  0.00    +0.000 OA
ATOM     15  O   UNL     1       0.809   8.867  17.216  0.00  0.00    +0.000 OA
BRANCH  13  16
ATOM     16  C   UNL     1       0.860   9.674  19.679  0.00  0.00    +0.000 A 
ATOM     17  C   UNL     1       0.150  10.835  19.362  0.00  0.00    +0.000 A 
ATOM     18  C   UNL     1      -0.478  11.557  20.381  0.00  0.00    +0.000 A 
ATOM     19  C   UNL     1      -0.406  11.115  21.711  0.00  0.00    +0.000 A 
ATOM     20  C   UNL     1      -1.062  11.896  22.814  0.00  0.00    +0.000 C 
ATOM     21  C   UNL     1       0.291   9.941  22.009  0.00  0.00    +0.000 A 
ATOM     22  C   UNL     1       0.921   9.213  20.993  0.00  0.00    +0.000 A 
ENDBRANCH  13  16
ENDBRANCH   4  13
BRANCH   1  23
ATOM     23  C   UNL     1       6.023   6.345  16.733  0.00  0.00    +0.000 C 
BRANCH  23  24
ATOM     24  C   UNL     1       6.477   5.328  15.645  0.00  0.00    +0.000 C 
ATOM     25  C   UNL     1       5.500   4.897  14.564  0.00  0.00    +0.000 C 
ATOM     26  O   UNL     1       7.613   4.846  15.654  0.00  0.00    +0.000 OA
ENDBRANCH  23  24
BRANCH  23  27
ATOM     27  C   UNL     1       7.194   6.766  17.592  0.00  0.00    +0.000 C 
ATOM     28  O   UNL     1       7.601   6.178  18.566  0.00  0.00    +0.000 OA
BRANCH  27  30
ATOM     29  C   UNL     1       8.023   8.954  17.890  0.00  0.00    +0.000 C 
ATOM     30  O   UNL     1       7.835   7.842  17.015  0.00  0.00    +0.000 OA
ENDBRANCH  27  30
ENDBRANCH  23  27
ENDBRANCH   1  23
TORSDOF 6
ENDMDL
