MODEL 1
REMARK VINA RESULT:      -7.8      0.000      0.000
REMARK  Name = 
REMARK  6 active torsions:
REMARK  status: ('A' for Active; 'I' for Inactive)
REMARK    1  A    between atoms: C_1  and  C_2
REMARK    2  A    between atoms: C_5  and  C_6
REMARK    3  A    between atoms: C_6  and  N_7
REMARK    4  A    between atoms: C_12  and  C_14
REMARK    5  A    between atoms: C_14  and  N_15
REMARK    6  A    between atoms: C_17  and  C_18
REMARK                            x       y       z     vdW  Elec       q    Type
REMARK                         _______ _______ _______ _____ _____    ______ ____
ROOT
ATOM      1  N   UNL     1       1.716   6.361  19.798  0.00  0.00    +0.000 NA
ATOM      2  C   UNL     1       2.027   5.310  20.786  0.00  0.00    +0.000 C 
ATOM      3  C   UNL     1       1.141   4.063  20.737  0.00  0.00    +0.000 C 
ATOM      4  C   UNL     1       1.117   3.238  19.457  0.00  0.00    +0.000 C 
ATOM      5  N   UNL     1       2.157   3.564  18.495  0.00  0.00    +0.000 N 
ATOM      6  C   UNL     1       3.285   2.758  18.412  0.00  0.00    +0.000 C 
ATOM      7  O   UNL     1       3.439   1.779  19.152  0.00  0.00    +0.000 OA
ATOM      8  C   UNL     1       1.916   4.791  17.733  0.00  0.00    +0.000 C 
ATOM      9  C   UNL     1       2.323   6.082  18.469  0.00  0.00    +0.000 C 
ENDROOT
BRANCH   1  10
ATOM     10  C   UNL     1       2.266   7.668  20.264  0.00  0.00    +0.000 C 
BRANCH  10  15
ATOM     11  C   UNL     1      -1.511  11.406  22.697  0.00  0.00    +0.000 C 
ATOM     12  C   UNL     1      -0.549  10.427  22.089  0.00  0.00    +0.000 A 
ATOM     13  C   UNL     1       0.211   9.562  22.882  0.00  0.00    +0.000 A 
ATOM     14  C   UNL     1       1.109   8.667  22.290  0.00  0.00    +0.000 A 
ATOM     15  C   UNL     1       1.261   8.613  20.894  0.00  0.00    +0.000 A 
ATOM     16  C   UNL     1       0.495   9.481  20.107  0.00  0.00    +0.000 A 
ATOM     17  C   UNL     1      -0.398  10.379  20.699  0.00  0.00    +0.000 A 
ENDBRANCH  10  15
ENDBRANCH   1  10
BRANCH   6  18
ATOM     18  C   UNL     1       4.345   3.064  17.374  0.00  0.00    +0.000 C 
BRANCH  18  19
ATOM     19  N   UNL     1       5.198   4.160  17.798  0.00  0.00    +0.000 N 
ATOM     20  C   UNL     1       5.700   5.168  17.020  0.00  0.00    +0.000 A 
ATOM     21  C   UNL     1       6.479   5.940  17.853  0.00  0.00    +0.000 A 
ATOM     22  C   UNL     1       6.404   5.307  19.104  0.00  0.00    +0.000 A 
ATOM     23  N   UNL     1       5.636   4.213  19.076  0.00  0.00    +0.000 NA
BRANCH  21  24
ATOM     24  C   UNL     1       7.200   7.119  17.508  0.00  0.00    +0.000 C 
ATOM     25  N   UNL     1       7.782   8.083  17.235  0.00  0.00    +0.000 NA
ENDBRANCH  21  24
ENDBRANCH  18  19
ENDBRANCH   6  18
TORSDOF 5
ENDMDL
MODEL 2
REMARK VINA RESULT:      -7.7      0.732      1.292
REMARK  Name = 
REMARK  6 active torsions:
REMARK  status: ('A' for Active; 'I' for Inactive)
REMARK    1  A    between atoms: C_1  and  C_2
REMARK    2  A    between atoms: C_5  and  C_6
REMARK    3  A    between atoms: C_6  and  N_7
REMARK    4  A    between atoms: C_12  and  C_14
REMARK    5  A    between atoms: C_14  and  N_15
REMARK    6  A    between atoms: C_17  and  C_18
REMARK                            x       y       z     vdW  Elec       q    Type
REMARK                         _______ _______ _______ _____ _____    ______ ____
ROOT
ATOM      1  N   UNL     1       1.700   6.067  19.917  0.00  0.00    +0.000 NA
ATOM      2  C   UNL     1       2.060   4.961  20.825  0.00  0.00    +0.000 C 
ATOM      3  C   UNL     1       1.211   3.694  20.704  0.00  0.00    +0.000 C 
ATOM      4  C   UNL     1       1.189   2.958  19.371  0.00  0.00    +0.000 C 
ATOM      5  N   UNL     1       2.202   3.381  18.418  0.00  0.00    +0.000 N 
ATOM      6  C   UNL     1       3.351   2.617  18.262  0.00  0.00    +0.000 C 
ATOM      7  O   UNL     1       3.548   1.596  18.931  0.00  0.00    +0.000 OA
ATOM      8  C   UNL     1       1.911   4.648  17.745  0.00  0.00    +0.000 C 
ATOM      9  C   UNL     1       2.292   5.899  18.562  0.00  0.00    +0.000 C 
ENDROOT
BRANCH   1  10
ATOM     10  C   UNL     1       2.219   7.356  20.462  0.00  0.00    +0.000 C 
BRANCH  10  15
ATOM     11  C   UNL     1      -1.487  11.843  19.934  0.00  0.00    +0.000 C 
ATOM     12  C   UNL     1      -0.517  10.706  20.057  0.00  0.00    +0.000 A 
ATOM     13  C   UNL     1       0.326  10.347  19.000  0.00  0.00    +0.000 A 
ATOM     14  C   UNL     1       1.213   9.274  19.138  0.00  0.00    +0.000 A 
ATOM     15  C   UNL     1       1.283   8.543  20.336  0.00  0.00    +0.000 A 
ATOM     16  C   UNL     1       0.438   8.910  21.390  0.00  0.00    +0.000 A 
ATOM     17  C   UNL     1      -0.453   9.978  21.250  0.00  0.00    +0.000 A 
ENDBRANCH  10  15
ENDBRANCH   1  10
BRANCH   6  18
ATOM     18  C   UNL     1       4.384   3.026  17.232  0.00  0.00    +0.000 C 
BRANCH  18  19
ATOM     19  N   UNL     1       5.195   4.132  17.707  0.00  0.00    +0.000 N 
ATOM     20  C   UNL     1       5.727   5.151  16.963  0.00  0.00    +0.000 A 
ATOM     21  C   UNL     1       6.445   5.931  17.841  0.00  0.00    +0.000 A 
ATOM     22  C   UNL     1       6.308   5.292  19.084  0.00  0.00    +0.000 A 
ATOM     23  N   UNL     1       5.558   4.187  19.009  0.00  0.00    +0.000 NA
BRANCH  21  24
ATOM     24  C   UNL     1       7.168   7.121  17.542  0.00  0.00    +0.000 C 
ATOM     25  N   UNL     1       7.762   8.087  17.306  0.00  0.00    +0.000 NA
ENDBRANCH  21  24
ENDBRANCH  18  19
ENDBRANCH   6  18
TORSDOF 5
ENDMDL
MODEL 3
REMARK VINA RESULT:      -7.3      0.984      1.039
REMARK  Name = 
REMARK  6 active torsions:
REMARK  status: ('A' for Active; 'I' for Inactive)
REMARK    1  A    between atoms: C_1  and  C_2
REMARK    2  A    between atoms: C_5  and  C_6
REMARK    3  A    between atoms: C_6  and  N_7
REMARK    4  A    between atoms: C_12  and  C_14
REMARK    5  A    between atoms: C_14  and  N_15
REMARK    6  A    between atoms: C_17  and  C_18
REMARK                            x       y       z     vdW  Elec       q    Type
REMARK                         _______ _______ _______ _____ _____    ______ ____
ROOT
ATOM      1  N   UNL     1       1.912   6.744  19.353  0.00  0.00    +0.000 NA
ATOM      2  C   UNL     1       2.519   6.106  20.537  0.00  0.00    +0.000 C 
ATOM      3  C   UNL     1       2.011   4.702  20.873  0.00  0.00    +0.000 C 
ATOM      4  C   UNL     1       2.194   3.596  19.841  0.00  0.00    +0.000 C 
ATOM      5  N   UNL     1       3.086   3.923  18.741  0.00  0.00    +0.000 N 
ATOM      6  C   UNL     1       4.392   3.448  18.760  0.00  0.00    +0.000 C 
ATOM      7  O   UNL     1       4.823   2.772  19.701  0.00  0.00    +0.000 OA
ATOM      8  C   UNL     1       2.503   4.801  17.726  0.00  0.00    +0.000 C 
ATOM      9  C   UNL     1       2.549   6.299  18.084  0.00  0.00    +0.000 C 
ENDROOT
BRANCH   1  10
ATOM     10  C   UNL     1       2.087   8.224  19.433  0.00  0.00    +0.000 C 
BRANCH  10  15
ATOM     11  C   UNL     1      -1.414  11.089  23.134  0.00  0.00    +0.000 C 
ATOM     12  C   UNL     1      -0.520  10.331  22.197  0.00  0.00    +0.000 A 
ATOM     13  C   UNL     1       0.383   9.371  22.666  0.00  0.00    +0.000 A 
ATOM     14  C   UNL     1       1.214   8.687  21.772  0.00  0.00    +0.000 A 
ATOM     15  C   UNL     1       1.154   8.942  20.391  0.00  0.00    +0.000 A 
ATOM     16  C   UNL     1       0.247   9.902  19.930  0.00  0.00    +0.000 A 
ATOM     17  C   UNL     1      -0.579  10.590  20.823  0.00  0.00    +0.000 A 
ENDBRANCH  10  15
ENDBRANCH   1  10
BRANCH   6  18
ATOM     18  C   UNL     1       5.308   3.742  17.590  0.00  0.00    +0.000 C 
BRANCH  18  19
ATOM     19  N   UNL     1       6.236   4.814  17.901  0.00  0.00    +0.000 N 
ATOM     20  C   UNL     1       6.221   6.093  17.411  0.00  0.00    +0.000 A 
ATOM     21  C   UNL     1       7.313   6.725  17.962  0.00  0.00    +0.000 A 
ATOM     22  C   UNL     1       7.937   5.744  18.750  0.00  0.00    +0.000 A 
ATOM     23  N   UNL     1       7.294   4.572  18.708  0.00  0.00    +0.000 NA
BRANCH  21  24
ATOM     24  C   UNL     1       7.713   8.078  17.766  0.00  0.00    +0.000 C 
ATOM     25  N   UNL     1       8.043   9.175  17.597  0.00  0.00    +0.000 NA
ENDBRANCH  21  24
ENDBRANCH  18  19
ENDBRANCH   6  18
TORSDOF 5
ENDMDL
MODEL 4
REMARK VINA RESULT:      -7.3      1.896      2.471
REMARK  Name = 
REMARK  6 active torsions:
REMARK  status: ('A' for Active; 'I' for Inactive)
REMARK    1  A    between atoms: C_1  and  C_2
REMARK    2  A    between atoms: C_5  and  C_6
REMARK    3  A    between atoms: C_6  and  N_7
REMARK    4  A    between atoms: C_12  and  C_14
REMARK    5  A    between atoms: C_14  and  N_15
REMARK    6  A    between atoms: C_17  and  C_18
REMARK                            x       y       z     vdW  Elec       q    Type
REMARK                         _______ _______ _______ _____ _____    ______ ____
ROOT
ATOM      1  N   UNL     1       1.743   6.596  20.173  0.00  0.00    +0.000 NA
ATOM      2  C   UNL     1       1.695   5.206  20.668  0.00  0.00    +0.000 C 
ATOM      3  C   UNL     1       1.134   4.169  19.693  0.00  0.00    +0.000 C 
ATOM      4  C   UNL     1       1.846   3.962  18.362  0.00  0.00    +0.000 C 
ATOM      5  N   UNL     1       3.158   4.580  18.264  0.00  0.00    +0.000 N 
ATOM      6  C   UNL     1       4.293   3.797  18.433  0.00  0.00    +0.000 C 
ATOM      7  O   UNL     1       4.217   2.590  18.688  0.00  0.00    +0.000 OA
ATOM      8  C   UNL     1       3.133   6.027  18.048  0.00  0.00    +0.000 C 
ATOM      9  C   UNL     1       2.944   6.855  19.335  0.00  0.00    +0.000 C 
ENDROOT
BRANCH   1  10
ATOM     10  C   UNL     1       1.805   7.539  21.328  0.00  0.00    +0.000 C 
BRANCH  10  15
ATOM     11  C   UNL     1      -1.726  12.189  21.062  0.00  0.00    +0.000 C 
ATOM     12  C   UNL     1      -0.836  10.984  21.148  0.00  0.00    +0.000 A 
ATOM     13  C   UNL     1      -0.566  10.361  22.370  0.00  0.00    +0.000 A 
ATOM     14  C   UNL     1       0.277   9.245  22.423  0.00  0.00    +0.000 A 
ATOM     15  C   UNL     1       0.861   8.724  21.256  0.00  0.00    +0.000 A 
ATOM     16  C   UNL     1       0.584   9.352  20.036  0.00  0.00    +0.000 A 
ATOM     17  C   UNL     1      -0.253  10.470  19.983  0.00  0.00    +0.000 A 
ENDBRANCH  10  15
ENDBRANCH   1  10
BRANCH   6  18
ATOM     18  C   UNL     1       5.662   4.427  18.278  0.00  0.00    +0.000 C 
BRANCH  18  19
ATOM     19  N   UNL     1       6.079   4.451  16.888  0.00  0.00    +0.000 N 
ATOM     20  C   UNL     1       5.480   3.820  15.831  0.00  0.00    +0.000 A 
ATOM     21  C   UNL     1       6.253   4.105  14.728  0.00  0.00    +0.000 A 
ATOM     22  C   UNL     1       7.306   4.893  15.221  0.00  0.00    +0.000 A 
ATOM     23  N   UNL     1       7.215   5.098  16.540  0.00  0.00    +0.000 NA
BRANCH  21  24
ATOM     24  C   UNL     1       6.026   3.685  13.387  0.00  0.00    +0.000 C 
ATOM     25  N   UNL     1       5.843   3.352  12.292  0.00  0.00    +0.000 NA
ENDBRANCH  21  24
ENDBRANCH  18  19
ENDBRANCH   6  18
TORSDOF 5
ENDMDL
MODEL 5
REMARK VINA RESULT:      -7.1      0.872      1.474
REMARK  Name = 
REMARK  6 active torsions:
REMARK  status: ('A' for Active; 'I' for Inactive)
REMARK    1  A    between atoms: C_1  and  C_2
REMARK    2  A    between atoms: C_5  and  C_6
REMARK    3  A    between atoms: C_6  and  N_7
REMARK    4  A    between atoms: C_12  and  C_14
REMARK    5  A    between atoms: C_14  and  N_15
REMARK    6  A    between atoms: C_17  and  C_18
REMARK                            x       y       z     vdW  Elec       q    Type
REMARK                         _______ _______ _______ _____ _____    ______ ____
ROOT
ATOM      1  N   UNL     1       1.802   6.329  19.631  0.00  0.00    +0.000 NA
ATOM      2  C   UNL     1       2.698   5.626  20.569  0.00  0.00    +0.000 C 
ATOM      3  C   UNL     1       2.181   4.293  21.115  0.00  0.00    +0.000 C 
ATOM      4  C   UNL     1       1.880   3.171  20.129  0.00  0.00    +0.000 C 
ATOM      5  N   UNL     1       2.379   3.386  18.781  0.00  0.00    +0.000 N 
ATOM      6  C   UNL     1       3.552   2.759  18.382  0.00  0.00    +0.000 C 
ATOM      7  O   UNL     1       4.198   2.039  19.151  0.00  0.00    +0.000 OA
ATOM      8  C   UNL     1       1.589   4.325  17.984  0.00  0.00    +0.000 C 
ATOM      9  C   UNL     1       1.920   5.808  18.242  0.00  0.00    +0.000 C 
ENDROOT
BRANCH   1  10
ATOM     10  C   UNL     1       2.158   7.778  19.585  0.00  0.00    +0.000 C 
BRANCH  10  15
ATOM     11  C   UNL     1      -1.245  11.199  22.882  0.00  0.00    +0.000 C 
ATOM     12  C   UNL     1      -0.363  10.342  22.022  0.00  0.00    +0.000 A 
ATOM     13  C   UNL     1      -0.262  10.551  20.644  0.00  0.00    +0.000 A 
ATOM     14  C   UNL     1       0.559   9.730  19.863  0.00  0.00    +0.000 A 
ATOM     15  C   UNL     1       1.302   8.688  20.445  0.00  0.00    +0.000 A 
ATOM     16  C   UNL     1       1.197   8.487  21.826  0.00  0.00    +0.000 A 
ATOM     17  C   UNL     1       0.373   9.304  22.605  0.00  0.00    +0.000 A 
ENDBRANCH  10  15
ENDBRANCH   1  10
BRANCH   6  18
ATOM     18  C   UNL     1       4.047   2.939  16.961  0.00  0.00    +0.000 C 
BRANCH  18  19
ATOM     19  N   UNL     1       5.205   3.813  16.911  0.00  0.00    +0.000 N 
ATOM     20  C   UNL     1       5.539   4.799  17.800  0.00  0.00    +0.000 A 
ATOM     21  C   UNL     1       6.692   5.375  17.315  0.00  0.00    +0.000 A 
ATOM     22  C   UNL     1       6.963   4.688  16.121  0.00  0.00    +0.000 A 
ATOM     23  N   UNL     1       6.053   3.742  15.860  0.00  0.00    +0.000 NA
BRANCH  21  24
ATOM     24  C   UNL     1       7.436   6.438  17.903  0.00  0.00    +0.000 C 
ATOM     25  N   UNL     1       8.032   7.308  18.382  0.00  0.00    +0.000 NA
ENDBRANCH  21  24
ENDBRANCH  18  19
ENDBRANCH   6  18
TORSDOF 5
ENDMDL
MODEL 6
REMARK VINA RESULT:      -7.0      0.917      1.176
REMARK  Name = 
REMARK  6 active torsions:
REMARK  status: ('A' for Active; 'I' for Inactive)
REMARK    1  A    between atoms: C_1  and  C_2
REMARK    2  A    between atoms: C_5  and  C_6
REMARK    3  A    between atoms: C_6  and  N_7
REMARK    4  A    between atoms: C_12  and  C_14
REMARK    5  A    between atoms: C_14  and  N_15
REMARK    6  A    between atoms: C_17  and  C_18
REMARK                            x       y       z     vdW  Elec       q    Type
REMARK                         _______ _______ _______ _____ _____    ______ ____
ROOT
ATOM      1  N   UNL     1       1.830   6.165  19.697  0.00  0.00    +0.000 NA
ATOM      2  C   UNL     1       2.679   5.412  20.640  0.00  0.00    +0.000 C 
ATOM      3  C   UNL     1       2.097   4.096  21.159  0.00  0.00    +0.000 C 
ATOM      4  C   UNL     1       1.765   3.001  20.154  0.00  0.00    +0.000 C 
ATOM      5  N   UNL     1       2.295   3.212  18.817  0.00  0.00    +0.000 N 
ATOM      6  C   UNL     1       3.448   2.541  18.428  0.00  0.00    +0.000 C 
ATOM      7  O   UNL     1       4.049   1.783  19.198  0.00  0.00    +0.000 OA
ATOM      8  C   UNL     1       1.559   4.194  18.020  0.00  0.00    +0.000 C 
ATOM      9  C   UNL     1       1.949   5.658  18.303  0.00  0.00    +0.000 C 
ENDROOT
BRANCH   1  10
ATOM     10  C   UNL     1       2.248   7.598  19.677  0.00  0.00    +0.000 C 
BRANCH  10  15
ATOM     11  C   UNL     1      -1.089  11.355  22.661  0.00  0.00    +0.000 C 
ATOM     12  C   UNL     1      -0.241  10.370  21.911  0.00  0.00    +0.000 A 
ATOM     13  C   UNL     1       0.481   9.374  22.574  0.00  0.00    +0.000 A 
ATOM     14  C   UNL     1       1.274   8.476  21.851  0.00  0.00    +0.000 A 
ATOM     15  C   UNL     1       1.354   8.550  20.449  0.00  0.00    +0.000 A 
ATOM     16  C   UNL     1       0.627   9.549  19.793  0.00  0.00    +0.000 A 
ATOM     17  C   UNL     1      -0.161  10.450  20.516  0.00  0.00    +0.000 A 
ENDBRANCH  10  15
ENDBRANCH   1  10
BRANCH   6  18
ATOM     18  C   UNL     1       3.973   2.718  17.018  0.00  0.00    +0.000 C 
BRANCH  18  19
ATOM     19  N   UNL     1       4.961   3.779  16.951  0.00  0.00    +0.000 N 
ATOM     20  C   UNL     1       5.644   4.344  17.995  0.00  0.00    +0.000 A 
ATOM     21  C   UNL     1       6.434   5.328  17.446  0.00  0.00    +0.000 A 
ATOM     22  C   UNL     1       6.142   5.299  16.072  0.00  0.00    +0.000 A 
ATOM     23  N   UNL     1       5.235   4.366  15.764  0.00  0.00    +0.000 NA
BRANCH  21  24
ATOM     24  C   UNL     1       7.343   6.184  18.131  0.00  0.00    +0.000 C 
ATOM     25  N   UNL     1       8.075   6.881  18.697  0.00  0.00    +0.000 NA
ENDBRANCH  21  24
ENDBRANCH  18  19
ENDBRANCH   6  18
TORSDOF 5
ENDMDL
MODEL 7
REMARK VINA RESULT:      -7.0      1.336      1.785
REMARK  Name = 
REMARK  6 active torsions:
REMARK  status: ('A' for Active; 'I' for Inactive)
REMARK    1  A    between atoms: C_1  and  C_2
REMARK    2  A    between atoms: C_5  and  C_6
REMARK    3  A    between atoms: C_6  and  N_7
REMARK    4  A    between atoms: C_12  and  C_14
REMARK    5  A    between atoms: C_14  and  N_15
REMARK    6  A    between atoms: C_17  and  C_18
REMARK                            x       y       z     vdW  Elec       q    Type
REMARK                         _______ _______ _______ _____ _____    ______ ____
ROOT
ATOM      1  N   UNL     1       1.653   5.870  19.930  0.00  0.00    +0.000 NA
ATOM      2  C   UNL     1       2.158   4.742  20.736  0.00  0.00    +0.000 C 
ATOM      3  C   UNL     1       1.275   3.493  20.763  0.00  0.00    +0.000 C 
ATOM      4  C   UNL     1       0.981   2.781  19.448  0.00  0.00    +0.000 C 
ATOM      5  N   UNL     1       1.799   3.204  18.324  0.00  0.00    +0.000 N 
ATOM      6  C   UNL     1       2.881   2.423  17.938  0.00  0.00    +0.000 C 
ATOM      7  O   UNL     1       3.181   1.386  18.541  0.00  0.00    +0.000 OA
ATOM      8  C   UNL     1       1.411   4.488  17.739  0.00  0.00    +0.000 C 
ATOM      9  C   UNL     1       1.969   5.717  18.485  0.00  0.00    +0.000 C 
ENDROOT
BRANCH   1  10
ATOM     10  C   UNL     1       2.295   7.140  20.384  0.00  0.00    +0.000 C 
BRANCH  10  15
ATOM     11  C   UNL     1      -1.312  11.738  20.492  0.00  0.00    +0.000 C 
ATOM     12  C   UNL     1      -0.367  10.572  20.452  0.00  0.00    +0.000 A 
ATOM     13  C   UNL     1       0.393  10.288  19.314  0.00  0.00    +0.000 A 
ATOM     14  C   UNL     1       1.258   9.187  19.299  0.00  0.00    +0.000 A 
ATOM     15  C   UNL     1       1.386   8.354  20.423  0.00  0.00    +0.000 A 
ATOM     16  C   UNL     1       0.622   8.646  21.559  0.00  0.00    +0.000 A 
ATOM     17  C   UNL     1      -0.245   9.742  21.572  0.00  0.00    +0.000 A 
ENDBRANCH  10  15
ENDBRANCH   1  10
BRANCH   6  18
ATOM     18  C   UNL     1       3.704   2.832  16.734  0.00  0.00    +0.000 C 
BRANCH  18  19
ATOM     19  N   UNL     1       4.891   3.567  17.130  0.00  0.00    +0.000 N 
ATOM     20  C   UNL     1       5.233   3.973  18.393  0.00  0.00    +0.000 A 
ATOM     21  C   UNL     1       6.417   4.663  18.264  0.00  0.00    +0.000 A 
ATOM     22  C   UNL     1       6.699   4.641  16.888  0.00  0.00    +0.000 A 
ATOM     23  N   UNL     1       5.766   3.986  16.188  0.00  0.00    +0.000 NA
BRANCH  21  24
ATOM     24  C   UNL     1       7.179   5.265  19.305  0.00  0.00    +0.000 C 
ATOM     25  N   UNL     1       7.806   5.747  20.152  0.00  0.00    +0.000 NA
ENDBRANCH  21  24
ENDBRANCH  18  19
ENDBRANCH   6  18
TORSDOF 5
ENDMDL
MODEL 8
REMARK VINA RESULT:      -7.0      2.275      6.204
REMARK  Name = 
REMARK  6 active torsions:
REMARK  status: ('A' for Active; 'I' for Inactive)
REMARK    1  A    between atoms: C_1  and  C_2
REMARK    2  A    between atoms: C_5  and  C_6
REMARK    3  A    between atoms: C_6  and  N_7
REMARK    4  A    between atoms: C_12  and  C_14
REMARK    5  A    between atoms: C_14  and  N_15
REMARK    6  A    between atoms: C_17  and  C_18
REMARK                            x       y       z     vdW  Elec       q    Type
REMARK                         _______ _______ _______ _____ _____    ______ ____
ROOT
ATOM      1  N   UNL     1       4.325   3.022  17.535  0.00  0.00    +0.000 NA
ATOM      2  C   UNL     1       2.894   3.061  17.178  0.00  0.00    +0.000 C 
ATOM      3  C   UNL     1       2.002   2.036  17.881  0.00  0.00    +0.000 C 
ATOM      4  C   UNL     1       1.906   2.075  19.400  0.00  0.00    +0.000 C 
ATOM      5  N   UNL     1       2.461   3.267  20.021  0.00  0.00    +0.000 N 
ATOM      6  C   UNL     1       1.605   4.282  20.430  0.00  0.00    +0.000 C 
ATOM      7  O   UNL     1       0.383   4.208  20.261  0.00  0.00    +0.000 OA
ATOM      8  C   UNL     1       3.922   3.290  20.092  0.00  0.00    +0.000 C 
ATOM      9  C   UNL     1       4.611   3.759  18.796  0.00  0.00    +0.000 C 
ENDROOT
BRANCH   1  10
ATOM     10  C   UNL     1       5.130   3.671  16.459  0.00  0.00    +0.000 C 
BRANCH  10  15
ATOM     11  C   UNL     1       8.029   8.537  17.899  0.00  0.00    +0.000 C 
ATOM     12  C   UNL     1       7.291   7.277  17.553  0.00  0.00    +0.000 A 
ATOM     13  C   UNL     1       7.815   6.017  17.858  0.00  0.00    +0.000 A 
ATOM     14  C   UNL     1       7.111   4.857  17.513  0.00  0.00    +0.000 A 
ATOM     15  C   UNL     1       5.867   4.934  16.864  0.00  0.00    +0.000 A 
ATOM     16  C   UNL     1       5.349   6.198  16.565  0.00  0.00    +0.000 A 
ATOM     17  C   UNL     1       6.054   7.357  16.904  0.00  0.00    +0.000 A 
ENDBRANCH  10  15
ENDBRANCH   1  10
BRANCH   6  18
ATOM     18  C   UNL     1       2.175   5.501  21.125  0.00  0.00    +0.000 C 
BRANCH  18  19
ATOM     19  N   UNL     1       2.074   6.682  20.288  0.00  0.00    +0.000 N 
ATOM     20  C   UNL     1       1.439   7.858  20.585  0.00  0.00    +0.000 A 
ATOM     21  C   UNL     1       1.581   8.660  19.474  0.00  0.00    +0.000 A 
ATOM     22  C   UNL     1       2.292   7.874  18.552  0.00  0.00    +0.000 A 
ATOM     23  N   UNL     1       2.585   6.662  19.036  0.00  0.00    +0.000 NA
BRANCH  21  24
ATOM     24  C   UNL     1       1.103   9.991  19.308  0.00  0.00    +0.000 C 
ATOM     25  N   UNL     1       0.704  11.070  19.170  0.00  0.00    +0.000 NA
ENDBRANCH  21  24
ENDBRANCH  18  19
ENDBRANCH   6  18
TORSDOF 5
ENDMDL
MODEL 9
REMARK VINA RESULT:      -6.9      1.802      2.393
REMARK  Name = 
REMARK  6 active torsions:
REMARK  status: ('A' for Active; 'I' for Inactive)
REMARK    1  A    between atoms: C_1  and  C_2
REMARK    2  A    between atoms: C_5  and  C_6
REMARK    3  A    between atoms: C_6  and  N_7
REMARK    4  A    between atoms: C_12  and  C_14
REMARK    5  A    between atoms: C_14  and  N_15
REMARK    6  A    between atoms: C_17  and  C_18
REMARK                            x       y       z     vdW  Elec       q    Type
REMARK                         _______ _______ _______ _____ _____    ______ ____
ROOT
ATOM      1  N   UNL     1       1.680   6.731  20.091  0.00  0.00    +0.000 NA
ATOM      2  C   UNL     1       1.742   5.440  20.803  0.00  0.00    +0.000 C 
ATOM      3  C   UNL     1       1.234   4.223  20.025  0.00  0.00    +0.000 C 
ATOM      4  C   UNL     1       1.929   3.851  18.722  0.00  0.00    +0.000 C 
ATOM      5  N   UNL     1       3.191   4.531  18.482  0.00  0.00    +0.000 N 
ATOM      6  C   UNL     1       4.382   3.863  18.736  0.00  0.00    +0.000 C 
ATOM      7  O   UNL     1       4.397   2.710  19.183  0.00  0.00    +0.000 OA
ATOM      8  C   UNL     1       3.059   5.919  18.039  0.00  0.00    +0.000 C 
ATOM      9  C   UNL     1       2.841   6.930  19.182  0.00  0.00    +0.000 C 
ENDROOT
BRANCH   1  10
ATOM     10  C   UNL     1       1.701   7.851  21.077  0.00  0.00    +0.000 C 
BRANCH  10  15
ATOM     11  C   UNL     1      -1.742  12.370  19.708  0.00  0.00    +0.000 C 
ATOM     12  C   UNL     1      -0.839  11.220  20.043  0.00  0.00    +0.000 A 
ATOM     13  C   UNL     1      -0.068  10.587  19.064  0.00  0.00    +0.000 A 
ATOM     14  C   UNL     1       0.757   9.508  19.402  0.00  0.00    +0.000 A 
ATOM     15  C   UNL     1       0.835   9.046  20.727  0.00  0.00    +0.000 A 
ATOM     16  C   UNL     1       0.062   9.687  21.702  0.00  0.00    +0.000 A 
ATOM     17  C   UNL     1      -0.767  10.760  21.363  0.00  0.00    +0.000 A 
ENDBRANCH  10  15
ENDBRANCH   1  10
BRANCH   6  18
ATOM     18  C   UNL     1       5.699   4.548  18.437  0.00  0.00    +0.000 C 
BRANCH  18  19
ATOM     19  N   UNL     1       6.028   4.469  17.026  0.00  0.00    +0.000 N 
ATOM     20  C   UNL     1       6.947   5.221  16.344  0.00  0.00    +0.000 A 
ATOM     21  C   UNL     1       6.876   4.813  15.032  0.00  0.00    +0.000 A 
ATOM     22  C   UNL     1       5.872   3.831  15.014  0.00  0.00    +0.000 A 
ATOM     23  N   UNL     1       5.341   3.624  16.224  0.00  0.00    +0.000 NA
BRANCH  21  24
ATOM     24  C   UNL     1       7.654   5.292  13.939  0.00  0.00    +0.000 C 
ATOM     25  N   UNL     1       8.283   5.673  13.044  0.00  0.00    +0.000 NA
ENDBRANCH  21  24
ENDBRANCH  18  19
ENDBRANCH   6  18
TORSDOF 5
ENDMDL
