MODEL 1
REMARK VINA RESULT:      -7.9      0.000      0.000
REMARK  Name = 
REMARK  9 active torsions:
REMARK  status: ('A' for Active; 'I' for Inactive)
REMARK    1  A    between atoms: C_1  and  C_2
REMARK    2  A    between atoms: C_4  and  N_5
REMARK    3  A    between atoms: N_5  and  C_6
REMARK    4  A    between atoms: C_10  and  C_11
REMARK    5  A    between atoms: C_12  and  C_13
REMARK    6  A    between atoms: C_15  and  S_16
REMARK    7  A    between atoms: S_16  and  C_17
REMARK    8  A    between atoms: C_17  and  C_18
REMARK    9  A    between atoms: C_18  and  O_20
REMARK                            x       y       z     vdW  Elec       q    Type
REMARK                         _______ _______ _______ _____ _____    ______ ____
ROOT
ATOM      1  C   UNL     1       8.057   7.852  18.059  0.00  0.00    +0.000 C 
ATOM      2  C   UNL     1       7.357   6.614  17.589  0.00  0.00    +0.000 A 
ATOM      3  C   UNL     1       6.615   5.837  18.446  0.00  0.00    +0.000 A 
ATOM      4  C   UNL     1       6.021   4.704  17.919  0.00  0.00    +0.000 A 
ATOM      5  N   UNL     1       6.151   4.366  16.612  0.00  0.00    +0.000 NA
ATOM      6  C   UNL     1       6.903   5.185  15.853  0.00  0.00    +0.000 A 
ATOM      7  N   UNL     1       7.510   6.294  16.293  0.00  0.00    +0.000 NA
ENDROOT
BRANCH   4   8
ATOM      8  N   UNL     1       5.304   3.874  18.809  0.00  0.00    +0.000 N 
ATOM      9  H   UNL     1       5.902   3.427  19.490  0.00  0.00    +0.000 HD
BRANCH   8  10
ATOM     10  C   UNL     1       3.945   3.978  19.177  0.00  0.00    +0.000 A 
ATOM     11  C   UNL     1       3.533   5.067  19.962  0.00  0.00    +0.000 A 
ATOM     12  C   UNL     1       2.216   5.196  20.384  0.00  0.00    +0.000 A 
ATOM     13  C   UNL     1       1.285   4.226  20.038  0.00  0.00    +0.000 A 
ATOM     14  C   UNL     1       1.653   3.124  19.247  0.00  0.00    +0.000 A 
ATOM     15  C   UNL     1       0.594   2.101  18.928  0.00  0.00    +0.000 C 
ATOM     16  C   UNL     1       2.990   3.000  18.795  0.00  0.00    +0.000 A 
ATOM     17  C   UNL     1       3.411   1.835  17.932  0.00  0.00    +0.000 C 
ENDBRANCH   8  10
ENDBRANCH   4   8
BRANCH   6  18
ATOM     18  S   UNL     1       7.201   4.786  14.152  0.00  0.00    +0.000 S 
BRANCH  18  19
ATOM     19  C   UNL     1       5.693   3.895  13.710  0.00  0.00    +0.000 C 
BRANCH  19  20
ATOM     20  C   UNL     1       5.762   3.291  12.328  0.00  0.00    +0.000 C 
ATOM     21  O   UNL     1       6.780   2.846  11.823  0.00  0.00    +0.000 OA
BRANCH  20  22
ATOM     22  O   UNL     1       4.570   3.264  11.683  0.00  0.00    +0.000 OA
ATOM     23  H   UNL     1       4.661   3.355  10.706  0.00  0.00    +0.000 HD
ENDBRANCH  20  22
ENDBRANCH  19  20
ENDBRANCH  18  19
ENDBRANCH   6  18
TORSDOF 6
ENDMDL
MODEL 2
REMARK VINA RESULT:      -7.7      1.218      1.529
REMARK  Name = 
REMARK  9 active torsions:
REMARK  status: ('A' for Active; 'I' for Inactive)
REMARK    1  A    between atoms: C_1  and  C_2
REMARK    2  A    between atoms: C_4  and  N_5
REMARK    3  A    between atoms: N_5  and  C_6
REMARK    4  A    between atoms: C_10  and  C_11
REMARK    5  A    between atoms: C_12  and  C_13
REMARK    6  A    between atoms: C_15  and  S_16
REMARK    7  A    between atoms: S_16  and  C_17
REMARK    8  A    between atoms: C_17  and  C_18
REMARK    9  A    between atoms: C_18  and  O_20
REMARK                            x       y       z     vdW  Elec       q    Type
REMARK                         _______ _______ _______ _____ _____    ______ ____
ROOT
ATOM      1  C   UNL     1       7.667   7.336  17.680  0.00  0.00    +0.000 C 
ATOM      2  C   UNL     1       7.036   6.141  17.032  0.00  0.00    +0.000 A 
ATOM      3  C   UNL     1       6.280   5.247  17.752  0.00  0.00    +0.000 A 
ATOM      4  C   UNL     1       5.753   4.168  17.066  0.00  0.00    +0.000 A 
ATOM      5  N   UNL     1       5.961   3.989  15.738  0.00  0.00    +0.000 NA
ATOM      6  C   UNL     1       6.719   4.914  15.121  0.00  0.00    +0.000 A 
ATOM      7  N   UNL     1       7.265   5.981  15.718  0.00  0.00    +0.000 NA
ENDROOT
BRANCH   4   8
ATOM      8  N   UNL     1       5.022   3.218  17.814  0.00  0.00    +0.000 N 
ATOM      9  H   UNL     1       5.620   2.577  18.317  0.00  0.00    +0.000 HD
BRANCH   8  10
ATOM     10  C   UNL     1       3.713   3.348  18.325  0.00  0.00    +0.000 A 
ATOM     11  C   UNL     1       2.729   3.958  17.530  0.00  0.00    +0.000 A 
ATOM     12  C   UNL     1       1.435   4.146  17.999  0.00  0.00    +0.000 A 
ATOM     13  C   UNL     1       1.104   3.736  19.283  0.00  0.00    +0.000 A 
ATOM     14  C   UNL     1       2.055   3.114  20.109  0.00  0.00    +0.000 A 
ATOM     15  C   UNL     1       1.630   2.715  21.498  0.00  0.00    +0.000 C 
ATOM     16  C   UNL     1       3.371   2.901  19.626  0.00  0.00    +0.000 A 
ATOM     17  C   UNL     1       4.410   2.222  20.486  0.00  0.00    +0.000 C 
ENDBRANCH   8  10
ENDBRANCH   4   8
BRANCH   6  18
ATOM     18  S   UNL     1       7.117   4.726  13.403  0.00  0.00    +0.000 S 
BRANCH  18  19
ATOM     19  C   UNL     1       5.898   3.503  12.872  0.00  0.00    +0.000 C 
BRANCH  19  20
ATOM     20  C   UNL     1       6.453   2.537  11.853  0.00  0.00    +0.000 C 
ATOM     21  O   UNL     1       7.583   2.597  11.395  0.00  0.00    +0.000 OA
BRANCH  20  22
ATOM     22  O   UNL     1       5.583   1.562  11.493  0.00  0.00    +0.000 OA
ATOM     23  H   UNL     1       5.591   1.380  10.524  0.00  0.00    +0.000 HD
ENDBRANCH  20  22
ENDBRANCH  19  20
ENDBRANCH  18  19
ENDBRANCH   6  18
TORSDOF 6
ENDMDL
MODEL 3
REMARK VINA RESULT:      -7.5      1.196      1.997
REMARK  Name = 
REMARK  9 active torsions:
REMARK  status: ('A' for Active; 'I' for Inactive)
REMARK    1  A    between atoms: C_1  and  C_2
REMARK    2  A    between atoms: C_4  and  N_5
REMARK    3  A    between atoms: N_5  and  C_6
REMARK    4  A    between atoms: C_10  and  C_11
REMARK    5  A    between atoms: C_12  and  C_13
REMARK    6  A    between atoms: C_15  and  S_16
REMARK    7  A    between atoms: S_16  and  C_17
REMARK    8  A    between atoms: C_17  and  C_18
REMARK    9  A    between atoms: C_18  and  O_20
REMARK                            x       y       z     vdW  Elec       q    Type
REMARK                         _______ _______ _______ _____ _____    ______ ____
ROOT
ATOM      1  C   UNL     1       7.902   7.648  18.019  0.00  0.00    +0.000 C 
ATOM      2  C   UNL     1       6.895   6.813  17.288  0.00  0.00    +0.000 A 
ATOM      3  C   UNL     1       5.615   6.648  17.763  0.00  0.00    +0.000 A 
ATOM      4  C   UNL     1       4.766   5.845  17.023  0.00  0.00    +0.000 A 
ATOM      5  N   UNL     1       5.162   5.244  15.874  0.00  0.00    +0.000 NA
ATOM      6  C   UNL     1       6.435   5.461  15.494  0.00  0.00    +0.000 A 
ATOM      7  N   UNL     1       7.315   6.220  16.157  0.00  0.00    +0.000 NA
ENDROOT
BRANCH   4   8
ATOM      8  N   UNL     1       3.468   5.628  17.538  0.00  0.00    +0.000 N 
ATOM      9  H   UNL     1       2.783   6.259  17.143  0.00  0.00    +0.000 HD
BRANCH   8  10
ATOM     10  C   UNL     1       2.944   4.434  18.078  0.00  0.00    +0.000 A 
ATOM     11  C   UNL     1       2.926   3.277  17.283  0.00  0.00    +0.000 A 
ATOM     12  C   UNL     1       2.386   2.086  17.752  0.00  0.00    +0.000 A 
ATOM     13  C   UNL     1       1.841   2.035  19.028  0.00  0.00    +0.000 A 
ATOM     14  C   UNL     1       1.846   3.166  19.860  0.00  0.00    +0.000 A 
ATOM     15  C   UNL     1       1.218   3.042  21.224  0.00  0.00    +0.000 C 
ATOM     16  C   UNL     1       2.415   4.378  19.393  0.00  0.00    +0.000 A 
ATOM     17  C   UNL     1       2.448   5.606  20.270  0.00  0.00    +0.000 C 
ENDBRANCH   8  10
ENDBRANCH   4   8
BRANCH   6  18
ATOM     18  S   UNL     1       7.073   4.655  14.049  0.00  0.00    +0.000 S 
BRANCH  18  19
ATOM     19  C   UNL     1       5.621   3.763  13.450  0.00  0.00    +0.000 C 
BRANCH  19  20
ATOM     20  C   UNL     1       5.862   3.094  12.118  0.00  0.00    +0.000 C 
ATOM     21  O   UNL     1       6.968   2.846  11.664  0.00  0.00    +0.000 OA
BRANCH  20  22
ATOM     22  O   UNL     1       4.725   2.763  11.458  0.00  0.00    +0.000 OA
ATOM     23  H   UNL     1       4.003   3.421  11.588  0.00  0.00    +0.000 HD
ENDBRANCH  20  22
ENDBRANCH  19  20
ENDBRANCH  18  19
ENDBRANCH   6  18
TORSDOF 6
ENDMDL
MODEL 4
REMARK VINA RESULT:      -7.4      2.938      4.129
REMARK  Name = 
REMARK  9 active torsions:
REMARK  status: ('A' for Active; 'I' for Inactive)
REMARK    1  A    between atoms: C_1  and  C_2
REMARK    2  A    between atoms: C_4  and  N_5
REMARK    3  A    between atoms: N_5  and  C_6
REMARK    4  A    between atoms: C_10  and  C_11
REMARK    5  A    between atoms: C_12  and  C_13
REMARK    6  A    between atoms: C_15  and  S_16
REMARK    7  A    between atoms: S_16  and  C_17
REMARK    8  A    between atoms: C_17  and  C_18
REMARK    9  A    between atoms: C_18  and  O_20
REMARK                            x       y       z     vdW  Elec       q    Type
REMARK                         _______ _______ _______ _____ _____    ______ ____
ROOT
ATOM      1  C   UNL     1       6.688   4.278  13.278  0.00  0.00    +0.000 C 
ATOM      2  C   UNL     1       6.259   4.445  14.704  0.00  0.00    +0.000 A 
ATOM      3  C   UNL     1       5.538   3.473  15.358  0.00  0.00    +0.000 A 
ATOM      4  C   UNL     1       5.176   3.729  16.668  0.00  0.00    +0.000 A 
ATOM      5  N   UNL     1       5.515   4.881  17.297  0.00  0.00    +0.000 NA
ATOM      6  C   UNL     1       6.215   5.774  16.572  0.00  0.00    +0.000 A 
ATOM      7  N   UNL     1       6.598   5.600  15.302  0.00  0.00    +0.000 NA
ENDROOT
BRANCH   4   8
ATOM      8  N   UNL     1       4.389   2.756  17.324  0.00  0.00    +0.000 N 
ATOM      9  H   UNL     1       4.898   1.902  17.507  0.00  0.00    +0.000 HD
BRANCH   8  10
ATOM     10  C   UNL     1       3.263   2.973  18.147  0.00  0.00    +0.000 A 
ATOM     11  C   UNL     1       2.095   3.505  17.577  0.00  0.00    +0.000 A 
ATOM     12  C   UNL     1       0.971   3.773  18.349  0.00  0.00    +0.000 A 
ATOM     13  C   UNL     1       1.001   3.525  19.715  0.00  0.00    +0.000 A 
ATOM     14  C   UNL     1       2.146   2.986  20.324  0.00  0.00    +0.000 A 
ATOM     15  C   UNL     1       2.113   2.763  21.814  0.00  0.00    +0.000 C 
ATOM     16  C   UNL     1       3.287   2.690  19.537  0.00  0.00    +0.000 A 
ATOM     17  C   UNL     1       4.526   2.096  20.162  0.00  0.00    +0.000 C 
ENDBRANCH   8  10
ENDBRANCH   4   8
BRANCH   6  18
ATOM     18  S   UNL     1       6.635   7.346  17.277  0.00  0.00    +0.000 S 
BRANCH  18  19
ATOM     19  C   UNL     1       7.974   6.901  18.405  0.00  0.00    +0.000 C 
BRANCH  19  20
ATOM     20  C   UNL     1       7.804   5.520  18.989  0.00  0.00    +0.000 C 
ATOM     21  O   UNL     1       8.470   4.550  18.663  0.00  0.00    +0.000 OA
BRANCH  20  22
ATOM     22  O   UNL     1       6.843   5.443  19.941  0.00  0.00    +0.000 OA
ATOM     23  H   UNL     1       6.891   6.179  20.595  0.00  0.00    +0.000 HD
ENDBRANCH  20  22
ENDBRANCH  19  20
ENDBRANCH  18  19
ENDBRANCH   6  18
TORSDOF 6
ENDMDL
MODEL 5
REMARK VINA RESULT:      -7.3      2.914      4.010
REMARK  Name = 
REMARK  9 active torsions:
REMARK  status: ('A' for Active; 'I' for Inactive)
REMARK    1  A    between atoms: C_1  and  C_2
REMARK    2  A    between atoms: C_4  and  N_5
REMARK    3  A    between atoms: N_5  and  C_6
REMARK    4  A    between atoms: C_10  and  C_11
REMARK    5  A    between atoms: C_12  and  C_13
REMARK    6  A    between atoms: C_15  and  S_16
REMARK    7  A    between atoms: S_16  and  C_17
REMARK    8  A    between atoms: C_17  and  C_18
REMARK    9  A    between atoms: C_18  and  O_20
REMARK                            x       y       z     vdW  Elec       q    Type
REMARK                         _______ _______ _______ _____ _____    ______ ____
ROOT
ATOM      1  C   UNL     1       6.825   4.345  13.598  0.00  0.00    +0.000 C 
ATOM      2  C   UNL     1       6.226   4.789  14.898  0.00  0.00    +0.000 A 
ATOM      3  C   UNL     1       5.103   4.187  15.416  0.00  0.00    +0.000 A 
ATOM      4  C   UNL     1       4.617   4.681  16.613  0.00  0.00    +0.000 A 
ATOM      5  N   UNL     1       5.215   5.711  17.263  0.00  0.00    +0.000 NA
ATOM      6  C   UNL     1       6.304   6.239  16.673  0.00  0.00    +0.000 A 
ATOM      7  N   UNL     1       6.829   5.818  15.517  0.00  0.00    +0.000 NA
ENDROOT
BRANCH   4   8
ATOM      8  N   UNL     1       3.433   4.101  17.121  0.00  0.00    +0.000 N 
ATOM      9  H   UNL     1       3.252   3.186  16.731  0.00  0.00    +0.000 HD
BRANCH   8  10
ATOM     10  C   UNL     1       2.808   4.363  18.358  0.00  0.00    +0.000 A 
ATOM     11  C   UNL     1       2.525   5.693  18.710  0.00  0.00    +0.000 A 
ATOM     12  C   UNL     1       1.946   6.010  19.932  0.00  0.00    +0.000 A 
ATOM     13  C   UNL     1       1.650   4.998  20.835  0.00  0.00    +0.000 A 
ATOM     14  C   UNL     1       1.909   3.653  20.520  0.00  0.00    +0.000 A 
ATOM     15  C   UNL     1       1.580   2.611  21.557  0.00  0.00    +0.000 C 
ATOM     16  C   UNL     1       2.479   3.324  19.265  0.00  0.00    +0.000 A 
ATOM     17  C   UNL     1       2.755   1.887  18.894  0.00  0.00    +0.000 C 
ENDBRANCH   8  10
ENDBRANCH   4   8
BRANCH   6  18
ATOM     18  S   UNL     1       7.108   7.641  17.401  0.00  0.00    +0.000 S 
BRANCH  18  19
ATOM     19  C   UNL     1       8.226   6.856  18.583  0.00  0.00    +0.000 C 
BRANCH  19  20
ATOM     20  C   UNL     1       7.726   5.509  19.046  0.00  0.00    +0.000 C 
ATOM     21  O   UNL     1       7.075   5.330  20.063  0.00  0.00    +0.000 OA
BRANCH  20  22
ATOM     22  O   UNL     1       8.048   4.490  18.212  0.00  0.00    +0.000 OA
ATOM     23  H   UNL     1       7.282   4.174  17.678  0.00  0.00    +0.000 HD
ENDBRANCH  20  22
ENDBRANCH  19  20
ENDBRANCH  18  19
ENDBRANCH   6  18
TORSDOF 6
ENDMDL
MODEL 6
REMARK VINA RESULT:      -7.3      3.862      6.082
REMARK  Name = 
REMARK  9 active torsions:
REMARK  status: ('A' for Active; 'I' for Inactive)
REMARK    1  A    between atoms: C_1  and  C_2
REMARK    2  A    between atoms: C_4  and  N_5
REMARK    3  A    between atoms: N_5  and  C_6
REMARK    4  A    between atoms: C_10  and  C_11
REMARK    5  A    between atoms: C_12  and  C_13
REMARK    6  A    between atoms: C_15  and  S_16
REMARK    7  A    between atoms: S_16  and  C_17
REMARK    8  A    between atoms: C_17  and  C_18
REMARK    9  A    between atoms: C_18  and  O_20
REMARK                            x       y       z     vdW  Elec       q    Type
REMARK                         _______ _______ _______ _____ _____    ______ ____
ROOT
ATOM      1  C   UNL     1       0.845   2.461  19.045  0.00  0.00    +0.000 C 
ATOM      2  C   UNL     1       1.808   3.573  19.334  0.00  0.00    +0.000 A 
ATOM      3  C   UNL     1       1.394   4.752  19.909  0.00  0.00    +0.000 A 
ATOM      4  C   UNL     1       2.356   5.723  20.120  0.00  0.00    +0.000 A 
ATOM      5  N   UNL     1       3.656   5.533  19.785  0.00  0.00    +0.000 NA
ATOM      6  C   UNL     1       3.963   4.349  19.222  0.00  0.00    +0.000 A 
ATOM      7  N   UNL     1       3.088   3.365  18.984  0.00  0.00    +0.000 NA
ENDROOT
BRANCH   4   8
ATOM      8  N   UNL     1       1.925   6.956  20.659  0.00  0.00    +0.000 N 
ATOM      9  H   UNL     1       2.229   7.090  21.614  0.00  0.00    +0.000 HD
BRANCH   8  10
ATOM     10  C   UNL     1       1.608   8.139  19.957  0.00  0.00    +0.000 A 
ATOM     11  C   UNL     1       2.047   8.282  18.631  0.00  0.00    +0.000 A 
ATOM     12  C   UNL     1       1.796   9.441  17.907  0.00  0.00    +0.000 A 
ATOM     13  C   UNL     1       1.109  10.488  18.506  0.00  0.00    +0.000 A 
ATOM     14  C   UNL     1       0.646  10.385  19.828  0.00  0.00    +0.000 A 
ATOM     15  C   UNL     1      -0.074  11.569  20.418  0.00  0.00    +0.000 C 
ATOM     16  C   UNL     1       0.880   9.195  20.562  0.00  0.00    +0.000 A 
ATOM     17  C   UNL     1       0.381   9.049  21.979  0.00  0.00    +0.000 C 
ENDBRANCH   8  10
ENDBRANCH   4   8
BRANCH   6  18
ATOM     18  S   UNL     1       5.619   4.036  18.675  0.00  0.00    +0.000 S 
BRANCH  18  19
ATOM     19  C   UNL     1       5.743   5.113  17.230  0.00  0.00    +0.000 C 
BRANCH  19  20
ATOM     20  C   UNL     1       7.139   5.158  16.659  0.00  0.00    +0.000 C 
ATOM     21  O   UNL     1       7.536   6.011  15.880  0.00  0.00    +0.000 OA
BRANCH  20  22
ATOM     22  O   UNL     1       7.945   4.164  17.105  0.00  0.00    +0.000 OA
ATOM     23  H   UNL     1       8.824   4.490  17.410  0.00  0.00    +0.000 HD
ENDBRANCH  20  22
ENDBRANCH  19  20
ENDBRANCH  18  19
ENDBRANCH   6  18
TORSDOF 6
ENDMDL
MODEL 7
REMARK VINA RESULT:      -7.2      3.483      5.303
REMARK  Name = 
REMARK  9 active torsions:
REMARK  status: ('A' for Active; 'I' for Inactive)
REMARK    1  A    between atoms: C_1  and  C_2
REMARK    2  A    between atoms: C_4  and  N_5
REMARK    3  A    between atoms: N_5  and  C_6
REMARK    4  A    between atoms: C_10  and  C_11
REMARK    5  A    between atoms: C_12  and  C_13
REMARK    6  A    between atoms: C_15  and  S_16
REMARK    7  A    between atoms: S_16  and  C_17
REMARK    8  A    between atoms: C_17  and  C_18
REMARK    9  A    between atoms: C_18  and  O_20
REMARK                            x       y       z     vdW  Elec       q    Type
REMARK                         _______ _______ _______ _____ _____    ______ ____
ROOT
ATOM      1  C   UNL     1       2.185   2.508  17.791  0.00  0.00    +0.000 C 
ATOM      2  C   UNL     1       2.964   3.674  18.318  0.00  0.00    +0.000 A 
ATOM      3  C   UNL     1       2.362   4.669  19.053  0.00  0.00    +0.000 A 
ATOM      4  C   UNL     1       3.164   5.712  19.481  0.00  0.00    +0.000 A 
ATOM      5  N   UNL     1       4.490   5.762  19.201  0.00  0.00    +0.000 NA
ATOM      6  C   UNL     1       4.986   4.746  18.470  0.00  0.00    +0.000 A 
ATOM      7  N   UNL     1       4.273   3.707  18.019  0.00  0.00    +0.000 NA
ENDROOT
BRANCH   4   8
ATOM      8  N   UNL     1       2.538   6.762  20.188  0.00  0.00    +0.000 N 
ATOM      9  H   UNL     1       2.885   6.855  21.134  0.00  0.00    +0.000 HD
BRANCH   8  10
ATOM     10  C   UNL     1       1.933   7.920  19.653  0.00  0.00    +0.000 A 
ATOM     11  C   UNL     1       2.115   8.216  18.293  0.00  0.00    +0.000 A 
ATOM     12  C   UNL     1       1.575   9.362  17.724  0.00  0.00    +0.000 A 
ATOM     13  C   UNL     1       0.850  10.244  18.515  0.00  0.00    +0.000 A 
ATOM     14  C   UNL     1       0.637   9.983  19.878  0.00  0.00    +0.000 A 
ATOM     15  C   UNL     1      -0.143  10.994  20.677  0.00  0.00    +0.000 C 
ATOM     16  C   UNL     1       1.167   8.802  20.457  0.00  0.00    +0.000 A 
ATOM     17  C   UNL     1       0.943   8.487  21.916  0.00  0.00    +0.000 C 
ENDBRANCH   8  10
ENDBRANCH   4   8
BRANCH   6  18
ATOM     18  S   UNL     1       6.690   4.760  17.982  0.00  0.00    +0.000 S 
BRANCH  18  19
ATOM     19  C   UNL     1       6.595   4.146  16.285  0.00  0.00    +0.000 C 
BRANCH  19  20
ATOM     20  C   UNL     1       6.755   5.244  15.262  0.00  0.00    +0.000 C 
ATOM     21  O   UNL     1       7.735   5.379  14.546  0.00  0.00    +0.000 OA
BRANCH  20  22
ATOM     22  O   UNL     1       5.690   6.079  15.185  0.00  0.00    +0.000 OA
ATOM     23  H   UNL     1       5.855   6.951  15.613  0.00  0.00    +0.000 HD
ENDBRANCH  20  22
ENDBRANCH  19  20
ENDBRANCH  18  19
ENDBRANCH   6  18
TORSDOF 6
ENDMDL
MODEL 8
REMARK VINA RESULT:      -7.2      2.976      4.196
REMARK  Name = 
REMARK  9 active torsions:
REMARK  status: ('A' for Active; 'I' for Inactive)
REMARK    1  A    between atoms: C_1  and  C_2
REMARK    2  A    between atoms: C_4  and  N_5
REMARK    3  A    between atoms: N_5  and  C_6
REMARK    4  A    between atoms: C_10  and  C_11
REMARK    5  A    between atoms: C_12  and  C_13
REMARK    6  A    between atoms: C_15  and  S_16
REMARK    7  A    between atoms: S_16  and  C_17
REMARK    8  A    between atoms: C_17  and  C_18
REMARK    9  A    between atoms: C_18  and  O_20
REMARK                            x       y       z     vdW  Elec       q    Type
REMARK                         _______ _______ _______ _____ _____    ______ ____
ROOT
ATOM      1  C   UNL     1       7.154   4.433  13.390  0.00  0.00    +0.000 C 
ATOM      2  C   UNL     1       6.569   4.614  14.757  0.00  0.00    +0.000 A 
ATOM      3  C   UNL     1       5.709   3.689  15.301  0.00  0.00    +0.000 A 
ATOM      4  C   UNL     1       5.210   3.956  16.563  0.00  0.00    +0.000 A 
ATOM      5  N   UNL     1       5.550   5.075  17.250  0.00  0.00    +0.000 NA
ATOM      6  C   UNL     1       6.392   5.924  16.632  0.00  0.00    +0.000 A 
ATOM      7  N   UNL     1       6.913   5.736  15.413  0.00  0.00    +0.000 NA
ENDROOT
BRANCH   4   8
ATOM      8  N   UNL     1       4.284   3.035  17.102  0.00  0.00    +0.000 N 
ATOM      9  H   UNL     1       4.303   2.143  16.627  0.00  0.00    +0.000 HD
BRANCH   8  10
ATOM     10  C   UNL     1       3.757   3.010  18.411  0.00  0.00    +0.000 A 
ATOM     11  C   UNL     1       4.470   2.340  19.419  0.00  0.00    +0.000 A 
ATOM     12  C   UNL     1       3.978   2.251  20.715  0.00  0.00    +0.000 A 
ATOM     13  C   UNL     1       2.751   2.823  21.024  0.00  0.00    +0.000 A 
ATOM     14  C   UNL     1       2.009   3.509  20.049  0.00  0.00    +0.000 A 
ATOM     15  C   UNL     1       0.677   4.086  20.452  0.00  0.00    +0.000 C 
ATOM     16  C   UNL     1       2.518   3.621  18.731  0.00  0.00    +0.000 A 
ATOM     17  C   UNL     1       1.750   4.365  17.665  0.00  0.00    +0.000 C 
ENDBRANCH   8  10
ENDBRANCH   4   8
BRANCH   6  18
ATOM     18  S   UNL     1       6.833   7.453  17.412  0.00  0.00    +0.000 S 
BRANCH  18  19
ATOM     19  C   UNL     1       8.168   6.938  18.514  0.00  0.00    +0.000 C 
BRANCH  19  20
ATOM     20  C   UNL     1       7.899   5.602  19.163  0.00  0.00    +0.000 C 
ATOM     21  O   UNL     1       7.440   5.464  20.286  0.00  0.00    +0.000 OA
BRANCH  20  22
ATOM     22  O   UNL     1       8.197   4.540  18.375  0.00  0.00    +0.000 OA
ATOM     23  H   UNL     1       7.403   4.156  17.935  0.00  0.00    +0.000 HD
ENDBRANCH  20  22
ENDBRANCH  19  20
ENDBRANCH  18  19
ENDBRANCH   6  18
TORSDOF 6
ENDMDL
MODEL 9
REMARK VINA RESULT:      -7.2      4.179      6.267
REMARK  Name = 
REMARK  9 active torsions:
REMARK  status: ('A' for Active; 'I' for Inactive)
REMARK    1  A    between atoms: C_1  and  C_2
REMARK    2  A    between atoms: C_4  and  N_5
REMARK    3  A    between atoms: N_5  and  C_6
REMARK    4  A    between atoms: C_10  and  C_11
REMARK    5  A    between atoms: C_12  and  C_13
REMARK    6  A    between atoms: C_15  and  S_16
REMARK    7  A    between atoms: S_16  and  C_17
REMARK    8  A    between atoms: C_17  and  C_18
REMARK    9  A    between atoms: C_18  and  O_20
REMARK                            x       y       z     vdW  Elec       q    Type
REMARK                         _______ _______ _______ _____ _____    ______ ____
ROOT
ATOM      1  C   UNL     1       1.197   2.313  19.013  0.00  0.00    +0.000 C 
ATOM      2  C   UNL     1       2.138   3.473  19.126  0.00  0.00    +0.000 A 
ATOM      3  C   UNL     1       1.781   4.629  19.780  0.00  0.00    +0.000 A 
ATOM      4  C   UNL     1       2.715   5.649  19.816  0.00  0.00    +0.000 A 
ATOM      5  N   UNL     1       3.936   5.527  19.240  0.00  0.00    +0.000 NA
ATOM      6  C   UNL     1       4.191   4.361  18.617  0.00  0.00    +0.000 A 
ATOM      7  N   UNL     1       3.338   3.332  18.538  0.00  0.00    +0.000 NA
ENDROOT
BRANCH   4   8
ATOM      8  N   UNL     1       2.331   6.857  20.439  0.00  0.00    +0.000 N 
ATOM      9  H   UNL     1       2.822   7.020  21.307  0.00  0.00    +0.000 HD
BRANCH   8  10
ATOM     10  C   UNL     1       1.797   8.011  19.825  0.00  0.00    +0.000 A 
ATOM     11  C   UNL     1       2.044   8.233  18.460  0.00  0.00    +0.000 A 
ATOM     12  C   UNL     1       1.575   9.370  17.816  0.00  0.00    +0.000 A 
ATOM     13  C   UNL     1       0.858  10.319  18.533  0.00  0.00    +0.000 A 
ATOM     14  C   UNL     1       0.581  10.133  19.898  0.00  0.00    +0.000 A 
ATOM     15  C   UNL     1      -0.185  11.214  20.615  0.00  0.00    +0.000 C 
ATOM     16  C   UNL     1       1.038   8.963  20.553  0.00  0.00    +0.000 A 
ATOM     17  C   UNL     1       0.744   8.729  22.015  0.00  0.00    +0.000 C 
ENDBRANCH   8  10
ENDBRANCH   4   8
BRANCH   6  18
ATOM     18  S   UNL     1       5.728   4.134  17.763  0.00  0.00    +0.000 S 
BRANCH  18  19
ATOM     19  C   UNL     1       6.371   5.821  17.701  0.00  0.00    +0.000 C 
BRANCH  19  20
ATOM     20  C   UNL     1       7.372   6.100  18.796  0.00  0.00    +0.000 C 
ATOM     21  O   UNL     1       8.270   6.923  18.712  0.00  0.00    +0.000 OA
BRANCH  20  22
ATOM     22  O   UNL     1       7.179   5.360  19.915  0.00  0.00    +0.000 OA
ATOM     23  H   UNL     1       8.011   5.207  20.421  0.00  0.00    +0.000 HD
ENDBRANCH  20  22
ENDBRANCH  19  20
ENDBRANCH  18  19
ENDBRANCH   6  18
TORSDOF 6
ENDMDL
