MODEL 1
REMARK VINA RESULT:      -8.0      0.000      0.000
REMARK  Name = 
REMARK  3 active torsions:
REMARK  status: ('A' for Active; 'I' for Inactive)
REMARK    1  A    between atoms: C_1  and  C_2
REMARK    2  A    between atoms: C_7  and  C_8
REMARK    3  A    between atoms: N_12  and  C_13
REMARK                            x       y       z     vdW  Elec       q    Type
REMARK                         _______ _______ _______ _____ _____    ______ ____
ROOT
ATOM      1  C   UNL     1       2.756   6.043  18.711  0.00  0.00    +0.000 A 
ATOM      2  N   UNL     1       2.290   7.271  18.879  0.00  0.00    +0.000 NA
ATOM      3  N   UNL     1       3.009   8.099  18.072  0.00  0.00    +0.000 NA
ATOM      4  N   UNL     1       3.906   7.419  17.382  0.00  0.00    +0.000 NA
ATOM      5  N   UNL     1       3.737   6.133  17.741  0.00  0.00    +0.000 N 
ENDROOT
BRANCH   1  12
ATOM      6  C   UNL     1       1.104   3.860  17.454  0.00  0.00    +0.000 C 
ATOM      7  C   UNL     1       1.466   3.882  18.919  0.00  0.00    +0.000 A 
ATOM      8  C   UNL     1       0.915   2.877  19.739  0.00  0.00    +0.000 A 
ATOM      9  C   UNL     1       1.219   2.811  21.096  0.00  0.00    +0.000 A 
ATOM     10  C   UNL     1       2.088   3.739  21.649  0.00  0.00    +0.000 A 
ATOM     11  C   UNL     1       2.617   4.761  20.856  0.00  0.00    +0.000 A 
ATOM     12  C   UNL     1       2.313   4.868  19.487  0.00  0.00    +0.000 A 
ENDBRANCH   1  12
BRANCH   5  13
ATOM     13  C   UNL     1       4.503   5.106  17.060  0.00  0.00    +0.000 C 
ATOM     14  C   UNL     1       5.358   4.258  18.022  0.00  0.00    +0.000 C 
ATOM     15  C   UNL     1       6.678   4.985  18.236  0.00  0.00    +0.000 C 
ATOM     16  S   UNL     1       7.088   5.622  16.629  0.00  0.00    +0.000 S 
ATOM     17  O   UNL     1       7.823   4.592  15.921  0.00  0.00    +0.000 OA
ATOM     18  O   UNL     1       7.591   6.969  16.759  0.00  0.00    +0.000 OA
ATOM     19  C   UNL     1       5.432   5.653  15.965  0.00  0.00    +0.000 C 
ENDBRANCH   5  13
TORSDOF 2
ENDMDL
MODEL 2
REMARK VINA RESULT:      -7.5      0.631      1.597
REMARK  Name = 
REMARK  3 active torsions:
REMARK  status: ('A' for Active; 'I' for Inactive)
REMARK    1  A    between atoms: C_1  and  C_2
REMARK    2  A    between atoms: C_7  and  C_8
REMARK    3  A    between atoms: N_12  and  C_13
REMARK                            x       y       z     vdW  Elec       q    Type
REMARK                         _______ _______ _______ _____ _____    ______ ____
ROOT
ATOM      1  C   UNL     1       2.523   6.024  18.168  0.00  0.00    +0.000 A 
ATOM      2  N   UNL     1       2.117   7.280  18.275  0.00  0.00    +0.000 NA
ATOM      3  N   UNL     1       3.050   8.067  17.673  0.00  0.00    +0.000 NA
ATOM      4  N   UNL     1       4.028   7.337  17.170  0.00  0.00    +0.000 NA
ATOM      5  N   UNL     1       3.697   6.060  17.437  0.00  0.00    +0.000 N 
ENDROOT
BRANCH   1  12
ATOM      6  C   UNL     1       1.964   5.929  21.126  0.00  0.00    +0.000 C 
ATOM      7  C   UNL     1       1.654   4.787  20.190  0.00  0.00    +0.000 A 
ATOM      8  C   UNL     1       1.169   3.593  20.761  0.00  0.00    +0.000 A 
ATOM      9  C   UNL     1       0.835   2.501  19.966  0.00  0.00    +0.000 A 
ATOM     10  C   UNL     1       0.966   2.591  18.588  0.00  0.00    +0.000 A 
ATOM     11  C   UNL     1       1.476   3.757  18.009  0.00  0.00    +0.000 A 
ATOM     12  C   UNL     1       1.842   4.870  18.787  0.00  0.00    +0.000 A 
ENDBRANCH   1  12
BRANCH   5  13
ATOM     13  C   UNL     1       4.521   4.993  16.903  0.00  0.00    +0.000 C 
ATOM     14  C   UNL     1       5.304   4.235  17.993  0.00  0.00    +0.000 C 
ATOM     15  C   UNL     1       6.598   4.994  18.250  0.00  0.00    +0.000 C 
ATOM     16  S   UNL     1       7.128   5.507  16.633  0.00  0.00    +0.000 S 
ATOM     17  O   UNL     1       7.924   4.434  16.069  0.00  0.00    +0.000 OA
ATOM     18  O   UNL     1       7.610   6.867  16.694  0.00  0.00    +0.000 OA
ATOM     19  C   UNL     1       5.529   5.463  15.843  0.00  0.00    +0.000 C 
ENDBRANCH   5  13
TORSDOF 2
ENDMDL
MODEL 3
REMARK VINA RESULT:      -7.3      2.074      3.539
REMARK  Name = 
REMARK  3 active torsions:
REMARK  status: ('A' for Active; 'I' for Inactive)
REMARK    1  A    between atoms: C_1  and  C_2
REMARK    2  A    between atoms: C_7  and  C_8
REMARK    3  A    between atoms: N_12  and  C_13
REMARK                            x       y       z     vdW  Elec       q    Type
REMARK                         _______ _______ _______ _____ _____    ______ ____
ROOT
ATOM      1  C   UNL     1       2.548   5.015  18.068  0.00  0.00    +0.000 A 
ATOM      2  N   UNL     1       1.649   4.062  17.877  0.00  0.00    +0.000 NA
ATOM      3  N   UNL     1       2.218   3.111  17.087  0.00  0.00    +0.000 NA
ATOM      4  N   UNL     1       3.464   3.431  16.790  0.00  0.00    +0.000 NA
ATOM      5  N   UNL     1       3.697   4.596  17.423  0.00  0.00    +0.000 N 
ENDROOT
BRANCH   1  12
ATOM      6  C   UNL     1       2.118   5.074  21.049  0.00  0.00    +0.000 C 
ATOM      7  C   UNL     1       2.001   6.298  20.174  0.00  0.00    +0.000 A 
ATOM      8  C   UNL     1       1.577   7.495  20.784  0.00  0.00    +0.000 A 
ATOM      9  C   UNL     1       1.467   8.674  20.054  0.00  0.00    +0.000 A 
ATOM     10  C   UNL     1       1.795   8.678  18.706  0.00  0.00    +0.000 A 
ATOM     11  C   UNL     1       2.187   7.492  18.078  0.00  0.00    +0.000 A 
ATOM     12  C   UNL     1       2.287   6.279  18.785  0.00  0.00    +0.000 A 
ENDBRANCH   1  12
BRANCH   5  13
ATOM     13  C   UNL     1       5.034   5.158  17.392  0.00  0.00    +0.000 C 
ATOM     14  C   UNL     1       5.095   6.520  16.673  0.00  0.00    +0.000 C 
ATOM     15  C   UNL     1       5.262   6.253  15.184  0.00  0.00    +0.000 C 
ATOM     16  S   UNL     1       6.399   4.889  15.112  0.00  0.00    +0.000 S 
ATOM     17  O   UNL     1       7.742   5.434  15.117  0.00  0.00    +0.000 OA
ATOM     18  O   UNL     1       5.958   3.949  14.109  0.00  0.00    +0.000 OA
ATOM     19  C   UNL     1       6.077   4.237  16.741  0.00  0.00    +0.000 C 
ENDBRANCH   5  13
TORSDOF 2
ENDMDL
MODEL 4
REMARK VINA RESULT:      -7.1      0.980      1.177
REMARK  Name = 
REMARK  3 active torsions:
REMARK  status: ('A' for Active; 'I' for Inactive)
REMARK    1  A    between atoms: C_1  and  C_2
REMARK    2  A    between atoms: C_7  and  C_8
REMARK    3  A    between atoms: N_12  and  C_13
REMARK                            x       y       z     vdW  Elec       q    Type
REMARK                         _______ _______ _______ _____ _____    ______ ____
ROOT
ATOM      1  C   UNL     1       2.975   5.777  18.790  0.00  0.00    +0.000 A 
ATOM      2  N   UNL     1       2.229   6.831  18.498  0.00  0.00    +0.000 NA
ATOM      3  N   UNL     1       3.029   7.743  17.881  0.00  0.00    +0.000 NA
ATOM      4  N   UNL     1       4.260   7.282  17.759  0.00  0.00    +0.000 NA
ATOM      5  N   UNL     1       4.235   6.044  18.287  0.00  0.00    +0.000 N 
ENDROOT
BRANCH   1  12
ATOM      6  C   UNL     1       2.034   3.264  17.421  0.00  0.00    +0.000 C 
ATOM      7  C   UNL     1       1.983   3.457  18.917  0.00  0.00    +0.000 A 
ATOM      8  C   UNL     1       1.376   2.442  19.683  0.00  0.00    +0.000 A 
ATOM      9  C   UNL     1       1.311   2.531  21.070  0.00  0.00    +0.000 A 
ATOM     10  C   UNL     1       1.865   3.628  21.713  0.00  0.00    +0.000 A 
ATOM     11  C   UNL     1       2.443   4.658  20.965  0.00  0.00    +0.000 A 
ATOM     12  C   UNL     1       2.505   4.608  19.561  0.00  0.00    +0.000 A 
ENDBRANCH   1  12
BRANCH   5  13
ATOM     13  C   UNL     1       5.422   5.216  18.195  0.00  0.00    +0.000 C 
ATOM     14  C   UNL     1       6.727   6.015  18.371  0.00  0.00    +0.000 C 
ATOM     15  C   UNL     1       7.116   6.577  17.011  0.00  0.00    +0.000 C 
ATOM     16  S   UNL     1       6.745   5.262  15.876  0.00  0.00    +0.000 S 
ATOM     17  O   UNL     1       7.911   4.402  15.801  0.00  0.00    +0.000 OA
ATOM     18  O   UNL     1       6.121   5.808  14.694  0.00  0.00    +0.000 OA
ATOM     19  C   UNL     1       5.526   4.429  16.879  0.00  0.00    +0.000 C 
ENDBRANCH   5  13
TORSDOF 2
ENDMDL
MODEL 5
REMARK VINA RESULT:      -7.1      1.088      1.879
REMARK  Name = 
REMARK  3 active torsions:
REMARK  status: ('A' for Active; 'I' for Inactive)
REMARK    1  A    between atoms: C_1  and  C_2
REMARK    2  A    between atoms: C_7  and  C_8
REMARK    3  A    between atoms: N_12  and  C_13
REMARK                            x       y       z     vdW  Elec       q    Type
REMARK                         _______ _______ _______ _____ _____    ______ ____
ROOT
ATOM      1  C   UNL     1       2.681   5.967  18.207  0.00  0.00    +0.000 A 
ATOM      2  N   UNL     1       2.078   7.091  17.854  0.00  0.00    +0.000 NA
ATOM      3  N   UNL     1       3.044   7.991  17.524  0.00  0.00    +0.000 NA
ATOM      4  N   UNL     1       4.246   7.455  17.641  0.00  0.00    +0.000 NA
ATOM      5  N   UNL     1       4.035   6.184  18.030  0.00  0.00    +0.000 N 
ENDROOT
BRANCH   1  12
ATOM      6  C   UNL     1       1.645   5.880  21.034  0.00  0.00    +0.000 C 
ATOM      7  C   UNL     1       1.574   4.703  20.092  0.00  0.00    +0.000 A 
ATOM      8  C   UNL     1       1.083   3.487  20.609  0.00  0.00    +0.000 A 
ATOM      9  C   UNL     1       0.961   2.361  19.800  0.00  0.00    +0.000 A 
ATOM     10  C   UNL     1       1.314   2.438  18.461  0.00  0.00    +0.000 A 
ATOM     11  C   UNL     1       1.832   3.628  17.941  0.00  0.00    +0.000 A 
ATOM     12  C   UNL     1       1.987   4.777  18.738  0.00  0.00    +0.000 A 
ENDBRANCH   1  12
BRANCH   5  13
ATOM     13  C   UNL     1       5.168   5.283  18.132  0.00  0.00    +0.000 C 
ATOM     14  C   UNL     1       6.475   6.004  18.516  0.00  0.00    +0.000 C 
ATOM     15  C   UNL     1       7.112   6.526  17.236  0.00  0.00    +0.000 C 
ATOM     16  S   UNL     1       6.848   5.223  16.057  0.00  0.00    +0.000 S 
ATOM     17  O   UNL     1       7.955   4.293  16.173  0.00  0.00    +0.000 OA
ATOM     18  O   UNL     1       6.457   5.793  14.789  0.00  0.00    +0.000 OA
ATOM     19  C   UNL     1       5.434   4.478  16.851  0.00  0.00    +0.000 C 
ENDBRANCH   5  13
TORSDOF 2
ENDMDL
MODEL 6
REMARK VINA RESULT:      -6.7      3.951      5.968
REMARK  Name = 
REMARK  3 active torsions:
REMARK  status: ('A' for Active; 'I' for Inactive)
REMARK    1  A    between atoms: C_1  and  C_2
REMARK    2  A    between atoms: C_7  and  C_8
REMARK    3  A    between atoms: N_12  and  C_13
REMARK                            x       y       z     vdW  Elec       q    Type
REMARK                         _______ _______ _______ _____ _____    ______ ____
ROOT
ATOM      1  C   UNL     1       5.604   4.301  17.955  0.00  0.00    +0.000 A 
ATOM      2  N   UNL     1       6.378   4.769  18.922  0.00  0.00    +0.000 NA
ATOM      3  N   UNL     1       5.839   4.376  20.108  0.00  0.00    +0.000 NA
ATOM      4  N   UNL     1       4.752   3.652  19.913  0.00  0.00    +0.000 NA
ATOM      5  N   UNL     1       4.613   3.564  18.577  0.00  0.00    +0.000 N 
ENDROOT
BRANCH   1  12
ATOM      6  C   UNL     1       4.750   6.937  16.774  0.00  0.00    +0.000 C 
ATOM      7  C   UNL     1       5.309   5.805  15.948  0.00  0.00    +0.000 A 
ATOM      8  C   UNL     1       5.335   5.973  14.549  0.00  0.00    +0.000 A 
ATOM      9  C   UNL     1       5.857   4.988  13.716  0.00  0.00    +0.000 A 
ATOM     10  C   UNL     1       6.375   3.827  14.271  0.00  0.00    +0.000 A 
ATOM     11  C   UNL     1       6.328   3.631  15.654  0.00  0.00    +0.000 A 
ATOM     12  C   UNL     1       5.787   4.598  16.520  0.00  0.00    +0.000 A 
ENDBRANCH   1  12
BRANCH   5  13
ATOM     13  C   UNL     1       3.565   2.722  18.032  0.00  0.00    +0.000 C 
ATOM     14  C   UNL     1       2.636   3.473  17.059  0.00  0.00    +0.000 C 
ATOM     15  C   UNL     1       1.549   4.150  17.882  0.00  0.00    +0.000 C 
ATOM     16  S   UNL     1       1.142   2.955  19.132  0.00  0.00    +0.000 S 
ATOM     17  O   UNL     1       0.121   2.080  18.588  0.00  0.00    +0.000 OA
ATOM     18  O   UNL     1       0.982   3.622  20.402  0.00  0.00    +0.000 OA
ATOM     19  C   UNL     1       2.686   2.060  19.104  0.00  0.00    +0.000 C 
ENDBRANCH   5  13
TORSDOF 2
ENDMDL
MODEL 7
REMARK VINA RESULT:      -6.7      3.420      5.734
REMARK  Name = 
REMARK  3 active torsions:
REMARK  status: ('A' for Active; 'I' for Inactive)
REMARK    1  A    between atoms: C_1  and  C_2
REMARK    2  A    between atoms: C_7  and  C_8
REMARK    3  A    between atoms: N_12  and  C_13
REMARK                            x       y       z     vdW  Elec       q    Type
REMARK                         _______ _______ _______ _____ _____    ______ ____
ROOT
ATOM      1  C   UNL     1       4.351   6.131  17.238  0.00  0.00    +0.000 A 
ATOM      2  N   UNL     1       3.963   7.392  17.127  0.00  0.00    +0.000 NA
ATOM      3  N   UNL     1       3.017   7.618  18.079  0.00  0.00    +0.000 NA
ATOM      4  N   UNL     1       2.810   6.533  18.803  0.00  0.00    +0.000 NA
ATOM      5  N   UNL     1       3.660   5.609  18.315  0.00  0.00    +0.000 N 
ENDROOT
BRANCH   1  12
ATOM      6  C   UNL     1       7.333   6.388  17.573  0.00  0.00    +0.000 C 
ATOM      7  C   UNL     1       6.692   5.650  16.423  0.00  0.00    +0.000 A 
ATOM      8  C   UNL     1       7.544   5.147  15.419  0.00  0.00    +0.000 A 
ATOM      9  C   UNL     1       7.035   4.432  14.338  0.00  0.00    +0.000 A 
ATOM     10  C   UNL     1       5.671   4.198  14.253  0.00  0.00    +0.000 A 
ATOM     11  C   UNL     1       4.810   4.717  15.224  0.00  0.00    +0.000 A 
ATOM     12  C   UNL     1       5.290   5.462  16.317  0.00  0.00    +0.000 A 
ENDBRANCH   1  12
BRANCH   5  13
ATOM     13  C   UNL     1       3.762   4.326  18.984  0.00  0.00    +0.000 C 
ATOM     14  C   UNL     1       3.169   3.168  18.158  0.00  0.00    +0.000 C 
ATOM     15  C   UNL     1       1.676   3.107  18.449  0.00  0.00    +0.000 C 
ATOM     16  S   UNL     1       1.560   3.420  20.194  0.00  0.00    +0.000 S 
ATOM     17  O   UNL     1       1.699   2.150  20.879  0.00  0.00    +0.000 OA
ATOM     18  O   UNL     1       0.454   4.311  20.450  0.00  0.00    +0.000 OA
ATOM     19  C   UNL     1       3.103   4.298  20.372  0.00  0.00    +0.000 C 
ENDBRANCH   5  13
TORSDOF 2
ENDMDL
MODEL 8
REMARK VINA RESULT:      -6.6      2.113      2.742
REMARK  Name = 
REMARK  3 active torsions:
REMARK  status: ('A' for Active; 'I' for Inactive)
REMARK    1  A    between atoms: C_1  and  C_2
REMARK    2  A    between atoms: C_7  and  C_8
REMARK    3  A    between atoms: N_12  and  C_13
REMARK                            x       y       z     vdW  Elec       q    Type
REMARK                         _______ _______ _______ _____ _____    ______ ____
ROOT
ATOM      1  C   UNL     1       5.037   4.890  19.267  0.00  0.00    +0.000 A 
ATOM      2  N   UNL     1       6.039   5.181  20.082  0.00  0.00    +0.000 NA
ATOM      3  N   UNL     1       7.116   5.501  19.313  0.00  0.00    +0.000 NA
ATOM      4  N   UNL     1       6.812   5.437  18.029  0.00  0.00    +0.000 NA
ATOM      5  N   UNL     1       5.511   5.094  17.985  0.00  0.00    +0.000 N 
ENDROOT
BRANCH   1  12
ATOM      6  C   UNL     1       2.646   6.712  19.461  0.00  0.00    +0.000 C 
ATOM      7  C   UNL     1       2.615   5.263  19.880  0.00  0.00    +0.000 A 
ATOM      8  C   UNL     1       1.432   4.785  20.477  0.00  0.00    +0.000 A 
ATOM      9  C   UNL     1       1.312   3.455  20.869  0.00  0.00    +0.000 A 
ATOM     10  C   UNL     1       2.367   2.581  20.657  0.00  0.00    +0.000 A 
ATOM     11  C   UNL     1       3.560   3.047  20.095  0.00  0.00    +0.000 A 
ATOM     12  C   UNL     1       3.720   4.390  19.708  0.00  0.00    +0.000 A 
ENDBRANCH   1  12
BRANCH   5  13
ATOM     13  C   UNL     1       4.837   5.057  16.701  0.00  0.00    +0.000 C 
ATOM     14  C   UNL     1       4.740   3.636  16.113  0.00  0.00    +0.000 C 
ATOM     15  C   UNL     1       6.028   3.358  15.351  0.00  0.00    +0.000 C 
ATOM     16  S   UNL     1       6.388   4.894  14.532  0.00  0.00    +0.000 S 
ATOM     17  O   UNL     1       5.690   4.889  13.261  0.00  0.00    +0.000 OA
ATOM     18  O   UNL     1       7.801   5.171  14.628  0.00  0.00    +0.000 OA
ATOM     19  C   UNL     1       5.482   5.961  15.639  0.00  0.00    +0.000 C 
ENDBRANCH   5  13
TORSDOF 2
ENDMDL
MODEL 9
REMARK VINA RESULT:      -6.6      2.245      2.834
REMARK  Name = 
REMARK  3 active torsions:
REMARK  status: ('A' for Active; 'I' for Inactive)
REMARK    1  A    between atoms: C_1  and  C_2
REMARK    2  A    between atoms: C_7  and  C_8
REMARK    3  A    between atoms: N_12  and  C_13
REMARK                            x       y       z     vdW  Elec       q    Type
REMARK                         _______ _______ _______ _____ _____    ______ ____
ROOT
ATOM      1  C   UNL     1       5.179   4.964  19.323  0.00  0.00    +0.000 A 
ATOM      2  N   UNL     1       6.236   5.224  20.077  0.00  0.00    +0.000 NA
ATOM      3  N   UNL     1       7.290   5.446  19.246  0.00  0.00    +0.000 NA
ATOM      4  N   UNL     1       6.920   5.352  17.982  0.00  0.00    +0.000 NA
ATOM      5  N   UNL     1       5.600   5.089  18.012  0.00  0.00    +0.000 N 
ENDROOT
BRANCH   1  12
ATOM      6  C   UNL     1       4.484   2.071  19.795  0.00  0.00    +0.000 C 
ATOM      7  C   UNL     1       3.500   3.199  19.989  0.00  0.00    +0.000 A 
ATOM      8  C   UNL     1       2.173   2.854  20.313  0.00  0.00    +0.000 A 
ATOM      9  C   UNL     1       1.209   3.834  20.534  0.00  0.00    +0.000 A 
ATOM     10  C   UNL     1       1.562   5.172  20.448  0.00  0.00    +0.000 A 
ATOM     11  C   UNL     1       2.867   5.531  20.096  0.00  0.00    +0.000 A 
ATOM     12  C   UNL     1       3.857   4.564  19.846  0.00  0.00    +0.000 A 
ENDBRANCH   1  12
BRANCH   5  13
ATOM     13  C   UNL     1       4.863   5.045  16.764  0.00  0.00    +0.000 C 
ATOM     14  C   UNL     1       4.731   3.620  16.194  0.00  0.00    +0.000 C 
ATOM     15  C   UNL     1       5.979   3.331  15.370  0.00  0.00    +0.000 C 
ATOM     16  S   UNL     1       6.302   4.858  14.522  0.00  0.00    +0.000 S 
ATOM     17  O   UNL     1       5.542   4.846  13.288  0.00  0.00    +0.000 OA
ATOM     18  O   UNL     1       7.720   5.130  14.545  0.00  0.00    +0.000 OA
ATOM     19  C   UNL     1       5.457   5.938  15.664  0.00  0.00    +0.000 C 
ENDBRANCH   5  13
TORSDOF 2
ENDMDL
