MODEL 1
REMARK VINA RESULT:      -8.0      0.000      0.000
REMARK  Name = 
REMARK  8 active torsions:
REMARK  status: ('A' for Active; 'I' for Inactive)
REMARK    1  A    between atoms: C_1  and  C_2
REMARK    2  A    between atoms: C_2  and  O_3
REMARK    3  A    between atoms: O_3  and  C_4
REMARK    4  A    between atoms: C_7  and  N_8
REMARK    5  A    between atoms: C_9  and  C_11
REMARK    6  A    between atoms: C_11  and  N_12
REMARK    7  A    between atoms: C_20  and  S_21
REMARK    8  A    between atoms: S_21  and  N_24
REMARK                            x       y       z     vdW  Elec       q    Type
REMARK                         _______ _______ _______ _____ _____    ______ ____
ROOT
ATOM      1  N   UNL     1       2.259   4.343  20.541  0.00  0.00    +0.000 N 
ATOM      2  C   UNL     1       1.515   3.396  19.788  0.00  0.00    +0.000 C 
ATOM      3  O   UNL     1       0.866   2.515  20.354  0.00  0.00    +0.000 OA
ATOM      4  C   UNL     1       1.838   3.310  18.310  0.00  0.00    +0.000 C 
ATOM      5  S   UNL     1       1.394   4.792  17.452  0.00  0.00    +0.000 S 
ATOM      6  C   UNL     1       2.196   5.963  18.555  0.00  0.00    +0.000 A 
ATOM      7  C   UNL     1       2.302   7.226  17.936  0.00  0.00    +0.000 A 
ATOM      8  C   UNL     1       2.144   8.393  18.653  0.00  0.00    +0.000 A 
ATOM      9  C   UNL     1       1.826   8.317  20.000  0.00  0.00    +0.000 A 
ATOM     10  C   UNL     1       1.936   7.011  20.681  0.00  0.00    +0.000 A 
ATOM     11  C   UNL     1       2.254   5.781  19.954  0.00  0.00    +0.000 A 
ENDROOT
BRANCH   9  12
ATOM     12  S   UNL     1       0.676   9.717  20.476  0.00  0.00    +0.000 S 
ATOM     13  O   UNL     1      -0.620   9.070  20.583  0.00  0.00    +0.000 OA
ATOM     14  O   UNL     1       1.269  10.382  21.615  0.00  0.00    +0.000 OA
BRANCH  12  15
ATOM     15  N   UNL     1       0.459  10.902  19.253  0.00  0.00    +0.000 NA
ATOM     16  C   UNL     1       1.024  12.270  19.256  0.00  0.00    +0.000 C 
ATOM     17  C   UNL     1      -0.014  13.172  19.944  0.00  0.00    +0.000 C 
ATOM     18  O   UNL     1      -1.298  13.119  19.286  0.00  0.00    +0.000 OA
ATOM     19  C   UNL     1      -1.791  11.772  19.105  0.00  0.00    +0.000 C 
ATOM     20  C   UNL     1      -0.757  10.904  18.404  0.00  0.00    +0.000 C 
ENDBRANCH  12  15
ENDBRANCH   9  12
BRANCH   1  21
ATOM     21  C   UNL     1       3.621   3.654  20.748  0.00  0.00    +0.000 C 
BRANCH  21  23
ATOM     22  N   UNL     1       5.430   3.413  18.668  0.00  0.00    +0.000 N 
ATOM     23  C   UNL     1       4.582   2.900  19.631  0.00  0.00    +0.000 C 
ATOM     24  O   UNL     1       4.538   1.648  19.617  0.00  0.00    +0.000 OA
ATOM     25  H   UNL     1       5.795   2.640  18.111  0.00  0.00    +0.000 HD
BRANCH  22  29
ATOM     26  C   UNL     1       7.080   7.165  17.521  0.00  0.00    +0.000 A 
ATOM     27  C   UNL     1       7.606   6.421  18.566  0.00  0.00    +0.000 A 
ATOM     28  C   UNL     1       7.063   5.183  18.952  0.00  0.00    +0.000 A 
ATOM     29  C   UNL     1       5.954   4.664  18.327  0.00  0.00    +0.000 A 
ATOM     30  C   UNL     1       5.400   5.411  17.253  0.00  0.00    +0.000 A 
ATOM     31  C   UNL     1       5.966   6.653  16.852  0.00  0.00    +0.000 A 
BRANCH  26  32
ATOM     32  O   UNL     1       7.714   8.353  17.302  0.00  0.00    +0.000 OA
BRANCH  32  34
ATOM     33  C   UNL     1       8.688  10.386  18.057  0.00  0.00    +0.000 C 
ATOM     34  C   UNL     1       8.501   8.903  18.354  0.00  0.00    +0.000 C 
ENDBRANCH  32  34
ENDBRANCH  26  32
ENDBRANCH  22  29
ENDBRANCH  21  23
ENDBRANCH   1  21
TORSDOF 7
ENDMDL
MODEL 2
REMARK VINA RESULT:      -7.8      1.402      2.015
REMARK  Name = 
REMARK  8 active torsions:
REMARK  status: ('A' for Active; 'I' for Inactive)
REMARK    1  A    between atoms: C_1  and  C_2
REMARK    2  A    between atoms: C_2  and  O_3
REMARK    3  A    between atoms: O_3  and  C_4
REMARK    4  A    between atoms: C_7  and  N_8
REMARK    5  A    between atoms: C_9  and  C_11
REMARK    6  A    between atoms: C_11  and  N_12
REMARK    7  A    between atoms: C_20  and  S_21
REMARK    8  A    between atoms: S_21  and  N_24
REMARK                            x       y       z     vdW  Elec       q    Type
REMARK                         _______ _______ _______ _____ _____    ______ ____
ROOT
ATOM      1  N   UNL     1       2.261   4.597  20.507  0.00  0.00    +0.000 N 
ATOM      2  C   UNL     1       1.470   3.579  19.910  0.00  0.00    +0.000 C 
ATOM      3  O   UNL     1       0.815   2.804  20.607  0.00  0.00    +0.000 OA
ATOM      4  C   UNL     1       1.746   3.285  18.449  0.00  0.00    +0.000 C 
ATOM      5  S   UNL     1       1.315   4.650  17.409  0.00  0.00    +0.000 S 
ATOM      6  C   UNL     1       2.181   5.935  18.321  0.00  0.00    +0.000 A 
ATOM      7  C   UNL     1       2.302   7.099  17.533  0.00  0.00    +0.000 A 
ATOM      8  C   UNL     1       2.196   8.356  18.088  0.00  0.00    +0.000 A 
ATOM      9  C   UNL     1       1.916   8.472  19.442  0.00  0.00    +0.000 A 
ATOM     10  C   UNL     1       2.012   7.268  20.291  0.00  0.00    +0.000 A 
ATOM     11  C   UNL     1       2.276   5.942  19.730  0.00  0.00    +0.000 A 
ENDROOT
BRANCH   9  12
ATOM     12  S   UNL     1       0.818   9.958  19.752  0.00  0.00    +0.000 S 
ATOM     13  O   UNL     1       1.446  11.013  18.975  0.00  0.00    +0.000 OA
ATOM     14  O   UNL     1      -0.540   9.544  19.478  0.00  0.00    +0.000 OA
BRANCH  12  15
ATOM     15  N   UNL     1       0.856  10.541  21.366  0.00  0.00    +0.000 NA
ATOM     16  C   UNL     1       0.883   9.711  22.591  0.00  0.00    +0.000 C 
ATOM     17  C   UNL     1      -0.582   9.471  22.992  0.00  0.00    +0.000 C 
ATOM     18  O   UNL     1      -1.298  10.709  23.194  0.00  0.00    +0.000 OA
ATOM     19  C   UNL     1      -1.188  11.620  22.077  0.00  0.00    +0.000 C 
ATOM     20  C   UNL     1       0.269  11.859  21.712  0.00  0.00    +0.000 C 
ENDBRANCH  12  15
ENDBRANCH   9  12
BRANCH   1  21
ATOM     21  C   UNL     1       3.610   3.902  20.770  0.00  0.00    +0.000 C 
BRANCH  21  23
ATOM     22  N   UNL     1       5.476   3.484  18.770  0.00  0.00    +0.000 N 
ATOM     23  C   UNL     1       4.564   3.055  19.715  0.00  0.00    +0.000 C 
ATOM     24  O   UNL     1       4.443   1.808  19.737  0.00  0.00    +0.000 OA
ATOM     25  H   UNL     1       5.813   2.673  18.252  0.00  0.00    +0.000 HD
BRANCH  22  29
ATOM     26  C   UNL     1       7.288   7.208  17.789  0.00  0.00    +0.000 A 
ATOM     27  C   UNL     1       6.177   6.732  17.109  0.00  0.00    +0.000 A 
ATOM     28  C   UNL     1       5.577   5.501  17.427  0.00  0.00    +0.000 A 
ATOM     29  C   UNL     1       6.088   4.690  18.411  0.00  0.00    +0.000 A 
ATOM     30  C   UNL     1       7.227   5.160  19.119  0.00  0.00    +0.000 A 
ATOM     31  C   UNL     1       7.818   6.416  18.810  0.00  0.00    +0.000 A 
BRANCH  26  32
ATOM     32  O   UNL     1       7.755   8.406  17.331  0.00  0.00    +0.000 OA
BRANCH  32  34
ATOM     33  C   UNL     1       8.317  10.653  17.866  0.00  0.00    +0.000 C 
ATOM     34  C   UNL     1       8.574   9.188  18.197  0.00  0.00    +0.000 C 
ENDBRANCH  32  34
ENDBRANCH  26  32
ENDBRANCH  22  29
ENDBRANCH  21  23
ENDBRANCH   1  21
TORSDOF 7
ENDMDL
MODEL 3
REMARK VINA RESULT:      -7.7      3.874      7.402
REMARK  Name = 
REMARK  8 active torsions:
REMARK  status: ('A' for Active; 'I' for Inactive)
REMARK    1  A    between atoms: C_1  and  C_2
REMARK    2  A    between atoms: C_2  and  O_3
REMARK    3  A    between atoms: O_3  and  C_4
REMARK    4  A    between atoms: C_7  and  N_8
REMARK    5  A    between atoms: C_9  and  C_11
REMARK    6  A    between atoms: C_11  and  N_12
REMARK    7  A    between atoms: C_20  and  S_21
REMARK    8  A    between atoms: S_21  and  N_24
REMARK                            x       y       z     vdW  Elec       q    Type
REMARK                         _______ _______ _______ _____ _____    ______ ____
ROOT
ATOM      1  N   UNL     1      -1.033  11.074  19.914  0.00  0.00    +0.000 N 
ATOM      2  C   UNL     1      -1.006  11.766  18.674  0.00  0.00    +0.000 C 
ATOM      3  O   UNL     1      -1.575  11.303  17.684  0.00  0.00    +0.000 OA
ATOM      4  C   UNL     1       0.018  12.876  18.547  0.00  0.00    +0.000 C 
ATOM      5  S   UNL     1      -0.334  14.224  19.636  0.00  0.00    +0.000 S 
ATOM      6  C   UNL     1      -0.550  13.270  21.145  0.00  0.00    +0.000 A 
ATOM      7  C   UNL     1      -0.508  14.118  22.271  0.00  0.00    +0.000 A 
ATOM      8  C   UNL     1      -1.320  13.902  23.363  0.00  0.00    +0.000 A 
ATOM      9  C   UNL     1      -2.231  12.856  23.329  0.00  0.00    +0.000 A 
ATOM     10  C   UNL     1      -2.114  11.852  22.252  0.00  0.00    +0.000 A 
ATOM     11  C   UNL     1      -1.148  11.991  21.162  0.00  0.00    +0.000 A 
ENDROOT
BRANCH   9  12
ATOM     12  S   UNL     1      -3.802  13.334  24.228  0.00  0.00    +0.000 S 
ATOM     13  O   UNL     1      -4.373  12.056  24.618  0.00  0.00    +0.000 OA
ATOM     14  O   UNL     1      -3.437  14.318  25.224  0.00  0.00    +0.000 OA
BRANCH  12  15
ATOM     15  N   UNL     1      -5.002  14.046  23.228  0.00  0.00    +0.000 NA
ATOM     16  C   UNL     1      -6.383  14.391  23.636  0.00  0.00    +0.000 C 
ATOM     17  C   UNL     1      -7.249  13.155  23.343  0.00  0.00    +0.000 C 
ATOM     18  O   UNL     1      -7.178  12.760  21.956  0.00  0.00    +0.000 OA
ATOM     19  C   UNL     1      -5.824  12.594  21.479  0.00  0.00    +0.000 C 
ATOM     20  C   UNL     1      -4.991  13.836  21.760  0.00  0.00    +0.000 C 
ENDBRANCH  12  15
ENDBRANCH   9  12
BRANCH   1  21
ATOM     21  C   UNL     1       0.174  10.122  19.827  0.00  0.00    +0.000 C 
BRANCH  21  23
ATOM     22  N   UNL     1       1.634   8.154  21.114  0.00  0.00    +0.000 N 
ATOM     23  C   UNL     1       1.000   9.381  21.055  0.00  0.00    +0.000 C 
ATOM     24  O   UNL     1       1.058  10.006  22.139  0.00  0.00    +0.000 OA
ATOM     25  H   UNL     1       1.966   8.005  22.066  0.00  0.00    +0.000 HD
BRANCH  22  29
ATOM     26  C   UNL     1       2.603   5.097  18.316  0.00  0.00    +0.000 A 
ATOM     27  C   UNL     1       2.157   4.805  19.596  0.00  0.00    +0.000 A 
ATOM     28  C   UNL     1       1.839   5.811  20.525  0.00  0.00    +0.000 A 
ATOM     29  C   UNL     1       1.989   7.142  20.217  0.00  0.00    +0.000 A 
ATOM     30  C   UNL     1       2.445   7.461  18.910  0.00  0.00    +0.000 A 
ATOM     31  C   UNL     1       2.744   6.442  17.965  0.00  0.00    +0.000 A 
BRANCH  26  32
ATOM     32  O   UNL     1       2.890   4.000  17.557  0.00  0.00    +0.000 OA
BRANCH  32  34
ATOM     33  C   UNL     1       3.361   1.721  18.046  0.00  0.00    +0.000 C 
ATOM     34  C   UNL     1       2.261   2.765  17.889  0.00  0.00    +0.000 C 
ENDBRANCH  32  34
ENDBRANCH  26  32
ENDBRANCH  22  29
ENDBRANCH  21  23
ENDBRANCH   1  21
TORSDOF 7
ENDMDL
MODEL 4
REMARK VINA RESULT:      -7.5      2.146      5.171
REMARK  Name = 
REMARK  8 active torsions:
REMARK  status: ('A' for Active; 'I' for Inactive)
REMARK    1  A    between atoms: C_1  and  C_2
REMARK    2  A    between atoms: C_2  and  O_3
REMARK    3  A    between atoms: O_3  and  C_4
REMARK    4  A    between atoms: C_7  and  N_8
REMARK    5  A    between atoms: C_9  and  C_11
REMARK    6  A    between atoms: C_11  and  N_12
REMARK    7  A    between atoms: C_20  and  S_21
REMARK    8  A    between atoms: S_21  and  N_24
REMARK                            x       y       z     vdW  Elec       q    Type
REMARK                         _______ _______ _______ _____ _____    ______ ____
ROOT
ATOM      1  N   UNL     1       5.361   6.977  16.800  0.00  0.00    +0.000 N 
ATOM      2  C   UNL     1       6.705   6.927  17.254  0.00  0.00    +0.000 C 
ATOM      3  O   UNL     1       7.540   7.729  16.833  0.00  0.00    +0.000 OA
ATOM      4  C   UNL     1       7.122   5.663  17.980  0.00  0.00    +0.000 C 
ATOM      5  S   UNL     1       6.277   5.481  19.523  0.00  0.00    +0.000 S 
ATOM      6  C   UNL     1       4.605   5.748  18.919  0.00  0.00    +0.000 A 
ATOM      7  C   UNL     1       3.663   5.323  19.879  0.00  0.00    +0.000 A 
ATOM      8  C   UNL     1       2.485   6.009  20.083  0.00  0.00    +0.000 A 
ATOM      9  C   UNL     1       2.248   7.168  19.360  0.00  0.00    +0.000 A 
ATOM     10  C   UNL     1       3.125   7.478  18.212  0.00  0.00    +0.000 A 
ATOM     11  C   UNL     1       4.299   6.667  17.891  0.00  0.00    +0.000 A 
ENDROOT
BRANCH   9  12
ATOM     12  S   UNL     1       1.324   8.412  20.412  0.00  0.00    +0.000 S 
ATOM     13  O   UNL     1       0.237   7.634  20.981  0.00  0.00    +0.000 OA
ATOM     14  O   UNL     1       2.301   9.053  21.264  0.00  0.00    +0.000 OA
BRANCH  12  15
ATOM     15  N   UNL     1       0.538   9.649  19.519  0.00  0.00    +0.000 NA
ATOM     16  C   UNL     1       1.194  10.620  18.614  0.00  0.00    +0.000 C 
ATOM     17  C   UNL     1       1.564  11.840  19.472  0.00  0.00    +0.000 C 
ATOM     18  O   UNL     1       0.412  12.409  20.131  0.00  0.00    +0.000 OA
ATOM     19  C   UNL     1      -0.354  11.438  20.879  0.00  0.00    +0.000 C 
ATOM     20  C   UNL     1      -0.728  10.250  20.005  0.00  0.00    +0.000 C 
ENDBRANCH  12  15
ENDBRANCH   9  12
BRANCH   1  21
ATOM     21  C   UNL     1       5.370   6.101  15.533  0.00  0.00    +0.000 C 
BRANCH  21  23
ATOM     22  N   UNL     1       5.234   3.382  16.030  0.00  0.00    +0.000 N 
ATOM     23  C   UNL     1       5.742   4.495  15.387  0.00  0.00    +0.000 C 
ATOM     24  O   UNL     1       6.654   4.210  14.576  0.00  0.00    +0.000 OA
ATOM     25  H   UNL     1       5.768   2.565  15.734  0.00  0.00    +0.000 HD
BRANCH  22  29
ATOM     26  C   UNL     1       1.974   2.387  18.578  0.00  0.00    +0.000 A 
ATOM     27  C   UNL     1       1.852   3.324  17.564  0.00  0.00    +0.000 A 
ATOM     28  C   UNL     1       2.927   3.660  16.722  0.00  0.00    +0.000 A 
ATOM     29  C   UNL     1       4.168   3.094  16.888  0.00  0.00    +0.000 A 
ATOM     30  C   UNL     1       4.313   2.131  17.922  0.00  0.00    +0.000 A 
ATOM     31  C   UNL     1       3.218   1.778  18.758  0.00  0.00    +0.000 A 
BRANCH  26  32
ATOM     32  O   UNL     1       0.840   2.205  19.314  0.00  0.00    +0.000 OA
BRANCH  32  34
ATOM     33  C   UNL     1       1.444   2.709  21.558  0.00  0.00    +0.000 C 
ATOM     34  C   UNL     1       0.570   3.115  20.377  0.00  0.00    +0.000 C 
ENDBRANCH  32  34
ENDBRANCH  26  32
ENDBRANCH  22  29
ENDBRANCH  21  23
ENDBRANCH   1  21
TORSDOF 7
ENDMDL
MODEL 5
REMARK VINA RESULT:      -7.5      2.104      5.056
REMARK  Name = 
REMARK  8 active torsions:
REMARK  status: ('A' for Active; 'I' for Inactive)
REMARK    1  A    between atoms: C_1  and  C_2
REMARK    2  A    between atoms: C_2  and  O_3
REMARK    3  A    between atoms: O_3  and  C_4
REMARK    4  A    between atoms: C_7  and  N_8
REMARK    5  A    between atoms: C_9  and  C_11
REMARK    6  A    between atoms: C_11  and  N_12
REMARK    7  A    between atoms: C_20  and  S_21
REMARK    8  A    between atoms: S_21  and  N_24
REMARK                            x       y       z     vdW  Elec       q    Type
REMARK                         _______ _______ _______ _____ _____    ______ ____
ROOT
ATOM      1  N   UNL     1       5.239   6.993  16.830  0.00  0.00    +0.000 N 
ATOM      2  C   UNL     1       6.589   6.898  17.258  0.00  0.00    +0.000 C 
ATOM      3  O   UNL     1       7.442   7.676  16.826  0.00  0.00    +0.000 OA
ATOM      4  C   UNL     1       6.979   5.619  17.971  0.00  0.00    +0.000 C 
ATOM      5  S   UNL     1       6.157   5.455  19.528  0.00  0.00    +0.000 S 
ATOM      6  C   UNL     1       4.483   5.778  18.956  0.00  0.00    +0.000 A 
ATOM      7  C   UNL     1       3.546   5.378  19.932  0.00  0.00    +0.000 A 
ATOM      8  C   UNL     1       2.394   6.100  20.160  0.00  0.00    +0.000 A 
ATOM      9  C   UNL     1       2.181   7.270  19.446  0.00  0.00    +0.000 A 
ATOM     10  C   UNL     1       3.046   7.558  18.284  0.00  0.00    +0.000 A 
ATOM     11  C   UNL     1       4.188   6.711  17.938  0.00  0.00    +0.000 A 
ENDROOT
BRANCH   9  12
ATOM     12  S   UNL     1       1.316   8.537  20.520  0.00  0.00    +0.000 S 
ATOM     13  O   UNL     1      -0.007   7.970  20.716  0.00  0.00    +0.000 OA
ATOM     14  O   UNL     1       2.184   8.799  21.647  0.00  0.00    +0.000 OA
BRANCH  12  15
ATOM     15  N   UNL     1       1.022  10.040  19.745  0.00  0.00    +0.000 NA
ATOM     16  C   UNL     1       0.915  11.357  20.412  0.00  0.00    +0.000 C 
ATOM     17  C   UNL     1      -0.568  11.551  20.766  0.00  0.00    +0.000 C 
ATOM     18  O   UNL     1      -1.419  11.464  19.603  0.00  0.00    +0.000 OA
ATOM     19  C   UNL     1      -1.203  10.263  18.827  0.00  0.00    +0.000 C 
ATOM     20  C   UNL     1       0.267  10.103  18.470  0.00  0.00    +0.000 C 
ENDBRANCH  12  15
ENDBRANCH   9  12
BRANCH   1  21
ATOM     21  C   UNL     1       5.198   6.124  15.559  0.00  0.00    +0.000 C 
BRANCH  21  23
ATOM     22  N   UNL     1       5.147   3.394  16.007  0.00  0.00    +0.000 N 
ATOM     23  C   UNL     1       5.615   4.532  15.379  0.00  0.00    +0.000 C 
ATOM     24  O   UNL     1       6.525   4.288  14.552  0.00  0.00    +0.000 OA
ATOM     25  H   UNL     1       5.700   2.598  15.690  0.00  0.00    +0.000 HD
BRANCH  22  29
ATOM     26  C   UNL     1       1.975   2.491  18.697  0.00  0.00    +0.000 A 
ATOM     27  C   UNL     1       3.224   1.900  18.811  0.00  0.00    +0.000 A 
ATOM     28  C   UNL     1       4.274   2.191  17.923  0.00  0.00    +0.000 A 
ATOM     29  C   UNL     1       4.100   3.058  16.871  0.00  0.00    +0.000 A 
ATOM     30  C   UNL     1       2.827   3.674  16.737  0.00  0.00    +0.000 A 
ATOM     31  C   UNL     1       1.774   3.393  17.650  0.00  0.00    +0.000 A 
BRANCH  26  32
ATOM     32  O   UNL     1       1.068   2.072  19.626  0.00  0.00    +0.000 OA
BRANCH  32  34
ATOM     33  C   UNL     1       1.756   2.617  21.836  0.00  0.00    +0.000 C 
ATOM     34  C   UNL     1       0.771   2.937  20.719  0.00  0.00    +0.000 C 
ENDBRANCH  32  34
ENDBRANCH  26  32
ENDBRANCH  22  29
ENDBRANCH  21  23
ENDBRANCH   1  21
TORSDOF 7
ENDMDL
MODEL 6
REMARK VINA RESULT:      -7.5      3.922      7.297
REMARK  Name = 
REMARK  8 active torsions:
REMARK  status: ('A' for Active; 'I' for Inactive)
REMARK    1  A    between atoms: C_1  and  C_2
REMARK    2  A    between atoms: C_2  and  O_3
REMARK    3  A    between atoms: O_3  and  C_4
REMARK    4  A    between atoms: C_7  and  N_8
REMARK    5  A    between atoms: C_9  and  C_11
REMARK    6  A    between atoms: C_11  and  N_12
REMARK    7  A    between atoms: C_20  and  S_21
REMARK    8  A    between atoms: S_21  and  N_24
REMARK                            x       y       z     vdW  Elec       q    Type
REMARK                         _______ _______ _______ _____ _____    ______ ____
ROOT
ATOM      1  N   UNL     1      -1.046  11.157  19.898  0.00  0.00    +0.000 N 
ATOM      2  C   UNL     1      -1.031  11.858  18.663  0.00  0.00    +0.000 C 
ATOM      3  O   UNL     1      -1.621  11.408  17.679  0.00  0.00    +0.000 OA
ATOM      4  C   UNL     1       0.003  12.957  18.527  0.00  0.00    +0.000 C 
ATOM      5  S   UNL     1      -0.317  14.302  19.631  0.00  0.00    +0.000 S 
ATOM      6  C   UNL     1      -0.520  13.339  21.136  0.00  0.00    +0.000 A 
ATOM      7  C   UNL     1      -0.450  14.178  22.268  0.00  0.00    +0.000 A 
ATOM      8  C   UNL     1      -1.247  13.963  23.372  0.00  0.00    +0.000 A 
ATOM      9  C   UNL     1      -2.169  12.928  23.344  0.00  0.00    +0.000 A 
ATOM     10  C   UNL     1      -2.081  11.930  22.259  0.00  0.00    +0.000 A 
ATOM     11  C   UNL     1      -1.131  12.066  21.154  0.00  0.00    +0.000 A 
ENDROOT
BRANCH   9  12
ATOM     12  S   UNL     1      -3.721  13.416  24.272  0.00  0.00    +0.000 S 
ATOM     13  O   UNL     1      -4.375  12.145  24.534  0.00  0.00    +0.000 OA
ATOM     14  O   UNL     1      -3.310  14.276  25.361  0.00  0.00    +0.000 OA
BRANCH  12  15
ATOM     15  N   UNL     1      -4.860  14.294  23.335  0.00  0.00    +0.000 NA
ATOM     16  C   UNL     1      -6.168  14.803  23.807  0.00  0.00    +0.000 C 
ATOM     17  C   UNL     1      -7.195  13.693  23.534  0.00  0.00    +0.000 C 
ATOM     18  O   UNL     1      -7.232  13.319  22.140  0.00  0.00    +0.000 OA
ATOM     19  C   UNL     1      -5.931  12.991  21.603  0.00  0.00    +0.000 C 
ATOM     20  C   UNL     1      -4.936  14.112  21.865  0.00  0.00    +0.000 C 
ENDBRANCH  12  15
ENDBRANCH   9  12
BRANCH   1  21
ATOM     21  C   UNL     1       0.149  10.193  19.785  0.00  0.00    +0.000 C 
BRANCH  21  23
ATOM     22  N   UNL     1       1.613   8.217  21.055  0.00  0.00    +0.000 N 
ATOM     23  C   UNL     1       1.005   9.456  20.996  0.00  0.00    +0.000 C 
ATOM     24  O   UNL     1       1.119  10.102  22.064  0.00  0.00    +0.000 OA
ATOM     25  H   UNL     1       1.978   8.079  21.997  0.00  0.00    +0.000 HD
BRANCH  22  29
ATOM     26  C   UNL     1       2.629   5.034  18.419  0.00  0.00    +0.000 A 
ATOM     27  C   UNL     1       2.769   6.364  18.051  0.00  0.00    +0.000 A 
ATOM     28  C   UNL     1       2.431   7.419  18.916  0.00  0.00    +0.000 A 
ATOM     29  C   UNL     1       1.911   7.180  20.165  0.00  0.00    +0.000 A 
ATOM     30  C   UNL     1       1.760   5.823  20.560  0.00  0.00    +0.000 A 
ATOM     31  C   UNL     1       2.123   4.759  19.691  0.00  0.00    +0.000 A 
BRANCH  26  32
ATOM     32  O   UNL     1       2.979   4.143  17.446  0.00  0.00    +0.000 OA
BRANCH  32  34
ATOM     33  C   UNL     1       5.004   4.386  16.225  0.00  0.00    +0.000 C 
ATOM     34  C   UNL     1       4.328   3.688  17.399  0.00  0.00    +0.000 C 
ENDBRANCH  32  34
ENDBRANCH  26  32
ENDBRANCH  22  29
ENDBRANCH  21  23
ENDBRANCH   1  21
TORSDOF 7
ENDMDL
MODEL 7
REMARK VINA RESULT:      -7.4      3.782      7.104
REMARK  Name = 
REMARK  8 active torsions:
REMARK  status: ('A' for Active; 'I' for Inactive)
REMARK    1  A    between atoms: C_1  and  C_2
REMARK    2  A    between atoms: C_2  and  O_3
REMARK    3  A    between atoms: O_3  and  C_4
REMARK    4  A    between atoms: C_7  and  N_8
REMARK    5  A    between atoms: C_9  and  C_11
REMARK    6  A    between atoms: C_11  and  N_12
REMARK    7  A    between atoms: C_20  and  S_21
REMARK    8  A    between atoms: S_21  and  N_24
REMARK                            x       y       z     vdW  Elec       q    Type
REMARK                         _______ _______ _______ _____ _____    ______ ____
ROOT
ATOM      1  N   UNL     1      -0.440  10.886  20.223  0.00  0.00    +0.000 N 
ATOM      2  C   UNL     1      -0.435  11.448  18.918  0.00  0.00    +0.000 C 
ATOM      3  O   UNL     1      -0.917  10.830  17.967  0.00  0.00    +0.000 OA
ATOM      4  C   UNL     1       0.477  12.640  18.704  0.00  0.00    +0.000 C 
ATOM      5  S   UNL     1      -0.050  14.048  19.635  0.00  0.00    +0.000 S 
ATOM      6  C   UNL     1      -0.227  13.234  21.229  0.00  0.00    +0.000 A 
ATOM      7  C   UNL     1      -0.313  14.192  22.261  0.00  0.00    +0.000 A 
ATOM      8  C   UNL     1      -1.140  14.005  23.348  0.00  0.00    +0.000 A 
ATOM      9  C   UNL     1      -1.939  12.873  23.398  0.00  0.00    +0.000 A 
ATOM     10  C   UNL     1      -1.682  11.782  22.436  0.00  0.00    +0.000 A 
ATOM     11  C   UNL     1      -0.694  11.909  21.364  0.00  0.00    +0.000 A 
ENDROOT
BRANCH   9  12
ATOM     12  S   UNL     1      -3.584  13.274  24.199  0.00  0.00    +0.000 S 
ATOM     13  O   UNL     1      -4.187  11.968  24.408  0.00  0.00    +0.000 OA
ATOM     14  O   UNL     1      -3.308  14.150  25.316  0.00  0.00    +0.000 OA
BRANCH  12  15
ATOM     15  N   UNL     1      -4.691  14.092  23.173  0.00  0.00    +0.000 NA
ATOM     16  C   UNL     1      -5.092  13.669  21.813  0.00  0.00    +0.000 C 
ATOM     17  C   UNL     1      -4.107  14.332  20.837  0.00  0.00    +0.000 C 
ATOM     18  O   UNL     1      -4.093  15.769  20.974  0.00  0.00    +0.000 OA
ATOM     19  C   UNL     1      -3.883  16.210  22.334  0.00  0.00    +0.000 C 
ATOM     20  C   UNL     1      -4.883  15.559  23.278  0.00  0.00    +0.000 C 
ENDBRANCH  12  15
ENDBRANCH   9  12
BRANCH   1  21
ATOM     21  C   UNL     1       0.860  10.061  20.269  0.00  0.00    +0.000 C 
BRANCH  21  23
ATOM     22  N   UNL     1       1.680   7.677  21.409  0.00  0.00    +0.000 N 
ATOM     23  C   UNL     1       1.388   9.027  21.449  0.00  0.00    +0.000 C 
ATOM     24  O   UNL     1       1.539   9.520  22.591  0.00  0.00    +0.000 OA
ATOM     25  H   UNL     1       1.903   7.365  22.354  0.00  0.00    +0.000 HD
BRANCH  22  29
ATOM     26  C   UNL     1       2.190   4.606  18.507  0.00  0.00    +0.000 A 
ATOM     27  C   UNL     1       2.689   5.886  18.316  0.00  0.00    +0.000 A 
ATOM     28  C   UNL     1       2.520   6.905  19.269  0.00  0.00    +0.000 A 
ATOM     29  C   UNL     1       1.817   6.687  20.431  0.00  0.00    +0.000 A 
ATOM     30  C   UNL     1       1.298   5.382  20.644  0.00  0.00    +0.000 A 
ATOM     31  C   UNL     1       1.490   4.348  19.687  0.00  0.00    +0.000 A 
BRANCH  26  32
ATOM     32  O   UNL     1       2.423   3.752  17.468  0.00  0.00    +0.000 OA
BRANCH  32  34
ATOM     33  C   UNL     1       3.700   2.112  18.622  0.00  0.00    +0.000 C 
ATOM     34  C   UNL     1       3.666   3.058  17.428  0.00  0.00    +0.000 C 
ENDBRANCH  32  34
ENDBRANCH  26  32
ENDBRANCH  22  29
ENDBRANCH  21  23
ENDBRANCH   1  21
TORSDOF 7
ENDMDL
MODEL 8
REMARK VINA RESULT:      -7.3      4.002      6.846
REMARK  Name = 
REMARK  8 active torsions:
REMARK  status: ('A' for Active; 'I' for Inactive)
REMARK    1  A    between atoms: C_1  and  C_2
REMARK    2  A    between atoms: C_2  and  O_3
REMARK    3  A    between atoms: O_3  and  C_4
REMARK    4  A    between atoms: C_7  and  N_8
REMARK    5  A    between atoms: C_9  and  C_11
REMARK    6  A    between atoms: C_11  and  N_12
REMARK    7  A    between atoms: C_20  and  S_21
REMARK    8  A    between atoms: S_21  and  N_24
REMARK                            x       y       z     vdW  Elec       q    Type
REMARK                         _______ _______ _______ _____ _____    ______ ____
ROOT
ATOM      1  N   UNL     1      -0.567  10.669  20.129  0.00  0.00    +0.000 N 
ATOM      2  C   UNL     1      -0.559  11.206  18.814  0.00  0.00    +0.000 C 
ATOM      3  O   UNL     1      -1.067  10.584  17.879  0.00  0.00    +0.000 OA
ATOM      4  C   UNL     1       0.383  12.367  18.569  0.00  0.00    +0.000 C 
ATOM      5  S   UNL     1      -0.095  13.806  19.479  0.00  0.00    +0.000 S 
ATOM      6  C   UNL     1      -0.280  13.028  21.089  0.00  0.00    +0.000 A 
ATOM      7  C   UNL     1      -0.329  14.007  22.104  0.00  0.00    +0.000 A 
ATOM      8  C   UNL     1      -1.151  13.863  23.200  0.00  0.00    +0.000 A 
ATOM      9  C   UNL     1      -1.981  12.755  23.279  0.00  0.00    +0.000 A 
ATOM     10  C   UNL     1      -1.763  11.639  22.336  0.00  0.00    +0.000 A 
ATOM     11  C   UNL     1      -0.782  11.719  21.253  0.00  0.00    +0.000 A 
ENDROOT
BRANCH   9  12
ATOM     12  S   UNL     1      -3.606  13.216  24.087  0.00  0.00    +0.000 S 
ATOM     13  O   UNL     1      -4.162  11.935  24.489  0.00  0.00    +0.000 OA
ATOM     14  O   UNL     1      -3.315  14.238  25.068  0.00  0.00    +0.000 OA
BRANCH  12  15
ATOM     15  N   UNL     1      -4.774  13.866  23.009  0.00  0.00    +0.000 NA
ATOM     16  C   UNL     1      -5.119  15.297  22.859  0.00  0.00    +0.000 C 
ATOM     17  C   UNL     1      -6.262  15.579  23.847  0.00  0.00    +0.000 C 
ATOM     18  O   UNL     1      -7.401  14.722  23.617  0.00  0.00    +0.000 OA
ATOM     19  C   UNL     1      -7.059  13.318  23.576  0.00  0.00    +0.000 C 
ATOM     20  C   UNL     1      -5.942  13.059  22.577  0.00  0.00    +0.000 C 
ENDBRANCH  12  15
ENDBRANCH   9  12
BRANCH   1  21
ATOM     21  C   UNL     1       0.709   9.808  20.179  0.00  0.00    +0.000 C 
BRANCH  21  23
ATOM     22  N   UNL     1       1.709   7.388  21.075  0.00  0.00    +0.000 N 
ATOM     23  C   UNL     1       1.118   8.623  21.260  0.00  0.00    +0.000 C 
ATOM     24  O   UNL     1       0.834   8.847  22.460  0.00  0.00    +0.000 OA
ATOM     25  H   UNL     1       1.731   6.901  21.970  0.00  0.00    +0.000 HD
BRANCH  22  29
ATOM     26  C   UNL     1       3.485   5.289  17.826  0.00  0.00    +0.000 A 
ATOM     27  C   UNL     1       3.173   4.660  19.022  0.00  0.00    +0.000 A 
ATOM     28  C   UNL     1       2.590   5.350  20.100  0.00  0.00    +0.000 A 
ATOM     29  C   UNL     1       2.330   6.698  20.029  0.00  0.00    +0.000 A 
ATOM     30  C   UNL     1       2.644   7.359  18.812  0.00  0.00    +0.000 A 
ATOM     31  C   UNL     1       3.213   6.654  17.716  0.00  0.00    +0.000 A 
BRANCH  26  32
ATOM     32  O   UNL     1       4.069   4.474  16.900  0.00  0.00    +0.000 OA
BRANCH  32  34
ATOM     33  C   UNL     1       6.444   4.556  16.822  0.00  0.00    +0.000 C 
ATOM     34  C   UNL     1       5.155   4.990  16.135  0.00  0.00    +0.000 C 
ENDBRANCH  32  34
ENDBRANCH  26  32
ENDBRANCH  22  29
ENDBRANCH  21  23
ENDBRANCH   1  21
TORSDOF 7
ENDMDL
MODEL 9
REMARK VINA RESULT:      -7.3      2.695      3.574
REMARK  Name = 
REMARK  8 active torsions:
REMARK  status: ('A' for Active; 'I' for Inactive)
REMARK    1  A    between atoms: C_1  and  C_2
REMARK    2  A    between atoms: C_2  and  O_3
REMARK    3  A    between atoms: O_3  and  C_4
REMARK    4  A    between atoms: C_7  and  N_8
REMARK    5  A    between atoms: C_9  and  C_11
REMARK    6  A    between atoms: C_11  and  N_12
REMARK    7  A    between atoms: C_20  and  S_21
REMARK    8  A    between atoms: S_21  and  N_24
REMARK                            x       y       z     vdW  Elec       q    Type
REMARK                         _______ _______ _______ _____ _____    ______ ____
ROOT
ATOM      1  N   UNL     1       3.423   4.111  19.788  0.00  0.00    +0.000 N 
ATOM      2  C   UNL     1       2.643   3.068  19.221  0.00  0.00    +0.000 C 
ATOM      3  O   UNL     1       2.447   2.023  19.843  0.00  0.00    +0.000 OA
ATOM      4  C   UNL     1       2.377   3.162  17.732  0.00  0.00    +0.000 C 
ATOM      5  S   UNL     1       1.358   4.551  17.332  0.00  0.00    +0.000 S 
ATOM      6  C   UNL     1       2.283   5.802  18.234  0.00  0.00    +0.000 A 
ATOM      7  C   UNL     1       1.895   7.093  17.820  0.00  0.00    +0.000 A 
ATOM      8  C   UNL     1       1.805   8.137  18.714  0.00  0.00    +0.000 A 
ATOM      9  C   UNL     1       2.056   7.897  20.057  0.00  0.00    +0.000 A 
ATOM     10  C   UNL     1       2.671   6.611  20.443  0.00  0.00    +0.000 A 
ATOM     11  C   UNL     1       2.913   5.544  19.471  0.00  0.00    +0.000 A 
ENDROOT
BRANCH   9  12
ATOM     12  S   UNL     1       0.934   8.950  21.125  0.00  0.00    +0.000 S 
ATOM     13  O   UNL     1      -0.237   8.111  21.317  0.00  0.00    +0.000 OA
ATOM     14  O   UNL     1       1.721   9.394  22.255  0.00  0.00    +0.000 OA
BRANCH  12  15
ATOM     15  N   UNL     1       0.327  10.354  20.346  0.00  0.00    +0.000 NA
ATOM     16  C   UNL     1       1.131  11.362  19.620  0.00  0.00    +0.000 C 
ATOM     17  C   UNL     1       1.531  12.430  20.651  0.00  0.00    +0.000 C 
ATOM     18  O   UNL     1       0.381  13.018  21.296  0.00  0.00    +0.000 OA
ATOM     19  C   UNL     1      -0.520  12.038  21.858  0.00  0.00    +0.000 C 
ATOM     20  C   UNL     1      -0.920  11.005  20.816  0.00  0.00    +0.000 C 
ENDBRANCH  12  15
ENDBRANCH   9  12
BRANCH   1  21
ATOM     21  C   UNL     1       4.864   3.752  19.380  0.00  0.00    +0.000 C 
BRANCH  21  23
ATOM     22  N   UNL     1       6.764   5.031  17.827  0.00  0.00    +0.000 N 
ATOM     23  C   UNL     1       6.123   4.765  19.021  0.00  0.00    +0.000 C 
ATOM     24  O   UNL     1       6.615   5.399  19.984  0.00  0.00    +0.000 OA
ATOM     25  H   UNL     1       7.549   5.654  18.011  0.00  0.00    +0.000 HD
BRANCH  22  29
ATOM     26  C   UNL     1       6.220   4.008  13.731  0.00  0.00    +0.000 A 
ATOM     27  C   UNL     1       7.261   4.822  14.152  0.00  0.00    +0.000 A 
ATOM     28  C   UNL     1       7.443   5.166  15.502  0.00  0.00    +0.000 A 
ATOM     29  C   UNL     1       6.571   4.735  16.473  0.00  0.00    +0.000 A 
ATOM     30  C   UNL     1       5.497   3.901  16.062  0.00  0.00    +0.000 A 
ATOM     31  C   UNL     1       5.329   3.537  14.698  0.00  0.00    +0.000 A 
BRANCH  26  32
ATOM     32  O   UNL     1       6.179   3.801  12.383  0.00  0.00    +0.000 OA
BRANCH  32  34
ATOM     33  C   UNL     1       5.833   1.691  11.343  0.00  0.00    +0.000 C 
ATOM     34  C   UNL     1       5.158   2.956  11.860  0.00  0.00    +0.000 C 
ENDBRANCH  32  34
ENDBRANCH  26  32
ENDBRANCH  22  29
ENDBRANCH  21  23
ENDBRANCH   1  21
TORSDOF 7
ENDMDL
