MODEL 1
REMARK VINA RESULT:      -5.7      0.000      0.000
REMARK  Name = 
REMARK  2 active torsions:
REMARK  status: ('A' for Active; 'I' for Inactive)
REMARK    1  A    between atoms: C_5  and  O_6
REMARK    2  A    between atoms: C_11  and  O_12
REMARK                            x       y       z     vdW  Elec       q    Type
REMARK                         _______ _______ _______ _____ _____    ______ ____
ROOT
ATOM      1  O   UNL     1       0.808   4.168  17.195  0.00  0.00    +0.000 OA
ATOM      2  C   UNL     1       1.575   3.829  18.081  0.00  0.00    +0.000 C 
ATOM      3  O   UNL     1       2.556   2.884  17.921  0.00  0.00    +0.000 OA
ATOM      4  C   UNL     1       3.104   2.580  19.205  0.00  0.00    +0.000 C 
ATOM      5  C   UNL     1       4.611   2.526  19.157  0.00  0.00    +0.000 C 
ATOM      6  C   UNL     1       4.975   3.991  19.294  0.00  0.00    +0.000 C 
ATOM      7  O   UNL     1       6.079   4.474  19.097  0.00  0.00    +0.000 OA
ATOM      8  O   UNL     1       3.904   4.698  19.769  0.00  0.00    +0.000 OA
ATOM      9  C   UNL     1       2.838   3.785  20.057  0.00  0.00    +0.000 C 
ATOM     10  C   UNL     1       1.517   4.281  19.530  0.00  0.00    +0.000 C 
ENDROOT
BRANCH   5  11
ATOM     11  O   UNL     1       5.082   1.721  20.236  0.00  0.00    +0.000 OA
ATOM     12  H   UNL     1       4.415   1.742  20.948  0.00  0.00    +0.000 HD
ENDBRANCH   5  11
BRANCH  10  13
ATOM     13  O   UNL     1       0.471   3.667  20.271  0.00  0.00    +0.000 OA
ATOM     14  H   UNL     1      -0.382   3.977  19.906  0.00  0.00    +0.000 HD
ENDBRANCH  10  13
TORSDOF 2
ENDMDL
MODEL 2
REMARK VINA RESULT:      -5.6      0.095      3.940
REMARK  Name = 
REMARK  2 active torsions:
REMARK  status: ('A' for Active; 'I' for Inactive)
REMARK    1  A    between atoms: C_5  and  O_6
REMARK    2  A    between atoms: C_11  and  O_12
REMARK                            x       y       z     vdW  Elec       q    Type
REMARK                         _______ _______ _______ _____ _____    ______ ____
ROOT
ATOM      1  O   UNL     1       6.137   4.383  18.969  0.00  0.00    +0.000 OA
ATOM      2  C   UNL     1       5.023   3.940  19.194  0.00  0.00    +0.000 C 
ATOM      3  O   UNL     1       3.978   4.700  19.652  0.00  0.00    +0.000 OA
ATOM      4  C   UNL     1       2.909   3.826  20.016  0.00  0.00    +0.000 C 
ATOM      5  C   UNL     1       1.585   4.336  19.503  0.00  0.00    +0.000 C 
ATOM      6  C   UNL     1       1.589   3.819  18.078  0.00  0.00    +0.000 C 
ATOM      7  O   UNL     1       0.818   4.158  17.193  0.00  0.00    +0.000 OA
ATOM      8  O   UNL     1       2.528   2.834  17.939  0.00  0.00    +0.000 OA
ATOM      9  C   UNL     1       3.117   2.572  19.218  0.00  0.00    +0.000 C 
ATOM     10  C   UNL     1       4.619   2.477  19.135  0.00  0.00    +0.000 C 
ENDROOT
BRANCH   5  11
ATOM     11  O   UNL     1       0.535   3.793  20.301  0.00  0.00    +0.000 OA
ATOM     12  H   UNL     1      -0.196   3.533  19.710  0.00  0.00    +0.000 HD
ENDBRANCH   5  11
BRANCH  10  13
ATOM     13  O   UNL     1       5.089   1.716  20.240  0.00  0.00    +0.000 OA
ATOM     14  H   UNL     1       6.019   1.968  20.408  0.00  0.00    +0.000 HD
ENDBRANCH  10  13
TORSDOF 2
ENDMDL
MODEL 3
REMARK VINA RESULT:      -5.6      4.010      5.738
REMARK  Name = 
REMARK  2 active torsions:
REMARK  status: ('A' for Active; 'I' for Inactive)
REMARK    1  A    between atoms: C_5  and  O_6
REMARK    2  A    between atoms: C_11  and  O_12
REMARK                            x       y       z     vdW  Elec       q    Type
REMARK                         _______ _______ _______ _____ _____    ______ ____
ROOT
ATOM      1  O   UNL     1       8.335   8.085  18.376  0.00  0.00    +0.000 OA
ATOM      2  C   UNL     1       7.691   7.070  18.172  0.00  0.00    +0.000 C 
ATOM      3  O   UNL     1       6.533   7.035  17.439  0.00  0.00    +0.000 OA
ATOM      4  C   UNL     1       5.937   5.746  17.596  0.00  0.00    +0.000 C 
ATOM      5  C   UNL     1       5.464   5.198  16.273  0.00  0.00    +0.000 C 
ATOM      6  C   UNL     1       6.739   4.596  15.717  0.00  0.00    +0.000 C 
ATOM      7  O   UNL     1       6.909   4.218  14.568  0.00  0.00    +0.000 OA
ATOM      8  O   UNL     1       7.660   4.441  16.717  0.00  0.00    +0.000 OA
ATOM      9  C   UNL     1       7.060   4.820  17.961  0.00  0.00    +0.000 C 
ATOM     10  C   UNL     1       7.968   5.704  18.776  0.00  0.00    +0.000 C 
ENDROOT
BRANCH   5  11
ATOM     11  O   UNL     1       4.437   4.236  16.508  0.00  0.00    +0.000 OA
ATOM     12  H   UNL     1       4.714   3.389  16.109  0.00  0.00    +0.000 HD
ENDBRANCH   5  11
BRANCH  10  13
ATOM     13  O   UNL     1       7.592   5.605  20.144  0.00  0.00    +0.000 OA
ATOM     14  H   UNL     1       6.616   5.577  20.189  0.00  0.00    +0.000 HD
ENDBRANCH  10  13
TORSDOF 2
ENDMDL
MODEL 4
REMARK VINA RESULT:      -5.6      3.882      4.919
REMARK  Name = 
REMARK  2 active torsions:
REMARK  status: ('A' for Active; 'I' for Inactive)
REMARK    1  A    between atoms: C_5  and  O_6
REMARK    2  A    between atoms: C_11  and  O_12
REMARK                            x       y       z     vdW  Elec       q    Type
REMARK                         _______ _______ _______ _____ _____    ______ ____
ROOT
ATOM      1  O   UNL     1       6.746   4.111  14.647  0.00  0.00    +0.000 OA
ATOM      2  C   UNL     1       6.627   4.512  15.793  0.00  0.00    +0.000 C 
ATOM      3  O   UNL     1       7.595   4.374  16.754  0.00  0.00    +0.000 OA
ATOM      4  C   UNL     1       7.036   4.746  18.015  0.00  0.00    +0.000 C 
ATOM      5  C   UNL     1       7.978   5.632  18.792  0.00  0.00    +0.000 C 
ATOM      6  C   UNL     1       7.676   6.994  18.200  0.00  0.00    +0.000 C 
ATOM      7  O   UNL     1       8.341   8.006  18.359  0.00  0.00    +0.000 OA
ATOM      8  O   UNL     1       6.484   6.960  17.528  0.00  0.00    +0.000 OA
ATOM      9  C   UNL     1       5.894   5.666  17.699  0.00  0.00    +0.000 C 
ATOM     10  C   UNL     1       5.370   5.112  16.399  0.00  0.00    +0.000 C 
ENDROOT
BRANCH   5  11
ATOM     11  O   UNL     1       7.670   5.535  20.180  0.00  0.00    +0.000 OA
ATOM     12  H   UNL     1       7.039   6.245  20.404  0.00  0.00    +0.000 HD
ENDBRANCH   5  11
BRANCH  10  13
ATOM     13  O   UNL     1       4.366   4.148  16.686  0.00  0.00    +0.000 OA
ATOM     14  H   UNL     1       4.807   3.291  16.853  0.00  0.00    +0.000 HD
ENDBRANCH  10  13
TORSDOF 2
ENDMDL
MODEL 5
REMARK VINA RESULT:      -5.6      1.644      2.943
REMARK  Name = 
REMARK  2 active torsions:
REMARK  status: ('A' for Active; 'I' for Inactive)
REMARK    1  A    between atoms: C_5  and  O_6
REMARK    2  A    between atoms: C_11  and  O_12
REMARK                            x       y       z     vdW  Elec       q    Type
REMARK                         _______ _______ _______ _____ _____    ______ ____
ROOT
ATOM      1  O   UNL     1       1.433   2.475  22.351  0.00  0.00    +0.000 OA
ATOM      2  C   UNL     1       1.767   3.036  21.320  0.00  0.00    +0.000 C 
ATOM      3  O   UNL     1       2.343   4.279  21.280  0.00  0.00    +0.000 OA
ATOM      4  C   UNL     1       2.389   4.712  19.920  0.00  0.00    +0.000 C 
ATOM      5  C   UNL     1       3.731   5.316  19.583  0.00  0.00    +0.000 C 
ATOM      6  C   UNL     1       4.552   4.080  19.270  0.00  0.00    +0.000 C 
ATOM      7  O   UNL     1       5.767   4.043  19.148  0.00  0.00    +0.000 OA
ATOM      8  O   UNL     1       3.727   3.013  19.044  0.00  0.00    +0.000 OA
ATOM      9  C   UNL     1       2.367   3.461  19.093  0.00  0.00    +0.000 C 
ATOM     10  C   UNL     1       1.501   2.537  19.910  0.00  0.00    +0.000 C 
ENDROOT
BRANCH   5  11
ATOM     11  O   UNL     1       3.580   6.194  18.470  0.00  0.00    +0.000 OA
ATOM     12  H   UNL     1       2.663   6.527  18.465  0.00  0.00    +0.000 HD
ENDBRANCH   5  11
BRANCH  10  13
ATOM     13  O   UNL     1       0.150   2.697  19.499  0.00  0.00    +0.000 OA
ATOM     14  H   UNL     1      -0.216   3.480  19.959  0.00  0.00    +0.000 HD
ENDBRANCH  10  13
TORSDOF 2
ENDMDL
MODEL 6
REMARK VINA RESULT:      -5.5      1.752      3.604
REMARK  Name = 
REMARK  2 active torsions:
REMARK  status: ('A' for Active; 'I' for Inactive)
REMARK    1  A    between atoms: C_5  and  O_6
REMARK    2  A    between atoms: C_11  and  O_12
REMARK                            x       y       z     vdW  Elec       q    Type
REMARK                         _______ _______ _______ _____ _____    ______ ____
ROOT
ATOM      1  O   UNL     1       6.540   5.253  19.648  0.00  0.00    +0.000 OA
ATOM      2  C   UNL     1       5.431   4.787  19.449  0.00  0.00    +0.000 C 
ATOM      3  O   UNL     1       5.168   3.443  19.388  0.00  0.00    +0.000 OA
ATOM      4  C   UNL     1       3.831   3.264  18.919  0.00  0.00    +0.000 C 
ATOM      5  C   UNL     1       3.099   2.227  19.735  0.00  0.00    +0.000 C 
ATOM      6  C   UNL     1       2.628   3.046  20.920  0.00  0.00    +0.000 C 
ATOM      7  O   UNL     1       2.169   2.599  21.960  0.00  0.00    +0.000 OA
ATOM      8  O   UNL     1       2.697   4.381  20.626  0.00  0.00    +0.000 OA
ATOM      9  C   UNL     1       3.106   4.533  19.262  0.00  0.00    +0.000 C 
ATOM     10  C   UNL     1       4.180   5.579  19.112  0.00  0.00    +0.000 C 
ENDROOT
BRANCH   5  11
ATOM     11  O   UNL     1       2.032   1.690  18.956  0.00  0.00    +0.000 OA
ATOM     12  H   UNL     1       1.224   1.687  19.503  0.00  0.00    +0.000 HD
ENDBRANCH   5  11
BRANCH  10  13
ATOM     13  O   UNL     1       4.161   6.063  17.775  0.00  0.00    +0.000 OA
ATOM     14  H   UNL     1       3.268   5.903  17.407  0.00  0.00    +0.000 HD
ENDBRANCH  10  13
TORSDOF 2
ENDMDL
MODEL 7
REMARK VINA RESULT:      -5.5      1.761      2.986
REMARK  Name = 
REMARK  2 active torsions:
REMARK  status: ('A' for Active; 'I' for Inactive)
REMARK    1  A    between atoms: C_5  and  O_6
REMARK    2  A    between atoms: C_11  and  O_12
REMARK                            x       y       z     vdW  Elec       q    Type
REMARK                         _______ _______ _______ _____ _____    ______ ____
ROOT
ATOM      1  O   UNL     1       2.097   2.789  21.962  0.00  0.00    +0.000 OA
ATOM      2  C   UNL     1       2.606   3.170  20.921  0.00  0.00    +0.000 C 
ATOM      3  O   UNL     1       2.705   4.488  20.558  0.00  0.00    +0.000 OA
ATOM      4  C   UNL     1       3.140   4.551  19.199  0.00  0.00    +0.000 C 
ATOM      5  C   UNL     1       4.225   5.585  19.018  0.00  0.00    +0.000 C 
ATOM      6  C   UNL     1       5.460   4.808  19.430  0.00  0.00    +0.000 C 
ATOM      7  O   UNL     1       6.561   5.286  19.653  0.00  0.00    +0.000 OA
ATOM      8  O   UNL     1       5.194   3.466  19.425  0.00  0.00    +0.000 OA
ATOM      9  C   UNL     1       3.862   3.260  18.941  0.00  0.00    +0.000 C 
ATOM     10  C   UNL     1       3.101   2.279  19.795  0.00  0.00    +0.000 C 
ENDROOT
BRANCH   5  11
ATOM     11  O   UNL     1       4.245   6.004  17.656  0.00  0.00    +0.000 OA
ATOM     12  H   UNL     1       5.129   6.370  17.461  0.00  0.00    +0.000 HD
ENDBRANCH   5  11
BRANCH  10  13
ATOM     13  O   UNL     1       2.052   1.716  19.017  0.00  0.00    +0.000 OA
ATOM     14  H   UNL     1       1.733   2.402  18.397  0.00  0.00    +0.000 HD
ENDBRANCH  10  13
TORSDOF 2
ENDMDL
MODEL 8
REMARK VINA RESULT:      -5.5      2.730      4.948
REMARK  Name = 
REMARK  2 active torsions:
REMARK  status: ('A' for Active; 'I' for Inactive)
REMARK    1  A    between atoms: C_5  and  O_6
REMARK    2  A    between atoms: C_11  and  O_12
REMARK                            x       y       z     vdW  Elec       q    Type
REMARK                         _______ _______ _______ _____ _____    ______ ____
ROOT
ATOM      1  O   UNL     1       7.329   7.649  16.965  0.00  0.00    +0.000 OA
ATOM      2  C   UNL     1       6.856   6.541  17.156  0.00  0.00    +0.000 C 
ATOM      3  O   UNL     1       6.630   6.013  18.401  0.00  0.00    +0.000 OA
ATOM      4  C   UNL     1       6.289   4.633  18.252  0.00  0.00    +0.000 C 
ATOM      5  C   UNL     1       5.108   4.265  19.116  0.00  0.00    +0.000 C 
ATOM      6  C   UNL     1       3.945   4.698  18.246  0.00  0.00    +0.000 C 
ATOM      7  O   UNL     1       2.782   4.798  18.606  0.00  0.00    +0.000 OA
ATOM      8  O   UNL     1       4.364   4.874  16.955  0.00  0.00    +0.000 OA
ATOM      9  C   UNL     1       5.743   4.497  16.861  0.00  0.00    +0.000 C 
ATOM     10  C   UNL     1       6.549   5.507  16.087  0.00  0.00    +0.000 C 
ENDROOT
BRANCH   5  11
ATOM     11  O   UNL     1       5.137   2.862  19.369  0.00  0.00    +0.000 OA
ATOM     12  H   UNL     1       5.324   2.725  20.317  0.00  0.00    +0.000 HD
ENDBRANCH   5  11
BRANCH  10  13
ATOM     13  O   UNL     1       7.709   4.866  15.572  0.00  0.00    +0.000 OA
ATOM     14  H   UNL     1       7.458   4.401  14.749  0.00  0.00    +0.000 HD
ENDBRANCH  10  13
TORSDOF 2
ENDMDL
MODEL 9
REMARK VINA RESULT:      -5.5      1.486      1.602
REMARK  Name = 
REMARK  2 active torsions:
REMARK  status: ('A' for Active; 'I' for Inactive)
REMARK    1  A    between atoms: C_5  and  O_6
REMARK    2  A    between atoms: C_11  and  O_12
REMARK                            x       y       z     vdW  Elec       q    Type
REMARK                         _______ _______ _______ _____ _____    ______ ____
ROOT
ATOM      1  O   UNL     1       0.084   2.071  18.413  0.00  0.00    +0.000 OA
ATOM      2  C   UNL     1       1.110   2.560  18.856  0.00  0.00    +0.000 C 
ATOM      3  O   UNL     1       2.365   2.230  18.416  0.00  0.00    +0.000 OA
ATOM      4  C   UNL     1       3.323   2.816  19.299  0.00  0.00    +0.000 C 
ATOM      5  C   UNL     1       4.449   3.466  18.532  0.00  0.00    +0.000 C 
ATOM      6  C   UNL     1       3.852   4.819  18.200  0.00  0.00    +0.000 C 
ATOM      7  O   UNL     1       4.309   5.624  17.404  0.00  0.00    +0.000 OA
ATOM      8  O   UNL     1       2.767   5.062  18.997  0.00  0.00    +0.000 OA
ATOM      9  C   UNL     1       2.630   3.987  19.933  0.00  0.00    +0.000 C 
ATOM     10  C   UNL     1       1.204   3.512  20.037  0.00  0.00    +0.000 C 
ENDROOT
BRANCH   5  11
ATOM     11  O   UNL     1       5.599   3.542  19.371  0.00  0.00    +0.000 OA
ATOM     12  H   UNL     1       5.404   3.072  20.204  0.00  0.00    +0.000 HD
ENDBRANCH   5  11
BRANCH  10  13
ATOM     13  O   UNL     1       1.027   2.871  21.294  0.00  0.00    +0.000 OA
ATOM     14  H   UNL     1       0.593   3.506  21.899  0.00  0.00    +0.000 HD
ENDBRANCH  10  13
TORSDOF 2
ENDMDL
