MODEL 1
REMARK VINA RESULT:      -8.8      0.000      0.000
REMARK  Name = 
REMARK  3 active torsions:
REMARK  status: ('A' for Active; 'I' for Inactive)
REMARK    1  A    between atoms: C_6  and  C_7
REMARK    2  A    between atoms: C_10  and  C_11
REMARK    3  A    between atoms: C_11  and  N_12
REMARK                            x       y       z     vdW  Elec       q    Type
REMARK                         _______ _______ _______ _____ _____    ______ ____
ROOT
ATOM      1  C   UNL     1       7.073   4.613  16.038  0.00  0.00    +0.000 A 
ATOM      2  N   UNL     1       8.070   4.366  16.862  0.00  0.00    +0.000 NA
ATOM      3  N   UNL     1       7.590   4.557  18.138  0.00  0.00    +0.000 NA
ATOM      4  C   UNL     1       6.328   4.907  18.011  0.00  0.00    +0.000 A 
ATOM      5  O   UNL     1       5.922   4.967  16.701  0.00  0.00    +0.000 OA
ENDROOT
BRANCH   1  11
ATOM      6 CL   UNL     1       5.075   2.562  11.693  0.00  0.00    +0.000 Cl
ATOM      7  C   UNL     1       6.150   3.628  12.511  0.00  0.00    +0.000 A 
ATOM      8  C   UNL     1       6.993   4.454  11.771  0.00  0.00    +0.000 A 
ATOM      9  C   UNL     1       7.862   5.320  12.429  0.00  0.00    +0.000 A 
ATOM     10  C   UNL     1       7.876   5.359  13.826  0.00  0.00    +0.000 A 
ATOM     11  C   UNL     1       7.029   4.531  14.584  0.00  0.00    +0.000 A 
ATOM     12  C   UNL     1       6.165   3.658  13.909  0.00  0.00    +0.000 A 
ENDBRANCH   1  11
BRANCH   4  13
ATOM     13  C   UNL     1       5.334   5.153  19.073  0.00  0.00    +0.000 C 
BRANCH  13  14
ATOM     14  N   UNL     1       4.529   3.980  19.345  0.00  0.00    +0.000 N 
ATOM     15  N   UNL     1       5.021   3.020  20.155  0.00  0.00    +0.000 NA
ATOM     16  N   UNL     1       4.071   2.112  20.326  0.00  0.00    +0.000 NA
ATOM     17  C   UNL     1       2.966   2.517  19.629  0.00  0.00    +0.000 A 
ATOM     18  C   UNL     1       1.705   1.918  19.492  0.00  0.00    +0.000 A 
ATOM     19  C   UNL     1       0.741   2.564  18.709  0.00  0.00    +0.000 A 
ATOM     20  C   UNL     1       1.025   3.780  18.082  0.00  0.00    +0.000 A 
ATOM     21  C   UNL     1       2.277   4.394  18.212  0.00  0.00    +0.000 A 
ATOM     22  C   UNL     1       3.228   3.726  18.993  0.00  0.00    +0.000 A 
ENDBRANCH  13  14
ENDBRANCH   4  13
TORSDOF 3
ENDMDL
MODEL 2
REMARK VINA RESULT:      -8.5      1.142      1.775
REMARK  Name = 
REMARK  3 active torsions:
REMARK  status: ('A' for Active; 'I' for Inactive)
REMARK    1  A    between atoms: C_6  and  C_7
REMARK    2  A    between atoms: C_10  and  C_11
REMARK    3  A    between atoms: C_11  and  N_12
REMARK                            x       y       z     vdW  Elec       q    Type
REMARK                         _______ _______ _______ _____ _____    ______ ____
ROOT
ATOM      1  C   UNL     1       7.110   4.685  16.081  0.00  0.00    +0.000 A 
ATOM      2  N   UNL     1       7.998   4.203  16.927  0.00  0.00    +0.000 NA
ATOM      3  N   UNL     1       7.572   4.543  18.191  0.00  0.00    +0.000 NA
ATOM      4  C   UNL     1       6.447   5.209  18.035  0.00  0.00    +0.000 A 
ATOM      5  O   UNL     1       6.085   5.343  16.718  0.00  0.00    +0.000 OA
ENDROOT
BRANCH   1  11
ATOM      6 CL   UNL     1       5.140   2.536  11.771  0.00  0.00    +0.000 Cl
ATOM      7  C   UNL     1       6.195   3.636  12.571  0.00  0.00    +0.000 A 
ATOM      8  C   UNL     1       7.016   4.471  11.817  0.00  0.00    +0.000 A 
ATOM      9  C   UNL     1       7.869   5.364  12.461  0.00  0.00    +0.000 A 
ATOM     10  C   UNL     1       7.887   5.420  13.857  0.00  0.00    +0.000 A 
ATOM     11  C   UNL     1       7.062   4.584  14.628  0.00  0.00    +0.000 A 
ATOM     12  C   UNL     1       6.215   3.684  13.968  0.00  0.00    +0.000 A 
ENDBRANCH   1  11
BRANCH   4  13
ATOM     13  C   UNL     1       5.541   5.732  19.076  0.00  0.00    +0.000 C 
BRANCH  13  14
ATOM     14  N   UNL     1       4.155   5.422  18.794  0.00  0.00    +0.000 N 
ATOM     15  N   UNL     1       3.331   6.410  18.385  0.00  0.00    +0.000 NA
ATOM     16  N   UNL     1       2.158   5.863  18.100  0.00  0.00    +0.000 NA
ATOM     17  C   UNL     1       2.253   4.515  18.315  0.00  0.00    +0.000 A 
ATOM     18  C   UNL     1       1.302   3.498  18.157  0.00  0.00    +0.000 A 
ATOM     19  C   UNL     1       1.676   2.181  18.451  0.00  0.00    +0.000 A 
ATOM     20  C   UNL     1       2.971   1.886  18.887  0.00  0.00    +0.000 A 
ATOM     21  C   UNL     1       3.935   2.889  19.046  0.00  0.00    +0.000 A 
ATOM     22  C   UNL     1       3.534   4.199  18.755  0.00  0.00    +0.000 A 
ENDBRANCH  13  14
ENDBRANCH   4  13
TORSDOF 3
ENDMDL
MODEL 3
REMARK VINA RESULT:      -8.5      1.419      1.899
REMARK  Name = 
REMARK  3 active torsions:
REMARK  status: ('A' for Active; 'I' for Inactive)
REMARK    1  A    between atoms: C_6  and  C_7
REMARK    2  A    between atoms: C_10  and  C_11
REMARK    3  A    between atoms: C_11  and  N_12
REMARK                            x       y       z     vdW  Elec       q    Type
REMARK                         _______ _______ _______ _____ _____    ______ ____
ROOT
ATOM      1  C   UNL     1       6.431   4.667  14.348  0.00  0.00    +0.000 A 
ATOM      2  N   UNL     1       7.557   5.255  14.699  0.00  0.00    +0.000 NA
ATOM      3  N   UNL     1       7.323   5.876  15.906  0.00  0.00    +0.000 NA
ATOM      4  C   UNL     1       6.068   5.625  16.214  0.00  0.00    +0.000 A 
ATOM      5  O   UNL     1       5.430   4.860  15.270  0.00  0.00    +0.000 OA
ENDROOT
BRANCH   1  11
ATOM      6 CL   UNL     1       3.054   2.938  10.787  0.00  0.00    +0.000 Cl
ATOM      7  C   UNL     1       4.628   2.998  11.480  0.00  0.00    +0.000 A 
ATOM      8  C   UNL     1       5.662   2.264  10.902  0.00  0.00    +0.000 A 
ATOM      9  C   UNL     1       6.937   2.313  11.458  0.00  0.00    +0.000 A 
ATOM     10  C   UNL     1       7.171   3.104  12.587  0.00  0.00    +0.000 A 
ATOM     11  C   UNL     1       6.137   3.851  13.177  0.00  0.00    +0.000 A 
ATOM     12  C   UNL     1       4.856   3.786  12.612  0.00  0.00    +0.000 A 
ENDBRANCH   1  11
BRANCH   4  13
ATOM     13  C   UNL     1       5.336   5.992  17.441  0.00  0.00    +0.000 C 
BRANCH  13  14
ATOM     14  N   UNL     1       4.902   4.827  18.184  0.00  0.00    +0.000 N 
ATOM     15  N   UNL     1       5.789   4.181  18.969  0.00  0.00    +0.000 NA
ATOM     16  N   UNL     1       5.135   3.223  19.611  0.00  0.00    +0.000 NA
ATOM     17  C   UNL     1       3.820   3.282  19.237  0.00  0.00    +0.000 A 
ATOM     18  C   UNL     1       2.725   2.501  19.632  0.00  0.00    +0.000 A 
ATOM     19  C   UNL     1       1.468   2.787  19.086  0.00  0.00    +0.000 A 
ATOM     20  C   UNL     1       1.307   3.833  18.172  0.00  0.00    +0.000 A 
ATOM     21  C   UNL     1       2.389   4.626  17.770  0.00  0.00    +0.000 A 
ATOM     22  C   UNL     1       3.637   4.315  18.324  0.00  0.00    +0.000 A 
ENDBRANCH  13  14
ENDBRANCH   4  13
TORSDOF 3
ENDMDL
MODEL 4
REMARK VINA RESULT:      -8.4      1.489      1.498
REMARK  Name = 
REMARK  3 active torsions:
REMARK  status: ('A' for Active; 'I' for Inactive)
REMARK    1  A    between atoms: C_6  and  C_7
REMARK    2  A    between atoms: C_10  and  C_11
REMARK    3  A    between atoms: C_11  and  N_12
REMARK                            x       y       z     vdW  Elec       q    Type
REMARK                         _______ _______ _______ _____ _____    ______ ____
ROOT
ATOM      1  C   UNL     1       5.882   5.545  15.667  0.00  0.00    +0.000 A 
ATOM      2  N   UNL     1       5.316   6.703  15.942  0.00  0.00    +0.000 NA
ATOM      3  N   UNL     1       5.127   6.741  17.305  0.00  0.00    +0.000 NA
ATOM      4  C   UNL     1       5.593   5.603  17.775  0.00  0.00    +0.000 A 
ATOM      5  O   UNL     1       6.091   4.785  16.793  0.00  0.00    +0.000 OA
ENDROOT
BRANCH   1  11
ATOM      6 CL   UNL     1       5.199   2.298  11.659  0.00  0.00    +0.000 Cl
ATOM      7  C   UNL     1       6.078   3.528  12.480  0.00  0.00    +0.000 A 
ATOM      8  C   UNL     1       7.235   4.048  11.903  0.00  0.00    +0.000 A 
ATOM      9  C   UNL     1       7.947   5.046  12.563  0.00  0.00    +0.000 A 
ATOM     10  C   UNL     1       7.490   5.524  13.795  0.00  0.00    +0.000 A 
ATOM     11  C   UNL     1       6.323   5.009  14.386  0.00  0.00    +0.000 A 
ATOM     12  C   UNL     1       5.621   3.999  13.715  0.00  0.00    +0.000 A 
ENDBRANCH   1  11
BRANCH   4  13
ATOM     13  C   UNL     1       5.702   5.169  19.182  0.00  0.00    +0.000 C 
BRANCH  13  14
ATOM     14  N   UNL     1       4.774   4.103  19.494  0.00  0.00    +0.000 N 
ATOM     15  N   UNL     1       5.236   2.838  19.592  0.00  0.00    +0.000 NA
ATOM     16  N   UNL     1       4.227   2.071  19.979  0.00  0.00    +0.000 NA
ATOM     17  C   UNL     1       3.126   2.866  20.144  0.00  0.00    +0.000 A 
ATOM     18  C   UNL     1       1.821   2.545  20.545  0.00  0.00    +0.000 A 
ATOM     19  C   UNL     1       0.877   3.574  20.633  0.00  0.00    +0.000 A 
ATOM     20  C   UNL     1       1.227   4.894  20.334  0.00  0.00    +0.000 A 
ATOM     21  C   UNL     1       2.526   5.233  19.936  0.00  0.00    +0.000 A 
ATOM     22  C   UNL     1       3.451   4.185  19.847  0.00  0.00    +0.000 A 
ENDBRANCH  13  14
ENDBRANCH   4  13
TORSDOF 3
ENDMDL
MODEL 5
REMARK VINA RESULT:      -8.4      1.392      1.904
REMARK  Name = 
REMARK  3 active torsions:
REMARK  status: ('A' for Active; 'I' for Inactive)
REMARK    1  A    between atoms: C_6  and  C_7
REMARK    2  A    between atoms: C_10  and  C_11
REMARK    3  A    between atoms: C_11  and  N_12
REMARK                            x       y       z     vdW  Elec       q    Type
REMARK                         _______ _______ _______ _____ _____    ______ ____
ROOT
ATOM      1  C   UNL     1       6.393   4.837  14.674  0.00  0.00    +0.000 A 
ATOM      2  N   UNL     1       7.512   5.476  14.949  0.00  0.00    +0.000 NA
ATOM      3  N   UNL     1       7.364   6.017  16.206  0.00  0.00    +0.000 NA
ATOM      4  C   UNL     1       6.164   5.670  16.620  0.00  0.00    +0.000 A 
ATOM      5  O   UNL     1       5.480   4.917  15.699  0.00  0.00    +0.000 OA
ENDROOT
BRANCH   1  11
ATOM      6 CL   UNL     1       7.742   1.707  10.743  0.00  0.00    +0.000 Cl
ATOM      7  C   UNL     1       6.575   2.604  11.634  0.00  0.00    +0.000 A 
ATOM      8  C   UNL     1       5.241   2.583  11.234  0.00  0.00    +0.000 A 
ATOM      9  C   UNL     1       4.293   3.306  11.955  0.00  0.00    +0.000 A 
ATOM     10  C   UNL     1       4.688   4.039  13.078  0.00  0.00    +0.000 A 
ATOM     11  C   UNL     1       6.031   4.065  13.492  0.00  0.00    +0.000 A 
ATOM     12  C   UNL     1       6.975   3.341  12.753  0.00  0.00    +0.000 A 
ENDBRANCH   1  11
BRANCH   4  13
ATOM     13  C   UNL     1       5.538   5.926  17.931  0.00  0.00    +0.000 C 
BRANCH  13  14
ATOM     14  N   UNL     1       4.951   4.728  18.495  0.00  0.00    +0.000 N 
ATOM     15  N   UNL     1       5.702   3.945  19.298  0.00  0.00    +0.000 NA
ATOM     16  N   UNL     1       4.922   2.979  19.761  0.00  0.00    +0.000 NA
ATOM     17  C   UNL     1       3.664   3.170  19.258  0.00  0.00    +0.000 A 
ATOM     18  C   UNL     1       2.485   2.435  19.448  0.00  0.00    +0.000 A 
ATOM     19  C   UNL     1       1.319   2.865  18.804  0.00  0.00    +0.000 A 
ATOM     20  C   UNL     1       1.327   4.004  17.994  0.00  0.00    +0.000 A 
ATOM     21  C   UNL     1       2.494   4.752  17.797  0.00  0.00    +0.000 A 
ATOM     22  C   UNL     1       3.650   4.298  18.445  0.00  0.00    +0.000 A 
ENDBRANCH  13  14
ENDBRANCH   4  13
TORSDOF 3
ENDMDL
MODEL 6
REMARK VINA RESULT:      -8.4      1.789      2.138
REMARK  Name = 
REMARK  3 active torsions:
REMARK  status: ('A' for Active; 'I' for Inactive)
REMARK    1  A    between atoms: C_6  and  C_7
REMARK    2  A    between atoms: C_10  and  C_11
REMARK    3  A    between atoms: C_11  and  N_12
REMARK                            x       y       z     vdW  Elec       q    Type
REMARK                         _______ _______ _______ _____ _____    ______ ____
ROOT
ATOM      1  C   UNL     1       5.969   4.850  15.834  0.00  0.00    +0.000 A 
ATOM      2  N   UNL     1       6.570   4.557  16.970  0.00  0.00    +0.000 NA
ATOM      3  N   UNL     1       5.743   4.989  17.982  0.00  0.00    +0.000 NA
ATOM      4  C   UNL     1       4.687   5.516  17.398  0.00  0.00    +0.000 A 
ATOM      5  O   UNL     1       4.756   5.466  16.028  0.00  0.00    +0.000 OA
ENDROOT
BRANCH   1  11
ATOM      6 CL   UNL     1       5.467   2.189  11.391  0.00  0.00    +0.000 Cl
ATOM      7  C   UNL     1       6.224   3.393  12.359  0.00  0.00    +0.000 A 
ATOM      8  C   UNL     1       7.259   4.156  11.822  0.00  0.00    +0.000 A 
ATOM      9  C   UNL     1       7.871   5.134  12.602  0.00  0.00    +0.000 A 
ATOM     10  C   UNL     1       7.437   5.347  13.913  0.00  0.00    +0.000 A 
ATOM     11  C   UNL     1       6.393   4.585  14.465  0.00  0.00    +0.000 A 
ATOM     12  C   UNL     1       5.791   3.599  13.673  0.00  0.00    +0.000 A 
ENDBRANCH   1  11
BRANCH   4  13
ATOM     13  C   UNL     1       3.466   6.054  18.027  0.00  0.00    +0.000 C 
BRANCH  13  14
ATOM     14  N   UNL     1       2.507   5.013  18.329  0.00  0.00    +0.000 N 
ATOM     15  N   UNL     1       1.788   4.471  17.323  0.00  0.00    +0.000 NA
ATOM     16  N   UNL     1       1.063   3.486  17.833  0.00  0.00    +0.000 NA
ATOM     17  C   UNL     1       1.344   3.398  19.169  0.00  0.00    +0.000 A 
ATOM     18  C   UNL     1       0.851   2.524  20.149  0.00  0.00    +0.000 A 
ATOM     19  C   UNL     1       1.321   2.657  21.460  0.00  0.00    +0.000 A 
ATOM     20  C   UNL     1       2.265   3.634  21.786  0.00  0.00    +0.000 A 
ATOM     21  C   UNL     1       2.772   4.512  20.820  0.00  0.00    +0.000 A 
ATOM     22  C   UNL     1       2.280   4.365  19.517  0.00  0.00    +0.000 A 
ENDBRANCH  13  14
ENDBRANCH   4  13
TORSDOF 3
ENDMDL
MODEL 7
REMARK VINA RESULT:      -8.3      1.003      1.037
REMARK  Name = 
REMARK  3 active torsions:
REMARK  status: ('A' for Active; 'I' for Inactive)
REMARK    1  A    between atoms: C_6  and  C_7
REMARK    2  A    between atoms: C_10  and  C_11
REMARK    3  A    between atoms: C_11  and  N_12
REMARK                            x       y       z     vdW  Elec       q    Type
REMARK                         _______ _______ _______ _____ _____    ______ ____
ROOT
ATOM      1  C   UNL     1       7.023   4.577  16.002  0.00  0.00    +0.000 A 
ATOM      2  N   UNL     1       8.036   4.422  16.830  0.00  0.00    +0.000 NA
ATOM      3  N   UNL     1       7.534   4.559  18.104  0.00  0.00    +0.000 NA
ATOM      4  C   UNL     1       6.245   4.786  17.972  0.00  0.00    +0.000 A 
ATOM      5  O   UNL     1       5.840   4.814  16.661  0.00  0.00    +0.000 OA
ENDROOT
BRANCH   1  11
ATOM      6 CL   UNL     1       5.196   2.413  11.636  0.00  0.00    +0.000 Cl
ATOM      7  C   UNL     1       6.191   3.547  12.465  0.00  0.00    +0.000 A 
ATOM      8  C   UNL     1       6.979   4.432  11.733  0.00  0.00    +0.000 A 
ATOM      9  C   UNL     1       7.783   5.353  12.401  0.00  0.00    +0.000 A 
ATOM     10  C   UNL     1       7.786   5.385  13.798  0.00  0.00    +0.000 A 
ATOM     11  C   UNL     1       6.993   4.499  14.547  0.00  0.00    +0.000 A 
ATOM     12  C   UNL     1       6.195   3.572  13.863  0.00  0.00    +0.000 A 
ENDBRANCH   1  11
BRANCH   4  13
ATOM     13  C   UNL     1       5.227   4.929  19.031  0.00  0.00    +0.000 C 
BRANCH  13  14
ATOM     14  N   UNL     1       4.180   3.936  18.914  0.00  0.00    +0.000 N 
ATOM     15  N   UNL     1       4.452   2.763  18.305  0.00  0.00    +0.000 NA
ATOM     16  N   UNL     1       3.377   1.995  18.412  0.00  0.00    +0.000 NA
ATOM     17  C   UNL     1       2.427   2.688  19.112  0.00  0.00    +0.000 A 
ATOM     18  C   UNL     1       1.130   2.321  19.495  0.00  0.00    +0.000 A 
ATOM     19  C   UNL     1       0.363   3.240  20.221  0.00  0.00    +0.000 A 
ATOM     20  C   UNL     1       0.880   4.493  20.562  0.00  0.00    +0.000 A 
ATOM     21  C   UNL     1       2.176   4.874  20.191  0.00  0.00    +0.000 A 
ATOM     22  C   UNL     1       2.920   3.941  19.458  0.00  0.00    +0.000 A 
ENDBRANCH  13  14
ENDBRANCH   4  13
TORSDOF 3
ENDMDL
MODEL 8
REMARK VINA RESULT:      -8.3      3.844      7.299
REMARK  Name = 
REMARK  3 active torsions:
REMARK  status: ('A' for Active; 'I' for Inactive)
REMARK    1  A    between atoms: C_6  and  C_7
REMARK    2  A    between atoms: C_10  and  C_11
REMARK    3  A    between atoms: C_11  and  N_12
REMARK                            x       y       z     vdW  Elec       q    Type
REMARK                         _______ _______ _______ _____ _____    ______ ____
ROOT
ATOM      1  C   UNL     1       3.362   6.141  18.743  0.00  0.00    +0.000 A 
ATOM      2  N   UNL     1       4.049   5.468  19.644  0.00  0.00    +0.000 NA
ATOM      3  N   UNL     1       4.663   4.428  18.983  0.00  0.00    +0.000 NA
ATOM      4  C   UNL     1       4.312   4.535  17.718  0.00  0.00    +0.000 A 
ATOM      5  O   UNL     1       3.482   5.602  17.484  0.00  0.00    +0.000 OA
ENDROOT
BRANCH   1  11
ATOM      6 CL   UNL     1       0.370   9.215  21.687  0.00  0.00    +0.000 Cl
ATOM      7  C   UNL     1       1.154   8.834  20.203  0.00  0.00    +0.000 A 
ATOM      8  C   UNL     1       1.037   9.703  19.121  0.00  0.00    +0.000 A 
ATOM      9  C   UNL     1       1.673   9.399  17.920  0.00  0.00    +0.000 A 
ATOM     10  C   UNL     1       2.429   8.228  17.814  0.00  0.00    +0.000 A 
ATOM     11  C   UNL     1       2.556   7.344  18.899  0.00  0.00    +0.000 A 
ATOM     12  C   UNL     1       1.904   7.658  20.099  0.00  0.00    +0.000 A 
ENDBRANCH   1  11
BRANCH   4  13
ATOM     13  C   UNL     1       4.757   3.718  16.573  0.00  0.00    +0.000 C 
BRANCH  13  14
ATOM     14  N   UNL     1       5.762   4.396  15.781  0.00  0.00    +0.000 N 
ATOM     15  N   UNL     1       6.625   5.234  16.392  0.00  0.00    +0.000 NA
ATOM     16  N   UNL     1       7.497   5.647  15.483  0.00  0.00    +0.000 NA
ATOM     17  C   UNL     1       7.188   5.046  14.294  0.00  0.00    +0.000 A 
ATOM     18  C   UNL     1       7.802   5.143  13.037  0.00  0.00    +0.000 A 
ATOM     19  C   UNL     1       7.271   4.403  11.974  0.00  0.00    +0.000 A 
ATOM     20  C   UNL     1       6.156   3.581  12.162  0.00  0.00    +0.000 A 
ATOM     21  C   UNL     1       5.533   3.468  13.412  0.00  0.00    +0.000 A 
ATOM     22  C   UNL     1       6.077   4.224  14.456  0.00  0.00    +0.000 A 
ENDBRANCH  13  14
ENDBRANCH   4  13
TORSDOF 3
ENDMDL
MODEL 9
REMARK VINA RESULT:      -8.2      1.748      1.999
REMARK  Name = 
REMARK  3 active torsions:
REMARK  status: ('A' for Active; 'I' for Inactive)
REMARK    1  A    between atoms: C_6  and  C_7
REMARK    2  A    between atoms: C_10  and  C_11
REMARK    3  A    between atoms: C_11  and  N_12
REMARK                            x       y       z     vdW  Elec       q    Type
REMARK                         _______ _______ _______ _____ _____    ______ ____
ROOT
ATOM      1  C   UNL     1       5.962   5.217  15.845  0.00  0.00    +0.000 A 
ATOM      2  N   UNL     1       6.465   4.891  17.019  0.00  0.00    +0.000 NA
ATOM      3  N   UNL     1       5.678   5.497  17.973  0.00  0.00    +0.000 NA
ATOM      4  C   UNL     1       4.743   6.153  17.318  0.00  0.00    +0.000 A 
ATOM      5  O   UNL     1       4.856   6.025  15.957  0.00  0.00    +0.000 OA
ENDROOT
BRANCH   1  11
ATOM      6 CL   UNL     1       5.383   2.236  11.621  0.00  0.00    +0.000 Cl
ATOM      7  C   UNL     1       6.189   3.473  12.503  0.00  0.00    +0.000 A 
ATOM      8  C   UNL     1       7.271   4.135  11.927  0.00  0.00    +0.000 A 
ATOM      9  C   UNL     1       7.924   5.139  12.638  0.00  0.00    +0.000 A 
ATOM     10  C   UNL     1       7.483   5.480  13.919  0.00  0.00    +0.000 A 
ATOM     11  C   UNL     1       6.391   4.821  14.510  0.00  0.00    +0.000 A 
ATOM     12  C   UNL     1       5.749   3.806  13.788  0.00  0.00    +0.000 A 
ENDBRANCH   1  11
BRANCH   4  13
ATOM     13  C   UNL     1       3.600   6.908  17.867  0.00  0.00    +0.000 C 
BRANCH  13  14
ATOM     14  N   UNL     1       2.853   6.134  18.836  0.00  0.00    +0.000 N 
ATOM     15  N   UNL     1       2.464   6.721  19.987  0.00  0.00    +0.000 NA
ATOM     16  N   UNL     1       1.721   5.849  20.653  0.00  0.00    +0.000 NA
ATOM     17  C   UNL     1       1.629   4.708  19.902  0.00  0.00    +0.000 A 
ATOM     18  C   UNL     1       0.957   3.504  20.154  0.00  0.00    +0.000 A 
ATOM     19  C   UNL     1       1.028   2.486  19.196  0.00  0.00    +0.000 A 
ATOM     20  C   UNL     1       1.747   2.668  18.011  0.00  0.00    +0.000 A 
ATOM     21  C   UNL     1       2.420   3.866  17.741  0.00  0.00    +0.000 A 
ATOM     22  C   UNL     1       2.341   4.866  18.718  0.00  0.00    +0.000 A 
ENDBRANCH  13  14
ENDBRANCH   4  13
TORSDOF 3
ENDMDL
