MODEL 1
REMARK VINA RESULT:      -7.9      0.000      0.000
REMARK  Name = 
REMARK  9 active torsions:
REMARK  status: ('A' for Active; 'I' for Inactive)
REMARK    1  A    between atoms: C_1  and  O_2
REMARK    2  A    between atoms: O_2  and  C_3
REMARK    3  A    between atoms: C_5  and  C_6
REMARK    4  A    between atoms: C_7  and  C_8
REMARK    5  A    between atoms: C_8  and  O_9
REMARK    6  A    between atoms: C_8  and  C_10
REMARK    7  A    between atoms: C_16  and  O_17
REMARK    8  A    between atoms: O_17  and  C_18
REMARK    9  A    between atoms: C_18  and  C_19
REMARK                            x       y       z     vdW  Elec       q    Type
REMARK                         _______ _______ _______ _____ _____    ______ ____
ROOT
ATOM      1  C   UNL     1       6.555   5.829  16.561  0.00  0.00    +0.000 A 
ATOM      2  C   UNL     1       5.498   5.992  17.470  0.00  0.00    +0.000 A 
ATOM      3  C   UNL     1       4.511   5.011  17.611  0.00  0.00    +0.000 A 
ATOM      4  C   UNL     1       4.532   3.908  16.762  0.00  0.00    +0.000 A 
ATOM      5  C   UNL     1       5.544   3.764  15.821  0.00  0.00    +0.000 A 
ATOM      6  C   UNL     1       6.544   4.737  15.673  0.00  0.00    +0.000 A 
ENDROOT
BRANCH   1   8
ATOM      7  C   UNL     1       7.573   7.765  17.466  0.00  0.00    +0.000 C 
ATOM      8  O   UNL     1       7.612   6.704  16.506  0.00  0.00    +0.000 OA
ENDBRANCH   1   8
BRANCH   3   9
ATOM      9  C   UNL     1       3.508   5.140  18.675  0.00  0.00    +0.000 C 
ATOM     10  C   UNL     1       3.428   4.249  19.676  0.00  0.00    +0.000 C 
BRANCH  10  11
ATOM     11  C   UNL     1       2.498   4.275  20.859  0.00  0.00    +0.000 C 
BRANCH  11  12
ATOM     12  C   UNL     1       1.284   3.319  20.702  0.00  0.00    +0.000 C 
ATOM     13  F   UNL     1       0.963   2.686  21.856  0.00  0.00    +0.000 F 
ATOM     14  F   UNL     1       0.181   3.991  20.298  0.00  0.00    +0.000 F 
ATOM     15  F   UNL     1       1.541   2.356  19.783  0.00  0.00    +0.000 F 
ENDBRANCH  11  12
BRANCH  11  16
ATOM     16  O   UNL     1       2.131   5.634  21.137  0.00  0.00    +0.000 OA
ATOM     17  H   UNL     1       1.682   5.634  22.001  0.00  0.00    +0.000 HD
ENDBRANCH  11  16
ENDBRANCH  10  11
ENDBRANCH   3   9
BRANCH   6  18
ATOM     18  O   UNL     1       7.507   4.664  14.688  0.00  0.00    +0.000 OA
BRANCH  18  19
ATOM     19  C   UNL     1       7.006   4.985  13.382  0.00  0.00    +0.000 C 
BRANCH  19  20
ATOM     20  C   UNL     1       6.584   3.815  12.532  0.00  0.00    +0.000 A 
ATOM     21  C   UNL     1       5.253   3.460  12.321  0.00  0.00    +0.000 A 
ATOM     22  C   UNL     1       4.947   2.350  11.534  0.00  0.00    +0.000 A 
ATOM     23  C   UNL     1       5.963   1.590  10.952  0.00  0.00    +0.000 A 
ATOM     24  C   UNL     1       7.292   1.954  11.129  0.00  0.00    +0.000 A 
ATOM     25  C   UNL     1       7.602   3.065  11.911  0.00  0.00    +0.000 A 
ENDBRANCH  19  20
ENDBRANCH  18  19
ENDBRANCH   6  18
TORSDOF 8
ENDMDL
MODEL 2
REMARK VINA RESULT:      -7.7      5.145      8.080
REMARK  Name = 
REMARK  9 active torsions:
REMARK  status: ('A' for Active; 'I' for Inactive)
REMARK    1  A    between atoms: C_1  and  O_2
REMARK    2  A    between atoms: O_2  and  C_3
REMARK    3  A    between atoms: C_5  and  C_6
REMARK    4  A    between atoms: C_7  and  C_8
REMARK    5  A    between atoms: C_8  and  O_9
REMARK    6  A    between atoms: C_8  and  C_10
REMARK    7  A    between atoms: C_16  and  O_17
REMARK    8  A    between atoms: O_17  and  C_18
REMARK    9  A    between atoms: C_18  and  C_19
REMARK                            x       y       z     vdW  Elec       q    Type
REMARK                         _______ _______ _______ _____ _____    ______ ____
ROOT
ATOM      1  C   UNL     1       6.011   5.815  17.332  0.00  0.00    +0.000 A 
ATOM      2  C   UNL     1       6.549   7.092  17.108  0.00  0.00    +0.000 A 
ATOM      3  C   UNL     1       7.629   7.561  17.862  0.00  0.00    +0.000 A 
ATOM      4  C   UNL     1       8.104   6.783  18.913  0.00  0.00    +0.000 A 
ATOM      5  C   UNL     1       7.542   5.541  19.179  0.00  0.00    +0.000 A 
ATOM      6  C   UNL     1       6.462   5.055  18.427  0.00  0.00    +0.000 A 
ENDROOT
BRANCH   1   8
ATOM      7  C   UNL     1       5.416   5.167  15.134  0.00  0.00    +0.000 C 
ATOM      8  O   UNL     1       5.050   5.274  16.514  0.00  0.00    +0.000 OA
ENDBRANCH   1   8
BRANCH   3   9
ATOM      9  C   UNL     1       8.265   8.834  17.502  0.00  0.00    +0.000 C 
ATOM     10  C   UNL     1       8.766   9.659  18.436  0.00  0.00    +0.000 C 
BRANCH  10  11
ATOM     11  C   UNL     1       9.490  10.960  18.222  0.00  0.00    +0.000 C 
BRANCH  11  12
ATOM     12  C   UNL     1      10.284  11.430  19.471  0.00  0.00    +0.000 C 
ATOM     13  F   UNL     1      11.612  11.186  19.369  0.00  0.00    +0.000 F 
ATOM     14  F   UNL     1      10.139  12.760  19.671  0.00  0.00    +0.000 F 
ATOM     15  F   UNL     1       9.852  10.794  20.587  0.00  0.00    +0.000 F 
ENDBRANCH  11  12
BRANCH  11  16
ATOM     16  O   UNL     1       8.562  11.937  17.726  0.00  0.00    +0.000 OA
ATOM     17  H   UNL     1       9.088  12.703  17.435  0.00  0.00    +0.000 HD
ENDBRANCH  11  16
ENDBRANCH  10  11
ENDBRANCH   3   9
BRANCH   6  18
ATOM     18  O   UNL     1       5.828   3.867  18.726  0.00  0.00    +0.000 OA
BRANCH  18  19
ATOM     19  C   UNL     1       4.830   4.000  19.748  0.00  0.00    +0.000 C 
BRANCH  19  20
ATOM     20  C   UNL     1       3.462   3.467  19.409  0.00  0.00    +0.000 A 
ATOM     21  C   UNL     1       3.186   2.748  18.249  0.00  0.00    +0.000 A 
ATOM     22  C   UNL     1       1.887   2.304  18.001  0.00  0.00    +0.000 A 
ATOM     23  C   UNL     1       0.859   2.573  18.906  0.00  0.00    +0.000 A 
ATOM     24  C   UNL     1       1.130   3.262  20.081  0.00  0.00    +0.000 A 
ATOM     25  C   UNL     1       2.428   3.703  20.335  0.00  0.00    +0.000 A 
ENDBRANCH  19  20
ENDBRANCH  18  19
ENDBRANCH   6  18
TORSDOF 8
ENDMDL
MODEL 3
REMARK VINA RESULT:      -7.6      1.117      1.265
REMARK  Name = 
REMARK  9 active torsions:
REMARK  status: ('A' for Active; 'I' for Inactive)
REMARK    1  A    between atoms: C_1  and  O_2
REMARK    2  A    between atoms: O_2  and  C_3
REMARK    3  A    between atoms: C_5  and  C_6
REMARK    4  A    between atoms: C_7  and  C_8
REMARK    5  A    between atoms: C_8  and  O_9
REMARK    6  A    between atoms: C_8  and  C_10
REMARK    7  A    between atoms: C_16  and  O_17
REMARK    8  A    between atoms: O_17  and  C_18
REMARK    9  A    between atoms: C_18  and  C_19
REMARK                            x       y       z     vdW  Elec       q    Type
REMARK                         _______ _______ _______ _____ _____    ______ ____
ROOT
ATOM      1  C   UNL     1       6.607   5.716  16.478  0.00  0.00    +0.000 A 
ATOM      2  C   UNL     1       5.563   5.751  17.416  0.00  0.00    +0.000 A 
ATOM      3  C   UNL     1       4.664   4.687  17.534  0.00  0.00    +0.000 A 
ATOM      4  C   UNL     1       4.753   3.628  16.635  0.00  0.00    +0.000 A 
ATOM      5  C   UNL     1       5.748   3.609  15.666  0.00  0.00    +0.000 A 
ATOM      6  C   UNL     1       6.661   4.667  15.541  0.00  0.00    +0.000 A 
ENDROOT
BRANCH   1   8
ATOM      7  C   UNL     1       7.631   7.545  17.576  0.00  0.00    +0.000 C 
ATOM      8  O   UNL     1       7.587   6.676  16.440  0.00  0.00    +0.000 OA
ENDBRANCH   1   8
BRANCH   3   9
ATOM      9  C   UNL     1       3.682   4.686  18.625  0.00  0.00    +0.000 C 
ATOM     10  C   UNL     1       2.577   3.924  18.575  0.00  0.00    +0.000 C 
BRANCH  10  11
ATOM     11  C   UNL     1       1.514   3.775  19.630  0.00  0.00    +0.000 C 
BRANCH  11  12
ATOM     12  C   UNL     1       2.092   3.494  21.044  0.00  0.00    +0.000 C 
ATOM     13  F   UNL     1       3.200   2.717  21.012  0.00  0.00    +0.000 F 
ATOM     14  F   UNL     1       2.431   4.645  21.670  0.00  0.00    +0.000 F 
ATOM     15  F   UNL     1       1.184   2.853  21.820  0.00  0.00    +0.000 F 
ENDBRANCH  11  12
BRANCH  11  16
ATOM     16  O   UNL     1       0.555   2.801  19.194  0.00  0.00    +0.000 OA
ATOM     17  H   UNL     1       0.900   2.415  18.369  0.00  0.00    +0.000 HD
ENDBRANCH  11  16
ENDBRANCH  10  11
ENDBRANCH   3   9
BRANCH   6  18
ATOM     18  O   UNL     1       7.601   4.717  14.532  0.00  0.00    +0.000 OA
BRANCH  18  19
ATOM     19  C   UNL     1       7.033   4.988  13.243  0.00  0.00    +0.000 C 
BRANCH  19  20
ATOM     20  C   UNL     1       6.621   3.784  12.436  0.00  0.00    +0.000 A 
ATOM     21  C   UNL     1       5.294   3.419  12.226  0.00  0.00    +0.000 A 
ATOM     22  C   UNL     1       4.997   2.277  11.481  0.00  0.00    +0.000 A 
ATOM     23  C   UNL     1       6.020   1.495  10.943  0.00  0.00    +0.000 A 
ATOM     24  C   UNL     1       7.347   1.868  11.120  0.00  0.00    +0.000 A 
ATOM     25  C   UNL     1       7.647   3.010  11.858  0.00  0.00    +0.000 A 
ENDBRANCH  19  20
ENDBRANCH  18  19
ENDBRANCH   6  18
TORSDOF 8
ENDMDL
MODEL 4
REMARK VINA RESULT:      -7.6      3.726      7.812
REMARK  Name = 
REMARK  9 active torsions:
REMARK  status: ('A' for Active; 'I' for Inactive)
REMARK    1  A    between atoms: C_1  and  O_2
REMARK    2  A    between atoms: O_2  and  C_3
REMARK    3  A    between atoms: C_5  and  C_6
REMARK    4  A    between atoms: C_7  and  C_8
REMARK    5  A    between atoms: C_8  and  O_9
REMARK    6  A    between atoms: C_8  and  C_10
REMARK    7  A    between atoms: C_16  and  O_17
REMARK    8  A    between atoms: O_17  and  C_18
REMARK    9  A    between atoms: C_18  and  C_19
REMARK                            x       y       z     vdW  Elec       q    Type
REMARK                         _______ _______ _______ _____ _____    ______ ____
ROOT
ATOM      1  C   UNL     1       4.956   4.400  18.021  0.00  0.00    +0.000 A 
ATOM      2  C   UNL     1       5.317   3.986  16.729  0.00  0.00    +0.000 A 
ATOM      3  C   UNL     1       5.433   4.906  15.683  0.00  0.00    +0.000 A 
ATOM      4  C   UNL     1       5.085   6.234  15.913  0.00  0.00    +0.000 A 
ATOM      5  C   UNL     1       4.672   6.645  17.174  0.00  0.00    +0.000 A 
ATOM      6  C   UNL     1       4.557   5.733  18.235  0.00  0.00    +0.000 A 
ENDROOT
BRANCH   1   8
ATOM      7  C   UNL     1       4.373   2.267  18.865  0.00  0.00    +0.000 C 
ATOM      8  O   UNL     1       4.976   3.545  19.094  0.00  0.00    +0.000 OA
ENDBRANCH   1   8
BRANCH   3   9
ATOM      9  C   UNL     1       5.961   4.466  14.386  0.00  0.00    +0.000 C 
ATOM     10  C   UNL     1       5.179   3.861  13.478  0.00  0.00    +0.000 C 
BRANCH  10  11
ATOM     11  C   UNL     1       5.558   3.405  12.095  0.00  0.00    +0.000 C 
BRANCH  11  12
ATOM     12  C   UNL     1       4.329   3.093  11.196  0.00  0.00    +0.000 C 
ATOM     13  F   UNL     1       3.189   2.931  11.908  0.00  0.00    +0.000 F 
ATOM     14  F   UNL     1       4.107   4.091  10.310  0.00  0.00    +0.000 F 
ATOM     15  F   UNL     1       4.521   1.950  10.494  0.00  0.00    +0.000 F 
ENDBRANCH  11  12
BRANCH  11  16
ATOM     16  O   UNL     1       6.489   2.318  12.198  0.00  0.00    +0.000 OA
ATOM     17  H   UNL     1       5.967   1.516  12.380  0.00  0.00    +0.000 HD
ENDBRANCH  11  16
ENDBRANCH  10  11
ENDBRANCH   3   9
BRANCH   6  18
ATOM     18  O   UNL     1       4.064   6.096  19.471  0.00  0.00    +0.000 OA
BRANCH  18  19
ATOM     19  C   UNL     1       2.631   6.138  19.519  0.00  0.00    +0.000 C 
BRANCH  19  20
ATOM     20  C   UNL     1       1.939   4.820  19.747  0.00  0.00    +0.000 A 
ATOM     21  C   UNL     1       1.284   4.113  18.742  0.00  0.00    +0.000 A 
ATOM     22  C   UNL     1       0.651   2.906  19.040  0.00  0.00    +0.000 A 
ATOM     23  C   UNL     1       0.669   2.398  20.341  0.00  0.00    +0.000 A 
ATOM     24  C   UNL     1       1.347   3.079  21.344  0.00  0.00    +0.000 A 
ATOM     25  C   UNL     1       1.984   4.282  21.048  0.00  0.00    +0.000 A 
ENDBRANCH  19  20
ENDBRANCH  18  19
ENDBRANCH   6  18
TORSDOF 8
ENDMDL
MODEL 5
REMARK VINA RESULT:      -7.5      4.952      8.024
REMARK  Name = 
REMARK  9 active torsions:
REMARK  status: ('A' for Active; 'I' for Inactive)
REMARK    1  A    between atoms: C_1  and  O_2
REMARK    2  A    between atoms: O_2  and  C_3
REMARK    3  A    between atoms: C_5  and  C_6
REMARK    4  A    between atoms: C_7  and  C_8
REMARK    5  A    between atoms: C_8  and  O_9
REMARK    6  A    between atoms: C_8  and  C_10
REMARK    7  A    between atoms: C_16  and  O_17
REMARK    8  A    between atoms: O_17  and  C_18
REMARK    9  A    between atoms: C_18  and  C_19
REMARK                            x       y       z     vdW  Elec       q    Type
REMARK                         _______ _______ _______ _____ _____    ______ ____
ROOT
ATOM      1  C   UNL     1       5.844   6.175  17.076  0.00  0.00    +0.000 A 
ATOM      2  C   UNL     1       6.455   7.439  17.108  0.00  0.00    +0.000 A 
ATOM      3  C   UNL     1       7.538   7.693  17.956  0.00  0.00    +0.000 A 
ATOM      4  C   UNL     1       7.942   6.704  18.847  0.00  0.00    +0.000 A 
ATOM      5  C   UNL     1       7.307   5.468  18.862  0.00  0.00    +0.000 A 
ATOM      6  C   UNL     1       6.224   5.197  18.013  0.00  0.00    +0.000 A 
ENDROOT
BRANCH   1   8
ATOM      7  C   UNL     1       5.353   5.179  14.986  0.00  0.00    +0.000 C 
ATOM      8  O   UNL     1       4.878   5.856  16.154  0.00  0.00    +0.000 OA
ENDBRANCH   1   8
BRANCH   3   9
ATOM      9  C   UNL     1       8.251   8.972  17.855  0.00  0.00    +0.000 C 
ATOM     10  C   UNL     1       8.945   9.473  18.890  0.00  0.00    +0.000 C 
BRANCH  10  11
ATOM     11  C   UNL     1       9.766  10.734  18.923  0.00  0.00    +0.000 C 
BRANCH  11  12
ATOM     12  C   UNL     1       9.764  11.427  20.314  0.00  0.00    +0.000 C 
ATOM     13  F   UNL     1       8.982  12.532  20.346  0.00  0.00    +0.000 F 
ATOM     14  F   UNL     1       9.310  10.590  21.276  0.00  0.00    +0.000 F 
ATOM     15  F   UNL     1      11.013  11.818  20.662  0.00  0.00    +0.000 F 
ENDBRANCH  11  12
BRANCH  11  16
ATOM     16  O   UNL     1       9.352  11.591  17.849  0.00  0.00    +0.000 OA
ATOM     17  H   UNL     1      10.094  11.633  17.220  0.00  0.00    +0.000 HD
ENDBRANCH  11  16
ENDBRANCH  10  11
ENDBRANCH   3   9
BRANCH   6  18
ATOM     18  O   UNL     1       5.519   4.012  18.070  0.00  0.00    +0.000 OA
BRANCH  18  19
ATOM     19  C   UNL     1       4.976   3.739  19.370  0.00  0.00    +0.000 C 
BRANCH  19  20
ATOM     20  C   UNL     1       3.495   3.470  19.423  0.00  0.00    +0.000 A 
ATOM     21  C   UNL     1       2.858   2.519  18.629  0.00  0.00    +0.000 A 
ATOM     22  C   UNL     1       1.478   2.344  18.727  0.00  0.00    +0.000 A 
ATOM     23  C   UNL     1       0.725   3.115  19.615  0.00  0.00    +0.000 A 
ATOM     24  C   UNL     1       1.354   4.045  20.433  0.00  0.00    +0.000 A 
ATOM     25  C   UNL     1       2.734   4.218  20.343  0.00  0.00    +0.000 A 
ENDBRANCH  19  20
ENDBRANCH  18  19
ENDBRANCH   6  18
TORSDOF 8
ENDMDL
MODEL 6
REMARK VINA RESULT:      -7.5      5.774      8.085
REMARK  Name = 
REMARK  9 active torsions:
REMARK  status: ('A' for Active; 'I' for Inactive)
REMARK    1  A    between atoms: C_1  and  O_2
REMARK    2  A    between atoms: O_2  and  C_3
REMARK    3  A    between atoms: C_5  and  C_6
REMARK    4  A    between atoms: C_7  and  C_8
REMARK    5  A    between atoms: C_8  and  O_9
REMARK    6  A    between atoms: C_8  and  C_10
REMARK    7  A    between atoms: C_16  and  O_17
REMARK    8  A    between atoms: O_17  and  C_18
REMARK    9  A    between atoms: C_18  and  C_19
REMARK                            x       y       z     vdW  Elec       q    Type
REMARK                         _______ _______ _______ _____ _____    ______ ____
ROOT
ATOM      1  C   UNL     1       6.988   6.445  16.990  0.00  0.00    +0.000 A 
ATOM      2  C   UNL     1       7.357   7.797  17.082  0.00  0.00    +0.000 A 
ATOM      3  C   UNL     1       8.137   8.260  18.146  0.00  0.00    +0.000 A 
ATOM      4  C   UNL     1       8.463   7.381  19.174  0.00  0.00    +0.000 A 
ATOM      5  C   UNL     1       8.056   6.054  19.121  0.00  0.00    +0.000 A 
ATOM      6  C   UNL     1       7.278   5.574  18.057  0.00  0.00    +0.000 A 
ENDROOT
BRANCH   1   8
ATOM      7  C   UNL     1       5.023   6.433  15.670  0.00  0.00    +0.000 C 
ATOM      8  O   UNL     1       6.348   5.937  15.887  0.00  0.00    +0.000 OA
ENDBRANCH   1   8
BRANCH   3   9
ATOM      9  C   UNL     1       8.634   9.641  18.132  0.00  0.00    +0.000 C 
ATOM     10  C   UNL     1       9.182  10.202  19.222  0.00  0.00    +0.000 C 
BRANCH  10  11
ATOM     11  C   UNL     1       9.781  11.577  19.348  0.00  0.00    +0.000 C 
BRANCH  11  12
ATOM     12  C   UNL     1      10.205  12.185  17.983  0.00  0.00    +0.000 C 
ATOM     13  F   UNL     1      10.950  13.308  18.119  0.00  0.00    +0.000 F 
ATOM     14  F   UNL     1      10.940  11.305  17.263  0.00  0.00    +0.000 F 
ATOM     15  F   UNL     1       9.120  12.520  17.243  0.00  0.00    +0.000 F 
ENDBRANCH  11  12
BRANCH  11  16
ATOM     16  O   UNL     1      10.837  11.541  20.319  0.00  0.00    +0.000 OA
ATOM     17  H   UNL     1      11.259  12.418  20.308  0.00  0.00    +0.000 HD
ENDBRANCH  11  16
ENDBRANCH  10  11
ENDBRANCH   3   9
BRANCH   6  18
ATOM     18  O   UNL     1       6.784   4.286  18.023  0.00  0.00    +0.000 OA
BRANCH  18  19
ATOM     19  C   UNL     1       5.759   4.047  18.998  0.00  0.00    +0.000 C 
BRANCH  19  20
ATOM     20  C   UNL     1       4.341   4.113  18.493  0.00  0.00    +0.000 A 
ATOM     21  C   UNL     1       3.759   3.121  17.708  0.00  0.00    +0.000 A 
ATOM     22  C   UNL     1       2.444   3.266  17.266  0.00  0.00    +0.000 A 
ATOM     23  C   UNL     1       1.703   4.401  17.603  0.00  0.00    +0.000 A 
ATOM     24  C   UNL     1       2.263   5.382  18.411  0.00  0.00    +0.000 A 
ATOM     25  C   UNL     1       3.575   5.237  18.860  0.00  0.00    +0.000 A 
ENDBRANCH  19  20
ENDBRANCH  18  19
ENDBRANCH   6  18
TORSDOF 8
ENDMDL
MODEL 7
REMARK VINA RESULT:      -7.5      4.201      6.345
REMARK  Name = 
REMARK  9 active torsions:
REMARK  status: ('A' for Active; 'I' for Inactive)
REMARK    1  A    between atoms: C_1  and  O_2
REMARK    2  A    between atoms: O_2  and  C_3
REMARK    3  A    between atoms: C_5  and  C_6
REMARK    4  A    between atoms: C_7  and  C_8
REMARK    5  A    between atoms: C_8  and  O_9
REMARK    6  A    between atoms: C_8  and  C_10
REMARK    7  A    between atoms: C_16  and  O_17
REMARK    8  A    between atoms: O_17  and  C_18
REMARK    9  A    between atoms: C_18  and  C_19
REMARK                            x       y       z     vdW  Elec       q    Type
REMARK                         _______ _______ _______ _____ _____    ______ ____
ROOT
ATOM      1  C   UNL     1       1.703   4.933  19.926  0.00  0.00    +0.000 A 
ATOM      2  C   UNL     1       1.513   5.994  20.825  0.00  0.00    +0.000 A 
ATOM      3  C   UNL     1       1.752   7.316  20.441  0.00  0.00    +0.000 A 
ATOM      4  C   UNL     1       2.281   7.564  19.178  0.00  0.00    +0.000 A 
ATOM      5  C   UNL     1       2.525   6.517  18.298  0.00  0.00    +0.000 A 
ATOM      6  C   UNL     1       2.284   5.186  18.669  0.00  0.00    +0.000 A 
ENDROOT
BRANCH   1   8
ATOM      7  C   UNL     1       1.826   3.154  21.482  0.00  0.00    +0.000 C 
ATOM      8  O   UNL     1       1.339   3.644  20.229  0.00  0.00    +0.000 OA
ENDBRANCH   1   8
BRANCH   3   9
ATOM      9  C   UNL     1       1.398   8.411  21.352  0.00  0.00    +0.000 C 
ATOM     10  C   UNL     1       0.119   8.704  21.634  0.00  0.00    +0.000 C 
BRANCH  10  11
ATOM     11  C   UNL     1      -0.398   9.752  22.582  0.00  0.00    +0.000 C 
BRANCH  11  12
ATOM     12  C   UNL     1      -0.477  11.167  21.945  0.00  0.00    +0.000 C 
ATOM     13  F   UNL     1      -1.360  11.230  20.920  0.00  0.00    +0.000 F 
ATOM     14  F   UNL     1      -0.857  12.092  22.856  0.00  0.00    +0.000 F 
ATOM     15  F   UNL     1       0.727  11.543  21.451  0.00  0.00    +0.000 F 
ENDBRANCH  11  12
BRANCH  11  16
ATOM     16  O   UNL     1       0.368   9.706  23.795  0.00  0.00    +0.000 OA
ATOM     17  H   UNL     1       1.259   9.396  23.553  0.00  0.00    +0.000 HD
ENDBRANCH  11  16
ENDBRANCH  10  11
ENDBRANCH   3   9
BRANCH   6  18
ATOM     18  O   UNL     1       2.602   4.121  17.850  0.00  0.00    +0.000 OA
BRANCH  18  19
ATOM     19  C   UNL     1       3.898   3.568  18.119  0.00  0.00    +0.000 C 
BRANCH  19  20
ATOM     20  C   UNL     1       5.017   4.046  17.231  0.00  0.00    +0.000 A 
ATOM     21  C   UNL     1       4.913   4.130  15.844  0.00  0.00    +0.000 A 
ATOM     22  C   UNL     1       6.003   4.567  15.091  0.00  0.00    +0.000 A 
ATOM     23  C   UNL     1       7.200   4.922  15.716  0.00  0.00    +0.000 A 
ATOM     24  C   UNL     1       7.304   4.873  17.100  0.00  0.00    +0.000 A 
ATOM     25  C   UNL     1       6.215   4.442  17.856  0.00  0.00    +0.000 A 
ENDBRANCH  19  20
ENDBRANCH  18  19
ENDBRANCH   6  18
TORSDOF 8
ENDMDL
MODEL 8
REMARK VINA RESULT:      -7.4      5.767      8.096
REMARK  Name = 
REMARK  9 active torsions:
REMARK  status: ('A' for Active; 'I' for Inactive)
REMARK    1  A    between atoms: C_1  and  O_2
REMARK    2  A    between atoms: O_2  and  C_3
REMARK    3  A    between atoms: C_5  and  C_6
REMARK    4  A    between atoms: C_7  and  C_8
REMARK    5  A    between atoms: C_8  and  O_9
REMARK    6  A    between atoms: C_8  and  C_10
REMARK    7  A    between atoms: C_16  and  O_17
REMARK    8  A    between atoms: O_17  and  C_18
REMARK    9  A    between atoms: C_18  and  C_19
REMARK                            x       y       z     vdW  Elec       q    Type
REMARK                         _______ _______ _______ _____ _____    ______ ____
ROOT
ATOM      1  C   UNL     1       5.570   6.281  17.495  0.00  0.00    +0.000 A 
ATOM      2  C   UNL     1       6.231   7.517  17.419  0.00  0.00    +0.000 A 
ATOM      3  C   UNL     1       7.539   7.665  17.889  0.00  0.00    +0.000 A 
ATOM      4  C   UNL     1       8.149   6.592  18.530  0.00  0.00    +0.000 A 
ATOM      5  C   UNL     1       7.484   5.379  18.660  0.00  0.00    +0.000 A 
ATOM      6  C   UNL     1       6.173   5.215  18.188  0.00  0.00    +0.000 A 
ENDROOT
BRANCH   1   8
ATOM      7  C   UNL     1       3.235   6.651  17.605  0.00  0.00    +0.000 C 
ATOM      8  O   UNL     1       4.345   6.071  16.912  0.00  0.00    +0.000 OA
ENDBRANCH   1   8
BRANCH   3   9
ATOM      9  C   UNL     1       8.254   8.926  17.656  0.00  0.00    +0.000 C 
ATOM     10  C   UNL     1       8.769   9.640  18.670  0.00  0.00    +0.000 C 
BRANCH  10  11
ATOM     11  C   UNL     1       9.568  10.912  18.587  0.00  0.00    +0.000 C 
BRANCH  11  12
ATOM     12  C   UNL     1      10.032  11.433  19.975  0.00  0.00    +0.000 C 
ATOM     13  F   UNL     1       9.604  10.654  20.996  0.00  0.00    +0.000 F 
ATOM     14  F   UNL     1      11.382  11.482  20.052  0.00  0.00    +0.000 F 
ATOM     15  F   UNL     1       9.560  12.681  20.207  0.00  0.00    +0.000 F 
ENDBRANCH  11  12
BRANCH  11  16
ATOM     16  O   UNL     1       8.832  11.879  17.824  0.00  0.00    +0.000 OA
ATOM     17  H   UNL     1       9.485  12.490  17.437  0.00  0.00    +0.000 HD
ENDBRANCH  11  16
ENDBRANCH  10  11
ENDBRANCH   3   9
BRANCH   6  18
ATOM     18  O   UNL     1       5.457   4.051  18.384  0.00  0.00    +0.000 OA
BRANCH  18  19
ATOM     19  C   UNL     1       4.782   4.009  19.649  0.00  0.00    +0.000 C 
BRANCH  19  20
ATOM     20  C   UNL     1       3.321   3.646  19.605  0.00  0.00    +0.000 A 
ATOM     21  C   UNL     1       2.387   4.110  20.529  0.00  0.00    +0.000 A 
ATOM     22  C   UNL     1       1.054   3.711  20.429  0.00  0.00    +0.000 A 
ATOM     23  C   UNL     1       0.645   2.850  19.409  0.00  0.00    +0.000 A 
ATOM     24  C   UNL     1       1.562   2.407  18.464  0.00  0.00    +0.000 A 
ATOM     25  C   UNL     1       2.893   2.807  18.558  0.00  0.00    +0.000 A 
ENDBRANCH  19  20
ENDBRANCH  18  19
ENDBRANCH   6  18
TORSDOF 8
ENDMDL
MODEL 9
REMARK VINA RESULT:      -7.4      5.351      7.994
REMARK  Name = 
REMARK  9 active torsions:
REMARK  status: ('A' for Active; 'I' for Inactive)
REMARK    1  A    between atoms: C_1  and  O_2
REMARK    2  A    between atoms: O_2  and  C_3
REMARK    3  A    between atoms: C_5  and  C_6
REMARK    4  A    between atoms: C_7  and  C_8
REMARK    5  A    between atoms: C_8  and  O_9
REMARK    6  A    between atoms: C_8  and  C_10
REMARK    7  A    between atoms: C_16  and  O_17
REMARK    8  A    between atoms: O_17  and  C_18
REMARK    9  A    between atoms: C_18  and  C_19
REMARK                            x       y       z     vdW  Elec       q    Type
REMARK                         _______ _______ _______ _____ _____    ______ ____
ROOT
ATOM      1  C   UNL     1       6.604   6.094  17.120  0.00  0.00    +0.000 A 
ATOM      2  C   UNL     1       6.995   7.438  17.015  0.00  0.00    +0.000 A 
ATOM      3  C   UNL     1       7.906   7.996  17.917  0.00  0.00    +0.000 A 
ATOM      4  C   UNL     1       8.348   7.227  18.989  0.00  0.00    +0.000 A 
ATOM      5  C   UNL     1       7.925   5.912  19.134  0.00  0.00    +0.000 A 
ATOM      6  C   UNL     1       7.015   5.338  18.233  0.00  0.00    +0.000 A 
ENDROOT
BRANCH   1   8
ATOM      7  C   UNL     1       6.523   5.072  14.987  0.00  0.00    +0.000 C 
ATOM      8  O   UNL     1       5.826   5.483  16.167  0.00  0.00    +0.000 OA
ENDBRANCH   1   8
BRANCH   3   9
ATOM      9  C   UNL     1       8.412   9.355  17.689  0.00  0.00    +0.000 C 
ATOM     10  C   UNL     1       9.050  10.038  18.652  0.00  0.00    +0.000 C 
BRANCH  10  11
ATOM     11  C   UNL     1       9.668  11.407  18.555  0.00  0.00    +0.000 C 
BRANCH  11  12
ATOM     12  C   UNL     1      10.650  11.717  19.718  0.00  0.00    +0.000 C 
ATOM     13  F   UNL     1      10.813  13.046  19.925  0.00  0.00    +0.000 F 
ATOM     14  F   UNL     1      10.213  11.183  20.882  0.00  0.00    +0.000 F 
ATOM     15  F   UNL     1      11.879  11.206  19.463  0.00  0.00    +0.000 F 
ENDBRANCH  11  12
BRANCH  11  16
ATOM     16  O   UNL     1       8.627  12.382  18.402  0.00  0.00    +0.000 OA
ATOM     17  H   UNL     1       8.276  12.280  17.499  0.00  0.00    +0.000 HD
ENDBRANCH  11  16
ENDBRANCH  10  11
ENDBRANCH   3   9
BRANCH   6  18
ATOM     18  O   UNL     1       6.508   4.065  18.404  0.00  0.00    +0.000 OA
BRANCH  18  19
ATOM     19  C   UNL     1       5.415   4.012  19.332  0.00  0.00    +0.000 C 
BRANCH  19  20
ATOM     20  C   UNL     1       4.035   4.026  18.728  0.00  0.00    +0.000 A 
ATOM     21  C   UNL     1       3.462   2.922  18.102  0.00  0.00    +0.000 A 
ATOM     22  C   UNL     1       2.184   3.022  17.551  0.00  0.00    +0.000 A 
ATOM     23  C   UNL     1       1.472   4.221  17.622  0.00  0.00    +0.000 A 
ATOM     24  C   UNL     1       2.022   5.318  18.273  0.00  0.00    +0.000 A 
ATOM     25  C   UNL     1       3.296   5.220  18.829  0.00  0.00    +0.000 A 
ENDBRANCH  19  20
ENDBRANCH  18  19
ENDBRANCH   6  18
TORSDOF 8
ENDMDL
