MODEL 1
REMARK VINA RESULT:      -8.1      0.000      0.000
REMARK  Name = 
REMARK  7 active torsions:
REMARK  status: ('A' for Active; 'I' for Inactive)
REMARK    1  A    between atoms: C_1  and  O_2
REMARK    2  A    between atoms: O_2  and  C_3
REMARK    3  A    between atoms: C_7  and  C_8
REMARK    4  A    between atoms: C_8  and  N_9
REMARK    5  A    between atoms: C_21  and  N_22
REMARK    6  A    between atoms: N_22  and  C_23
REMARK    7  A    between atoms: C_23  and  C_24
REMARK                            x       y       z     vdW  Elec       q    Type
REMARK                         _______ _______ _______ _____ _____    ______ ____
ROOT
ATOM      1  N   UNL     1       2.004   7.277  19.626  0.00  0.00    +0.000 N 
ATOM      2  C   UNL     1       2.462   7.686  18.386  0.00  0.00    +0.000 A 
ATOM      3  N   UNL     1       2.302   8.858  17.862  0.00  0.00    +0.000 NA
ATOM      4  C   UNL     1       1.607   9.725  18.644  0.00  0.00    +0.000 A 
ATOM      5  S   UNL     1       1.297  11.332  18.152  0.00  0.00    +0.000 S 
ATOM      6  C   UNL     1       0.420  11.661  19.575  0.00  0.00    +0.000 A 
ATOM      7  C   UNL     1       0.389  10.583  20.442  0.00  0.00    +0.000 A 
ATOM      8  C   UNL     1       1.075   9.457  19.887  0.00  0.00    +0.000 A 
ATOM      9  C   UNL     1       1.267   8.131  20.444  0.00  0.00    +0.000 A 
ATOM     10  O   UNL     1       0.827   7.811  21.546  0.00  0.00    +0.000 OA
ATOM     11  C   UNL     1      -0.344  10.630  21.750  0.00  0.00    +0.000 C 
ATOM     12  C   UNL     1      -0.762  12.062  22.120  0.00  0.00    +0.000 C 
ATOM     13  C   UNL     1      -1.352  12.838  20.917  0.00  0.00    +0.000 C 
ATOM     14  C   UNL     1      -0.240  12.990  19.833  0.00  0.00    +0.000 C 
ENDROOT
BRANCH  13  15
ATOM     15  N   UNL     1      -2.539  12.202  20.310  0.00  0.00    +0.000 NA
ATOM     16  H   UNL     1      -3.379  12.626  20.700  0.00  0.00    +0.000 HD
BRANCH  15  17
ATOM     17  C   UNL     1      -2.580  12.233  18.848  0.00  0.00    +0.000 C 
BRANCH  17  18
ATOM     18  C   UNL     1      -3.486  11.108  18.292  0.00  0.00    +0.000 C 
ATOM     19  C   UNL     1      -4.223  11.474  16.983  0.00  0.00    +0.000 C 
ATOM     20  C   UNL     1      -3.363  11.380  15.721  0.00  0.00    +0.000 C 
ATOM     21  C   UNL     1      -2.645  10.040  15.621  0.00  0.00    +0.000 C 
ATOM     22  C   UNL     1      -1.812   9.780  16.869  0.00  0.00    +0.000 C 
ATOM     23  C   UNL     1      -2.689   9.799  18.119  0.00  0.00    +0.000 C 
ENDBRANCH  17  18
ENDBRANCH  15  17
ENDBRANCH  13  15
BRANCH   1  24
ATOM     24  C   UNL     1       2.319   5.949  20.123  0.00  0.00    +0.000 C 
BRANCH  24  29
ATOM     25  C   UNL     1       5.353   4.413  18.386  0.00  0.00    +0.000 A 
ATOM     26  C   UNL     1       4.739   3.726  17.338  0.00  0.00    +0.000 A 
ATOM     27  C   UNL     1       3.353   3.741  17.196  0.00  0.00    +0.000 A 
ATOM     28  C   UNL     1       2.568   4.455  18.099  0.00  0.00    +0.000 A 
ATOM     29  C   UNL     1       3.166   5.152  19.159  0.00  0.00    +0.000 A 
ATOM     30  C   UNL     1       4.564   5.117  19.297  0.00  0.00    +0.000 A 
BRANCH  25  32
ATOM     31  C   UNL     1       7.405   4.653  17.207  0.00  0.00    +0.000 C 
ATOM     32  O   UNL     1       6.719   4.328  18.409  0.00  0.00    +0.000 OA
ENDBRANCH  25  32
ENDBRANCH  24  29
ENDBRANCH   1  24
TORSDOF 6
ENDMDL
MODEL 2
REMARK VINA RESULT:      -8.0      2.936      4.746
REMARK  Name = 
REMARK  7 active torsions:
REMARK  status: ('A' for Active; 'I' for Inactive)
REMARK    1  A    between atoms: C_1  and  O_2
REMARK    2  A    between atoms: O_2  and  C_3
REMARK    3  A    between atoms: C_7  and  C_8
REMARK    4  A    between atoms: C_8  and  N_9
REMARK    5  A    between atoms: C_21  and  N_22
REMARK    6  A    between atoms: N_22  and  C_23
REMARK    7  A    between atoms: C_23  and  C_24
REMARK                            x       y       z     vdW  Elec       q    Type
REMARK                         _______ _______ _______ _____ _____    ______ ____
ROOT
ATOM      1  N   UNL     1       2.521   6.863  18.688  0.00  0.00    +0.000 N 
ATOM      2  C   UNL     1       2.272   6.243  19.899  0.00  0.00    +0.000 A 
ATOM      3  N   UNL     1       1.692   6.778  20.924  0.00  0.00    +0.000 NA
ATOM      4  C   UNL     1       1.319   8.071  20.739  0.00  0.00    +0.000 A 
ATOM      5  S   UNL     1       0.521   8.962  21.959  0.00  0.00    +0.000 S 
ATOM      6  C   UNL     1       0.472  10.361  20.989  0.00  0.00    +0.000 A 
ATOM      7  C   UNL     1       1.017  10.156  19.733  0.00  0.00    +0.000 A 
ATOM      8  C   UNL     1       1.516   8.823  19.600  0.00  0.00    +0.000 A 
ATOM      9  C   UNL     1       2.175   8.195  18.470  0.00  0.00    +0.000 A 
ATOM     10  O   UNL     1       2.387   8.794  17.418  0.00  0.00    +0.000 OA
ATOM     11  C   UNL     1       1.105  11.252  18.712  0.00  0.00    +0.000 C 
ATOM     12  C   UNL     1       0.265  12.475  19.112  0.00  0.00    +0.000 C 
ATOM     13  C   UNL     1       0.431  12.847  20.605  0.00  0.00    +0.000 C 
ATOM     14  C   UNL     1      -0.106  11.665  21.472  0.00  0.00    +0.000 C 
ENDROOT
BRANCH  13  15
ATOM     15  N   UNL     1       1.820  13.149  21.003  0.00  0.00    +0.000 NA
ATOM     16  H   UNL     1       2.457  12.771  20.303  0.00  0.00    +0.000 HD
BRANCH  15  17
ATOM     17  C   UNL     1       2.104  14.564  21.242  0.00  0.00    +0.000 C 
BRANCH  17  18
ATOM     18  C   UNL     1       3.406  15.000  20.528  0.00  0.00    +0.000 C 
ATOM     19  C   UNL     1       3.647  14.309  19.166  0.00  0.00    +0.000 C 
ATOM     20  C   UNL     1       2.838  14.893  18.006  0.00  0.00    +0.000 C 
ATOM     21  C   UNL     1       2.984  16.406  17.916  0.00  0.00    +0.000 C 
ATOM     22  C   UNL     1       2.598  17.063  19.234  0.00  0.00    +0.000 C 
ATOM     23  C   UNL     1       3.460  16.533  20.377  0.00  0.00    +0.000 C 
ENDBRANCH  17  18
ENDBRANCH  15  17
ENDBRANCH  13  15
BRANCH   1  24
ATOM     24  C   UNL     1       3.117   6.119  17.592  0.00  0.00    +0.000 C 
BRANCH  24  29
ATOM     25  C   UNL     1       6.851   6.887  17.379  0.00  0.00    +0.000 A 
ATOM     26  C   UNL     1       7.394   5.717  17.913  0.00  0.00    +0.000 A 
ATOM     27  C   UNL     1       6.565   4.689  18.355  0.00  0.00    +0.000 A 
ATOM     28  C   UNL     1       5.181   4.819  18.257  0.00  0.00    +0.000 A 
ATOM     29  C   UNL     1       4.616   5.987  17.725  0.00  0.00    +0.000 A 
ATOM     30  C   UNL     1       5.465   7.021  17.294  0.00  0.00    +0.000 A 
BRANCH  25  32
ATOM     31  C   UNL     1       8.119   8.830  17.907  0.00  0.00    +0.000 C 
ATOM     32  O   UNL     1       7.772   7.816  16.973  0.00  0.00    +0.000 OA
ENDBRANCH  25  32
ENDBRANCH  24  29
ENDBRANCH   1  24
TORSDOF 6
ENDMDL
MODEL 3
REMARK VINA RESULT:      -7.9      2.663      4.526
REMARK  Name = 
REMARK  7 active torsions:
REMARK  status: ('A' for Active; 'I' for Inactive)
REMARK    1  A    between atoms: C_1  and  O_2
REMARK    2  A    between atoms: O_2  and  C_3
REMARK    3  A    between atoms: C_7  and  C_8
REMARK    4  A    between atoms: C_8  and  N_9
REMARK    5  A    between atoms: C_21  and  N_22
REMARK    6  A    between atoms: N_22  and  C_23
REMARK    7  A    between atoms: C_23  and  C_24
REMARK                            x       y       z     vdW  Elec       q    Type
REMARK                         _______ _______ _______ _____ _____    ______ ____
ROOT
ATOM      1  N   UNL     1       2.342   7.916  18.818  0.00  0.00    +0.000 N 
ATOM      2  C   UNL     1       2.162   7.261  20.023  0.00  0.00    +0.000 A 
ATOM      3  N   UNL     1       1.433   7.669  21.011  0.00  0.00    +0.000 NA
ATOM      4  C   UNL     1       0.815   8.859  20.791  0.00  0.00    +0.000 A 
ATOM      5  S   UNL     1      -0.209   9.572  21.957  0.00  0.00    +0.000 S 
ATOM      6  C   UNL     1      -0.491  10.930  20.967  0.00  0.00    +0.000 A 
ATOM      7  C   UNL     1       0.149  10.837  19.743  0.00  0.00    +0.000 A 
ATOM      8  C   UNL     1       0.914   9.632  19.653  0.00  0.00    +0.000 A 
ATOM      9  C   UNL     1       1.745   9.149  18.566  0.00  0.00    +0.000 A 
ATOM     10  O   UNL     1       1.885   9.776  17.518  0.00  0.00    +0.000 OA
ATOM     11  C   UNL     1       0.065  11.925  18.713  0.00  0.00    +0.000 C 
ATOM     12  C   UNL     1      -1.025  12.953  19.054  0.00  0.00    +0.000 C 
ATOM     13  C   UNL     1      -1.016  13.354  20.550  0.00  0.00    +0.000 C 
ATOM     14  C   UNL     1      -1.346  12.089  21.403  0.00  0.00    +0.000 C 
ENDROOT
BRANCH  13  15
ATOM     15  N   UNL     1       0.260  13.933  21.013  0.00  0.00    +0.000 NA
ATOM     16  H   UNL     1       0.989  13.223  20.955  0.00  0.00    +0.000 HD
BRANCH  15  17
ATOM     17  C   UNL     1       0.677  15.152  20.319  0.00  0.00    +0.000 C 
BRANCH  17  18
ATOM     18  C   UNL     1       2.219  15.291  20.313  0.00  0.00    +0.000 C 
ATOM     19  C   UNL     1       2.964  14.084  19.699  0.00  0.00    +0.000 C 
ATOM     20  C   UNL     1       2.981  14.058  18.170  0.00  0.00    +0.000 C 
ATOM     21  C   UNL     1       3.451  15.382  17.583  0.00  0.00    +0.000 C 
ATOM     22  C   UNL     1       2.598  16.533  18.099  0.00  0.00    +0.000 C 
ATOM     23  C   UNL     1       2.647  16.602  19.624  0.00  0.00    +0.000 C 
ENDBRANCH  17  18
ENDBRANCH  15  17
ENDBRANCH  13  15
BRANCH   1  24
ATOM     24  C   UNL     1       3.133   7.306  17.763  0.00  0.00    +0.000 C 
BRANCH  24  29
ATOM     25  C   UNL     1       2.699   3.522  18.032  0.00  0.00    +0.000 A 
ATOM     26  C   UNL     1       3.936   3.149  18.560  0.00  0.00    +0.000 A 
ATOM     27  C   UNL     1       4.915   4.107  18.816  0.00  0.00    +0.000 A 
ATOM     28  C   UNL     1       4.659   5.452  18.553  0.00  0.00    +0.000 A 
ATOM     29  C   UNL     1       3.423   5.846  18.023  0.00  0.00    +0.000 A 
ATOM     30  C   UNL     1       2.450   4.867  17.758  0.00  0.00    +0.000 A 
BRANCH  25  32
ATOM     31  C   UNL     1       0.771   2.349  18.783  0.00  0.00    +0.000 C 
ATOM     32  O   UNL     1       1.822   2.489  17.836  0.00  0.00    +0.000 OA
ENDBRANCH  25  32
ENDBRANCH  24  29
ENDBRANCH   1  24
TORSDOF 6
ENDMDL
MODEL 4
REMARK VINA RESULT:      -7.9      2.632      4.345
REMARK  Name = 
REMARK  7 active torsions:
REMARK  status: ('A' for Active; 'I' for Inactive)
REMARK    1  A    between atoms: C_1  and  O_2
REMARK    2  A    between atoms: O_2  and  C_3
REMARK    3  A    between atoms: C_7  and  C_8
REMARK    4  A    between atoms: C_8  and  N_9
REMARK    5  A    between atoms: C_21  and  N_22
REMARK    6  A    between atoms: N_22  and  C_23
REMARK    7  A    between atoms: C_23  and  C_24
REMARK                            x       y       z     vdW  Elec       q    Type
REMARK                         _______ _______ _______ _____ _____    ______ ____
ROOT
ATOM      1  N   UNL     1       2.222   7.870  19.017  0.00  0.00    +0.000 N 
ATOM      2  C   UNL     1       2.030   7.319  20.272  0.00  0.00    +0.000 A 
ATOM      3  N   UNL     1       1.313   7.822  21.224  0.00  0.00    +0.000 NA
ATOM      4  C   UNL     1       0.723   9.004  20.909  0.00  0.00    +0.000 A 
ATOM      5  S   UNL     1      -0.282   9.833  22.015  0.00  0.00    +0.000 S 
ATOM      6  C   UNL     1      -0.534  11.112  20.919  0.00  0.00    +0.000 A 
ATOM      7  C   UNL     1       0.100  10.906  19.706  0.00  0.00    +0.000 A 
ATOM      8  C   UNL     1       0.837   9.681  19.713  0.00  0.00    +0.000 A 
ATOM      9  C   UNL     1       1.653   9.093  18.667  0.00  0.00    +0.000 A 
ATOM     10  O   UNL     1       1.805   9.629  17.573  0.00  0.00    +0.000 OA
ATOM     11  C   UNL     1       0.038  11.909  18.592  0.00  0.00    +0.000 C 
ATOM     12  C   UNL     1      -1.026  12.987  18.850  0.00  0.00    +0.000 C 
ATOM     13  C   UNL     1      -1.005  13.506  20.308  0.00  0.00    +0.000 C 
ATOM     14  C   UNL     1      -1.362  12.323  21.261  0.00  0.00    +0.000 C 
ENDROOT
BRANCH  13  15
ATOM     15  N   UNL     1       0.287  14.091  20.722  0.00  0.00    +0.000 NA
ATOM     16  H   UNL     1       1.004  13.368  20.696  0.00  0.00    +0.000 HD
BRANCH  15  17
ATOM     17  C   UNL     1       0.712  15.262  19.955  0.00  0.00    +0.000 C 
BRANCH  17  18
ATOM     18  C   UNL     1       2.236  15.495  20.093  0.00  0.00    +0.000 C 
ATOM     19  C   UNL     1       3.104  14.281  19.689  0.00  0.00    +0.000 C 
ATOM     20  C   UNL     1       3.287  14.104  18.180  0.00  0.00    +0.000 C 
ATOM     21  C   UNL     1       3.750  15.390  17.509  0.00  0.00    +0.000 C 
ATOM     22  C   UNL     1       2.789  16.532  17.811  0.00  0.00    +0.000 C 
ATOM     23  C   UNL     1       2.669  16.755  19.316  0.00  0.00    +0.000 C 
ENDBRANCH  17  18
ENDBRANCH  15  17
ENDBRANCH  13  15
BRANCH   1  24
ATOM     24  C   UNL     1       2.996   7.159  18.015  0.00  0.00    +0.000 C 
BRANCH  24  29
ATOM     25  C   UNL     1       4.096   3.660  19.079  0.00  0.00    +0.000 A 
ATOM     26  C   UNL     1       3.041   2.889  18.587  0.00  0.00    +0.000 A 
ATOM     27  C   UNL     1       1.970   3.490  17.929  0.00  0.00    +0.000 A 
ATOM     28  C   UNL     1       1.951   4.872  17.748  0.00  0.00    +0.000 A 
ATOM     29  C   UNL     1       3.001   5.664  18.234  0.00  0.00    +0.000 A 
ATOM     30  C   UNL     1       4.068   5.045  18.908  0.00  0.00    +0.000 A 
BRANCH  25  32
ATOM     31  C   UNL     1       4.694   1.805  20.442  0.00  0.00    +0.000 C 
ATOM     32  O   UNL     1       5.089   2.949  19.697  0.00  0.00    +0.000 OA
ENDBRANCH  25  32
ENDBRANCH  24  29
ENDBRANCH   1  24
TORSDOF 6
ENDMDL
MODEL 5
REMARK VINA RESULT:      -7.8      2.920      4.818
REMARK  Name = 
REMARK  7 active torsions:
REMARK  status: ('A' for Active; 'I' for Inactive)
REMARK    1  A    between atoms: C_1  and  O_2
REMARK    2  A    between atoms: O_2  and  C_3
REMARK    3  A    between atoms: C_7  and  C_8
REMARK    4  A    between atoms: C_8  and  N_9
REMARK    5  A    between atoms: C_21  and  N_22
REMARK    6  A    between atoms: N_22  and  C_23
REMARK    7  A    between atoms: C_23  and  C_24
REMARK                            x       y       z     vdW  Elec       q    Type
REMARK                         _______ _______ _______ _____ _____    ______ ____
ROOT
ATOM      1  N   UNL     1       2.496   6.471  18.853  0.00  0.00    +0.000 N 
ATOM      2  C   UNL     1       2.145   5.939  20.081  0.00  0.00    +0.000 A 
ATOM      3  N   UNL     1       1.567   6.573  21.050  0.00  0.00    +0.000 NA
ATOM      4  C   UNL     1       1.308   7.879  20.782  0.00  0.00    +0.000 A 
ATOM      5  S   UNL     1       0.534   8.896  21.916  0.00  0.00    +0.000 S 
ATOM      6  C   UNL     1       0.640  10.239  20.875  0.00  0.00    +0.000 A 
ATOM      7  C   UNL     1       1.221   9.924  19.658  0.00  0.00    +0.000 A 
ATOM      8  C   UNL     1       1.615   8.551  19.617  0.00  0.00    +0.000 A 
ATOM      9  C   UNL     1       2.269   7.813  18.553  0.00  0.00    +0.000 A 
ATOM     10  O   UNL     1       2.574   8.335  17.483  0.00  0.00    +0.000 OA
ATOM     11  C   UNL     1       1.441  10.953  18.588  0.00  0.00    +0.000 C 
ATOM     12  C   UNL     1       0.687  12.259  18.885  0.00  0.00    +0.000 C 
ATOM     13  C   UNL     1       0.817  12.696  20.365  0.00  0.00    +0.000 C 
ATOM     14  C   UNL     1       0.149  11.609  21.264  0.00  0.00    +0.000 C 
ENDROOT
BRANCH  13  15
ATOM     15  N   UNL     1       2.209  12.908  20.812  0.00  0.00    +0.000 NA
ATOM     16  H   UNL     1       2.844  12.471  20.146  0.00  0.00    +0.000 HD
BRANCH  15  17
ATOM     17  C   UNL     1       2.583  14.305  21.033  0.00  0.00    +0.000 C 
BRANCH  17  18
ATOM     18  C   UNL     1       3.840  14.683  20.212  0.00  0.00    +0.000 C 
ATOM     19  C   UNL     1       3.806  14.206  18.742  0.00  0.00    +0.000 C 
ATOM     20  C   UNL     1       2.960  15.076  17.811  0.00  0.00    +0.000 C 
ATOM     21  C   UNL     1       3.319  16.551  17.928  0.00  0.00    +0.000 C 
ATOM     22  C   UNL     1       3.200  17.022  19.371  0.00  0.00    +0.000 C 
ATOM     23  C   UNL     1       4.105  16.200  20.285  0.00  0.00    +0.000 C 
ENDBRANCH  17  18
ENDBRANCH  15  17
ENDBRANCH  13  15
BRANCH   1  24
ATOM     24  C   UNL     1       3.076   5.624  17.826  0.00  0.00    +0.000 C 
BRANCH  24  29
ATOM     25  C   UNL     1       6.719   5.649  16.682  0.00  0.00    +0.000 A 
ATOM     26  C   UNL     1       7.383   5.559  17.906  0.00  0.00    +0.000 A 
ATOM     27  C   UNL     1       6.665   5.506  19.099  0.00  0.00    +0.000 A 
ATOM     28  C   UNL     1       5.272   5.533  19.075  0.00  0.00    +0.000 A 
ATOM     29  C   UNL     1       4.587   5.623  17.856  0.00  0.00    +0.000 A 
ATOM     30  C   UNL     1       5.325   5.688  16.661  0.00  0.00    +0.000 A 
BRANCH  25  32
ATOM     31  C   UNL     1       7.101   4.973  14.433  0.00  0.00    +0.000 C 
ATOM     32  O   UNL     1       7.537   5.684  15.585  0.00  0.00    +0.000 OA
ENDBRANCH  25  32
ENDBRANCH  24  29
ENDBRANCH   1  24
TORSDOF 6
ENDMDL
MODEL 6
REMARK VINA RESULT:      -7.7      2.689      8.504
REMARK  Name = 
REMARK  7 active torsions:
REMARK  status: ('A' for Active; 'I' for Inactive)
REMARK    1  A    between atoms: C_1  and  O_2
REMARK    2  A    between atoms: O_2  and  C_3
REMARK    3  A    between atoms: C_7  and  C_8
REMARK    4  A    between atoms: C_8  and  N_9
REMARK    5  A    between atoms: C_21  and  N_22
REMARK    6  A    between atoms: N_22  and  C_23
REMARK    7  A    between atoms: C_23  and  C_24
REMARK                            x       y       z     vdW  Elec       q    Type
REMARK                         _______ _______ _______ _____ _____    ______ ____
ROOT
ATOM      1  N   UNL     1       0.092  10.495  19.221  0.00  0.00    +0.000 N 
ATOM      2  C   UNL     1      -0.332  10.050  20.461  0.00  0.00    +0.000 A 
ATOM      3  N   UNL     1       0.114   9.012  21.091  0.00  0.00    +0.000 NA
ATOM      4  C   UNL     1       1.082   8.331  20.424  0.00  0.00    +0.000 A 
ATOM      5  S   UNL     1       1.821   6.938  21.083  0.00  0.00    +0.000 S 
ATOM      6  C   UNL     1       2.789   6.724  19.698  0.00  0.00    +0.000 A 
ATOM      7  C   UNL     1       2.592   7.715  18.753  0.00  0.00    +0.000 A 
ATOM      8  C   UNL     1       1.590   8.641  19.180  0.00  0.00    +0.000 A 
ATOM      9  C   UNL     1       1.064   9.809  18.497  0.00  0.00    +0.000 A 
ATOM     10  O   UNL     1       1.463  10.156  17.388  0.00  0.00    +0.000 OA
ATOM     11  C   UNL     1       3.319   7.723  17.440  0.00  0.00    +0.000 C 
ATOM     12  C   UNL     1       4.480   6.717  17.422  0.00  0.00    +0.000 C 
ATOM     13  C   UNL     1       4.092   5.352  18.040  0.00  0.00    +0.000 C 
ATOM     14  C   UNL     1       3.745   5.570  19.546  0.00  0.00    +0.000 C 
ENDROOT
BRANCH  13  15
ATOM     15  N   UNL     1       2.955   4.687  17.372  0.00  0.00    +0.000 NA
ATOM     16  H   UNL     1       3.266   3.792  16.996  0.00  0.00    +0.000 HD
BRANCH  15  17
ATOM     17  C   UNL     1       1.765   4.506  18.204  0.00  0.00    +0.000 C 
BRANCH  17  18
ATOM     18  C   UNL     1       1.544   3.012  18.545  0.00  0.00    +0.000 C 
ATOM     19  C   UNL     1       2.849   2.205  18.739  0.00  0.00    +0.000 C 
ATOM     20  C   UNL     1       3.518   2.397  20.101  0.00  0.00    +0.000 C 
ATOM     21  C   UNL     1       2.539   2.192  21.249  0.00  0.00    +0.000 C 
ATOM     22  C   UNL     1       1.334   3.110  21.101  0.00  0.00    +0.000 C 
ATOM     23  C   UNL     1       0.624   2.861  19.772  0.00  0.00    +0.000 C 
ENDBRANCH  17  18
ENDBRANCH  15  17
ENDBRANCH  13  15
BRANCH   1  24
ATOM     24  C   UNL     1      -0.445  11.723  18.660  0.00  0.00    +0.000 C 
BRANCH  24  29
ATOM     25  C   UNL     1      -3.576  10.990  16.601  0.00  0.00    +0.000 A 
ATOM     26  C   UNL     1      -4.576  11.412  17.479  0.00  0.00    +0.000 A 
ATOM     27  C   UNL     1      -4.249  11.916  18.736  0.00  0.00    +0.000 A 
ATOM     28  C   UNL     1      -2.913  12.012  19.122  0.00  0.00    +0.000 A 
ATOM     29  C   UNL     1      -1.895  11.594  18.255  0.00  0.00    +0.000 A 
ATOM     30  C   UNL     1      -2.240  11.076  16.995  0.00  0.00    +0.000 A 
BRANCH  25  32
ATOM     31  C   UNL     1      -3.044  10.088  14.465  0.00  0.00    +0.000 C 
ATOM     32  O   UNL     1      -4.027  10.525  15.395  0.00  0.00    +0.000 OA
ENDBRANCH  25  32
ENDBRANCH  24  29
ENDBRANCH   1  24
TORSDOF 6
ENDMDL
MODEL 7
REMARK VINA RESULT:      -7.7      2.621      4.264
REMARK  Name = 
REMARK  7 active torsions:
REMARK  status: ('A' for Active; 'I' for Inactive)
REMARK    1  A    between atoms: C_1  and  O_2
REMARK    2  A    between atoms: O_2  and  C_3
REMARK    3  A    between atoms: C_7  and  C_8
REMARK    4  A    between atoms: C_8  and  N_9
REMARK    5  A    between atoms: C_21  and  N_22
REMARK    6  A    between atoms: N_22  and  C_23
REMARK    7  A    between atoms: C_23  and  C_24
REMARK                            x       y       z     vdW  Elec       q    Type
REMARK                         _______ _______ _______ _____ _____    ______ ____
ROOT
ATOM      1  N   UNL     1       1.915   8.134  19.157  0.00  0.00    +0.000 N 
ATOM      2  C   UNL     1       1.924   7.353  20.300  0.00  0.00    +0.000 A 
ATOM      3  N   UNL     1       1.390   7.661  21.437  0.00  0.00    +0.000 NA
ATOM      4  C   UNL     1       0.782   8.876  21.455  0.00  0.00    +0.000 A 
ATOM      5  S   UNL     1      -0.002   9.471  22.851  0.00  0.00    +0.000 S 
ATOM      6  C   UNL     1      -0.405  10.932  22.074  0.00  0.00    +0.000 A 
ATOM      7  C   UNL     1       0.011  10.965  20.755  0.00  0.00    +0.000 A 
ATOM      8  C   UNL     1       0.710   9.768  20.406  0.00  0.00    +0.000 A 
ATOM      9  C   UNL     1       1.325   9.396  19.145  0.00  0.00    +0.000 A 
ATOM     10  O   UNL     1       1.303  10.131  18.161  0.00  0.00    +0.000 OA
ATOM     11  C   UNL     1      -0.213  12.161  19.876  0.00  0.00    +0.000 C 
ATOM     12  C   UNL     1      -1.194  13.160  20.509  0.00  0.00    +0.000 C 
ATOM     13  C   UNL     1      -0.915  13.395  22.014  0.00  0.00    +0.000 C 
ATOM     14  C   UNL     1      -1.134  12.049  22.773  0.00  0.00    +0.000 C 
ENDROOT
BRANCH  13  15
ATOM     15  N   UNL     1       0.441  13.902  22.305  0.00  0.00    +0.000 NA
ATOM     16  H   UNL     1       1.125  13.193  22.047  0.00  0.00    +0.000 HD
BRANCH  15  17
ATOM     17  C   UNL     1       0.771  15.183  21.681  0.00  0.00    +0.000 C 
BRANCH  17  18
ATOM     18  C   UNL     1       2.290  15.293  21.403  0.00  0.00    +0.000 C 
ATOM     19  C   UNL     1       2.943  13.980  20.912  0.00  0.00    +0.000 C 
ATOM     20  C   UNL     1       2.714  13.672  19.431  0.00  0.00    +0.000 C 
ATOM     21  C   UNL     1       3.067  14.856  18.542  0.00  0.00    +0.000 C 
ATOM     22  C   UNL     1       2.294  16.097  18.966  0.00  0.00    +0.000 C 
ATOM     23  C   UNL     1       2.585  16.446  20.423  0.00  0.00    +0.000 C 
ENDBRANCH  17  18
ENDBRANCH  15  17
ENDBRANCH  13  15
BRANCH   1  24
ATOM     24  C   UNL     1       2.493   7.632  17.922  0.00  0.00    +0.000 C 
BRANCH  24  29
ATOM     25  C   UNL     1       4.942   4.754  18.471  0.00  0.00    +0.000 A 
ATOM     26  C   UNL     1       4.107   3.654  18.270  0.00  0.00    +0.000 A 
ATOM     27  C   UNL     1       2.757   3.832  17.975  0.00  0.00    +0.000 A 
ATOM     28  C   UNL     1       2.232   5.118  17.867  0.00  0.00    +0.000 A 
ATOM     29  C   UNL     1       3.053   6.236  18.065  0.00  0.00    +0.000 A 
ATOM     30  C   UNL     1       4.411   6.041  18.376  0.00  0.00    +0.000 A 
BRANCH  25  32
ATOM     31  C   UNL     1       7.061   5.490  19.261  0.00  0.00    +0.000 C 
ATOM     32  O   UNL     1       6.247   4.445  18.746  0.00  0.00    +0.000 OA
ENDBRANCH  25  32
ENDBRANCH  24  29
ENDBRANCH   1  24
TORSDOF 6
ENDMDL
MODEL 8
REMARK VINA RESULT:      -7.6      2.673      8.762
REMARK  Name = 
REMARK  7 active torsions:
REMARK  status: ('A' for Active; 'I' for Inactive)
REMARK    1  A    between atoms: C_1  and  O_2
REMARK    2  A    between atoms: O_2  and  C_3
REMARK    3  A    between atoms: C_7  and  C_8
REMARK    4  A    between atoms: C_8  and  N_9
REMARK    5  A    between atoms: C_21  and  N_22
REMARK    6  A    between atoms: N_22  and  C_23
REMARK    7  A    between atoms: C_23  and  C_24
REMARK                            x       y       z     vdW  Elec       q    Type
REMARK                         _______ _______ _______ _____ _____    ______ ____
ROOT
ATOM      1  N   UNL     1      -0.312  10.766  19.311  0.00  0.00    +0.000 N 
ATOM      2  C   UNL     1      -0.670  10.445  20.608  0.00  0.00    +0.000 A 
ATOM      3  N   UNL     1      -0.193   9.470  21.312  0.00  0.00    +0.000 NA
ATOM      4  C   UNL     1       0.737   8.721  20.664  0.00  0.00    +0.000 A 
ATOM      5  S   UNL     1       1.508   7.394  21.415  0.00  0.00    +0.000 S 
ATOM      6  C   UNL     1       2.401   7.040  20.009  0.00  0.00    +0.000 A 
ATOM      7  C   UNL     1       2.156   7.937  18.983  0.00  0.00    +0.000 A 
ATOM      8  C   UNL     1       1.179   8.907  19.371  0.00  0.00    +0.000 A 
ATOM      9  C   UNL     1       0.620  10.006  18.606  0.00  0.00    +0.000 A 
ATOM     10  O   UNL     1       0.960  10.242  17.450  0.00  0.00    +0.000 OA
ATOM     11  C   UNL     1       2.812   7.814  17.640  0.00  0.00    +0.000 C 
ATOM     12  C   UNL     1       3.969   6.802  17.658  0.00  0.00    +0.000 C 
ATOM     13  C   UNL     1       3.612   5.506  18.426  0.00  0.00    +0.000 C 
ATOM     14  C   UNL     1       3.346   5.871  19.920  0.00  0.00    +0.000 C 
ENDROOT
BRANCH  13  15
ATOM     15  N   UNL     1       2.441   4.787  17.886  0.00  0.00    +0.000 NA
ATOM     16  H   UNL     1       1.903   5.421  17.296  0.00  0.00    +0.000 HD
BRANCH  15  17
ATOM     17  C   UNL     1       2.749   3.553  17.162  0.00  0.00    +0.000 C 
BRANCH  17  18
ATOM     18  C   UNL     1       2.209   2.314  17.916  0.00  0.00    +0.000 C 
ATOM     19  C   UNL     1       3.194   1.721  18.951  0.00  0.00    +0.000 C 
ATOM     20  C   UNL     1       3.254   2.478  20.278  0.00  0.00    +0.000 C 
ATOM     21  C   UNL     1       1.868   2.704  20.867  0.00  0.00    +0.000 C 
ATOM     22  C   UNL     1       0.969   3.422  19.871  0.00  0.00    +0.000 C 
ATOM     23  C   UNL     1       0.850   2.623  18.575  0.00  0.00    +0.000 C 
ENDBRANCH  17  18
ENDBRANCH  15  17
ENDBRANCH  13  15
BRANCH   1  24
ATOM     24  C   UNL     1      -0.876  11.938  18.662  0.00  0.00    +0.000 C 
BRANCH  24  29
ATOM     25  C   UNL     1      -4.648  11.592  18.183  0.00  0.00    +0.000 A 
ATOM     26  C   UNL     1      -4.706  11.097  16.879  0.00  0.00    +0.000 A 
ATOM     27  C   UNL     1      -3.538  10.888  16.148  0.00  0.00    +0.000 A 
ATOM     28  C   UNL     1      -2.298  11.165  16.721  0.00  0.00    +0.000 A 
ATOM     29  C   UNL     1      -2.220  11.663  18.029  0.00  0.00    +0.000 A 
ATOM     30  C   UNL     1      -3.406  11.881  18.750  0.00  0.00    +0.000 A 
BRANCH  25  32
ATOM     31  C   UNL     1      -6.659  10.575  18.944  0.00  0.00    +0.000 C 
ATOM     32  O   UNL     1      -5.863  11.744  18.796  0.00  0.00    +0.000 OA
ENDBRANCH  25  32
ENDBRANCH  24  29
ENDBRANCH   1  24
TORSDOF 6
ENDMDL
MODEL 9
REMARK VINA RESULT:      -7.6      2.712      4.403
REMARK  Name = 
REMARK  7 active torsions:
REMARK  status: ('A' for Active; 'I' for Inactive)
REMARK    1  A    between atoms: C_1  and  O_2
REMARK    2  A    between atoms: O_2  and  C_3
REMARK    3  A    between atoms: C_7  and  C_8
REMARK    4  A    between atoms: C_8  and  N_9
REMARK    5  A    between atoms: C_21  and  N_22
REMARK    6  A    between atoms: N_22  and  C_23
REMARK    7  A    between atoms: C_23  and  C_24
REMARK                            x       y       z     vdW  Elec       q    Type
REMARK                         _______ _______ _______ _____ _____    ______ ____
ROOT
ATOM      1  N   UNL     1       1.713   8.464  19.190  0.00  0.00    +0.000 N 
ATOM      2  C   UNL     1       1.936   7.745  20.350  0.00  0.00    +0.000 A 
ATOM      3  N   UNL     1       1.438   8.005  21.516  0.00  0.00    +0.000 NA
ATOM      4  C   UNL     1       0.634   9.099  21.544  0.00  0.00    +0.000 A 
ATOM      5  S   UNL     1      -0.141   9.612  22.978  0.00  0.00    +0.000 S 
ATOM      6  C   UNL     1      -0.843  10.950  22.192  0.00  0.00    +0.000 A 
ATOM      7  C   UNL     1      -0.532  10.997  20.844  0.00  0.00    +0.000 A 
ATOM      8  C   UNL     1       0.336   9.921  20.478  0.00  0.00    +0.000 A 
ATOM      9  C   UNL     1       0.915   9.606  19.186  0.00  0.00    +0.000 A 
ATOM     10  O   UNL     1       0.699  10.285  18.185  0.00  0.00    +0.000 OA
ATOM     11  C   UNL     1      -1.019  12.100  19.950  0.00  0.00    +0.000 C 
ATOM     12  C   UNL     1      -2.110  12.945  20.626  0.00  0.00    +0.000 C 
ATOM     13  C   UNL     1      -1.771  13.286  22.097  0.00  0.00    +0.000 C 
ATOM     14  C   UNL     1      -1.702  11.956  22.911  0.00  0.00    +0.000 C 
ENDROOT
BRANCH  13  15
ATOM     15  N   UNL     1      -0.505  14.027  22.270  0.00  0.00    +0.000 NA
ATOM     16  H   UNL     1       0.277  13.395  22.104  0.00  0.00    +0.000 HD
BRANCH  15  17
ATOM     17  C   UNL     1      -0.373  15.229  21.447  0.00  0.00    +0.000 C 
BRANCH  17  18
ATOM     18  C   UNL     1       1.115  15.573  21.196  0.00  0.00    +0.000 C 
ATOM     19  C   UNL     1       2.104  14.462  21.616  0.00  0.00    +0.000 C 
ATOM     20  C   UNL     1       2.223  13.307  20.620  0.00  0.00    +0.000 C 
ATOM     21  C   UNL     1       2.483  13.801  19.204  0.00  0.00    +0.000 C 
ATOM     22  C   UNL     1       1.405  14.785  18.771  0.00  0.00    +0.000 C 
ATOM     23  C   UNL     1       1.343  15.975  19.725  0.00  0.00    +0.000 C 
ENDBRANCH  17  18
ENDBRANCH  15  17
ENDBRANCH  13  15
BRANCH   1  24
ATOM     24  C   UNL     1       2.280   8.015  17.929  0.00  0.00    +0.000 C 
BRANCH  24  29
ATOM     25  C   UNL     1       2.203   4.197  17.937  0.00  0.00    +0.000 A 
ATOM     26  C   UNL     1       3.556   3.905  18.116  0.00  0.00    +0.000 A 
ATOM     27  C   UNL     1       4.495   4.929  18.218  0.00  0.00    +0.000 A 
ATOM     28  C   UNL     1       4.085   6.259  18.152  0.00  0.00    +0.000 A 
ATOM     29  C   UNL     1       2.731   6.574  17.973  0.00  0.00    +0.000 A 
ATOM     30  C   UNL     1       1.796   5.530  17.858  0.00  0.00    +0.000 A 
BRANCH  25  32
ATOM     31  C   UNL     1       0.900   2.574  19.088  0.00  0.00    +0.000 C 
ATOM     32  O   UNL     1       1.383   3.104  17.860  0.00  0.00    +0.000 OA
ENDBRANCH  25  32
ENDBRANCH  24  29
ENDBRANCH   1  24
TORSDOF 6
ENDMDL
