MODEL 1
REMARK VINA RESULT:      -9.0      0.000      0.000
REMARK  Name = 
REMARK  7 active torsions:
REMARK  status: ('A' for Active; 'I' for Inactive)
REMARK    1  A    between atoms: C_1  and  C_2
REMARK    2  A    between atoms: C_2  and  C_3
REMARK    3  A    between atoms: N_9  and  C_10
REMARK    4  A    between atoms: C_10  and  C_11
REMARK    5  A    between atoms: C_13  and  C_14
REMARK    6  A    between atoms: C_17  and  C_18
REMARK    7  A    between atoms: C_27  and  C_28
REMARK                            x       y       z     vdW  Elec       q    Type
REMARK                         _______ _______ _______ _____ _____    ______ ____
ROOT
ATOM      1  C   UNL     1       2.484   6.783  19.827  0.00  0.00    +0.000 A 
ATOM      2  N   UNL     1       1.706   7.244  20.884  0.00  0.00    +0.000 NA
ATOM      3  C   UNL     1       1.216   8.392  20.454  0.00  0.00    +0.000 A 
ATOM      4  O   UNL     1       1.623   8.732  19.199  0.00  0.00    +0.000 OA
ATOM      5  C   UNL     1       2.433   7.711  18.800  0.00  0.00    +0.000 A 
ATOM      6  C   UNL     1       2.984   7.872  17.444  0.00  0.00    +0.000 C 
ENDROOT
BRANCH   3   7
ATOM      7  C   UNL     1       0.348   9.359  21.113  0.00  0.00    +0.000 A 
ATOM      8  C   UNL     1       0.079   9.234  22.476  0.00  0.00    +0.000 A 
ATOM      9  C   UNL     1      -0.695  10.195  23.135  0.00  0.00    +0.000 A 
ATOM     10  C   UNL     1      -1.216  11.318  22.465  0.00  0.00    +0.000 A 
ATOM     11  C   UNL     1      -0.976  11.408  21.086  0.00  0.00    +0.000 A 
ATOM     12  C   UNL     1      -0.209  10.443  20.419  0.00  0.00    +0.000 A 
BRANCH  10  13
ATOM     13  C   UNL     1      -1.964  12.361  23.200  0.00  0.00    +0.000 A 
ATOM     14  C   UNL     1      -1.375  13.613  23.461  0.00  0.00    +0.000 A 
ATOM     15  C   UNL     1      -2.041  14.600  24.190  0.00  0.00    +0.000 A 
ATOM     16  C   UNL     1      -3.328  14.367  24.658  0.00  0.00    +0.000 A 
ATOM     17  C   UNL     1      -3.950  13.149  24.389  0.00  0.00    +0.000 A 
ATOM     18  C   UNL     1      -3.274  12.157  23.669  0.00  0.00    +0.000 A 
ENDBRANCH  10  13
ENDBRANCH   3   7
BRANCH   1  19
ATOM     19  C   UNL     1       3.129   5.427  19.900  0.00  0.00    +0.000 C 
BRANCH  19  26
ATOM     20  C   UNL     1       2.720   2.988  19.718  0.00  0.00    +0.000 C 
ATOM     21  C   UNL     1       4.113   2.520  19.214  0.00  0.00    +0.000 C 
ATOM     22  O   UNL     1       4.855   1.765  19.847  0.00  0.00    +0.000 OA
ATOM     23  N   UNL     1       4.481   2.882  17.944  0.00  0.00    +0.000 N 
ATOM     24  C   UNL     1       3.919   4.040  17.282  0.00  0.00    +0.000 C 
ATOM     25  C   UNL     1       2.496   4.365  17.757  0.00  0.00    +0.000 C 
ATOM     26  N   UNL     1       2.348   4.363  19.231  0.00  0.00    +0.000 NA
ATOM     27  H   UNL     1       5.411   2.573  17.678  0.00  0.00    +0.000 HD
BRANCH  20  29
ATOM     28  C   UNL     1       1.188   2.754  21.764  0.00  0.00    +0.000 C 
ATOM     29  C   UNL     1       2.617   2.784  21.242  0.00  0.00    +0.000 C 
ENDBRANCH  20  29
ENDBRANCH  19  26
ENDBRANCH   1  19
TORSDOF 5
ENDMDL
MODEL 2
REMARK VINA RESULT:      -8.6      2.168      3.475
REMARK  Name = 
REMARK  7 active torsions:
REMARK  status: ('A' for Active; 'I' for Inactive)
REMARK    1  A    between atoms: C_1  and  C_2
REMARK    2  A    between atoms: C_2  and  C_3
REMARK    3  A    between atoms: N_9  and  C_10
REMARK    4  A    between atoms: C_10  and  C_11
REMARK    5  A    between atoms: C_13  and  C_14
REMARK    6  A    between atoms: C_17  and  C_18
REMARK    7  A    between atoms: C_27  and  C_28
REMARK                            x       y       z     vdW  Elec       q    Type
REMARK                         _______ _______ _______ _____ _____    ______ ____
ROOT
ATOM      1  C   UNL     1       2.733   6.486  19.045  0.00  0.00    +0.000 A 
ATOM      2  N   UNL     1       2.378   7.822  19.196  0.00  0.00    +0.000 NA
ATOM      3  C   UNL     1       1.646   7.845  20.294  0.00  0.00    +0.000 A 
ATOM      4  O   UNL     1       1.479   6.623  20.872  0.00  0.00    +0.000 OA
ATOM      5  C   UNL     1       2.167   5.756  20.077  0.00  0.00    +0.000 A 
ATOM      6  C   UNL     1       2.128   4.356  20.533  0.00  0.00    +0.000 C 
ENDROOT
BRANCH   3   7
ATOM      7  C   UNL     1       0.968   8.950  20.959  0.00  0.00    +0.000 A 
ATOM      8  C   UNL     1       0.626  10.091  20.233  0.00  0.00    +0.000 A 
ATOM      9  C   UNL     1      -0.088  11.128  20.843  0.00  0.00    +0.000 A 
ATOM     10  C   UNL     1      -0.497  11.060  22.188  0.00  0.00    +0.000 A 
ATOM     11  C   UNL     1      -0.108   9.928  22.918  0.00  0.00    +0.000 A 
ATOM     12  C   UNL     1       0.616   8.889  22.315  0.00  0.00    +0.000 A 
BRANCH  10  13
ATOM     13  C   UNL     1      -1.319  12.135  22.786  0.00  0.00    +0.000 A 
ATOM     14  C   UNL     1      -2.599  11.852  23.301  0.00  0.00    +0.000 A 
ATOM     15  C   UNL     1      -3.414  12.854  23.832  0.00  0.00    +0.000 A 
ATOM     16  C   UNL     1      -2.957  14.165  23.883  0.00  0.00    +0.000 A 
ATOM     17  C   UNL     1      -1.683  14.470  23.411  0.00  0.00    +0.000 A 
ATOM     18  C   UNL     1      -0.874  13.466  22.867  0.00  0.00    +0.000 A 
ENDBRANCH  10  13
ENDBRANCH   3   7
BRANCH   1  19
ATOM     19  C   UNL     1       3.674   6.074  17.946  0.00  0.00    +0.000 C 
BRANCH  19  26
ATOM     20  C   UNL     1       6.108   5.819  17.551  0.00  0.00    +0.000 C 
ATOM     21  C   UNL     1       6.081   5.054  16.199  0.00  0.00    +0.000 C 
ATOM     22  O   UNL     1       6.541   5.502  15.146  0.00  0.00    +0.000 OA
ATOM     23  N   UNL     1       5.619   3.763  16.212  0.00  0.00    +0.000 N 
ATOM     24  C   UNL     1       4.719   3.279  17.237  0.00  0.00    +0.000 C 
ATOM     25  C   UNL     1       4.892   4.013  18.574  0.00  0.00    +0.000 C 
ATOM     26  N   UNL     1       4.940   5.487  18.439  0.00  0.00    +0.000 NA
ATOM     27  H   UNL     1       5.598   3.322  15.298  0.00  0.00    +0.000 HD
BRANCH  20  29
ATOM     28  C   UNL     1       7.742   7.797  17.620  0.00  0.00    +0.000 C 
ATOM     29  C   UNL     1       6.333   7.323  17.298  0.00  0.00    +0.000 C 
ENDBRANCH  20  29
ENDBRANCH  19  26
ENDBRANCH   1  19
TORSDOF 5
ENDMDL
MODEL 3
REMARK VINA RESULT:      -8.5      0.792      1.292
REMARK  Name = 
REMARK  7 active torsions:
REMARK  status: ('A' for Active; 'I' for Inactive)
REMARK    1  A    between atoms: C_1  and  C_2
REMARK    2  A    between atoms: C_2  and  C_3
REMARK    3  A    between atoms: N_9  and  C_10
REMARK    4  A    between atoms: C_10  and  C_11
REMARK    5  A    between atoms: C_13  and  C_14
REMARK    6  A    between atoms: C_17  and  C_18
REMARK    7  A    between atoms: C_27  and  C_28
REMARK                            x       y       z     vdW  Elec       q    Type
REMARK                         _______ _______ _______ _____ _____    ______ ____
ROOT
ATOM      1  C   UNL     1       2.393   6.931  19.903  0.00  0.00    +0.000 A 
ATOM      2  N   UNL     1       1.646   7.421  20.968  0.00  0.00    +0.000 NA
ATOM      3  C   UNL     1       1.122   8.543  20.512  0.00  0.00    +0.000 A 
ATOM      4  O   UNL     1       1.477   8.839  19.231  0.00  0.00    +0.000 OA
ATOM      5  C   UNL     1       2.289   7.816  18.842  0.00  0.00    +0.000 A 
ATOM      6  C   UNL     1       2.788   7.930  17.461  0.00  0.00    +0.000 C 
ENDROOT
BRANCH   3   7
ATOM      7  C   UNL     1       0.262   9.523  21.164  0.00  0.00    +0.000 A 
ATOM      8  C   UNL     1      -0.107   9.343  22.497  0.00  0.00    +0.000 A 
ATOM      9  C   UNL     1      -0.874  10.311  23.155  0.00  0.00    +0.000 A 
ATOM     10  C   UNL     1      -1.287  11.495  22.514  0.00  0.00    +0.000 A 
ATOM     11  C   UNL     1      -0.946  11.642  21.162  0.00  0.00    +0.000 A 
ATOM     12  C   UNL     1      -0.186  10.671  20.495  0.00  0.00    +0.000 A 
BRANCH  10  13
ATOM     13  C   UNL     1      -2.028  12.539  23.255  0.00  0.00    +0.000 A 
ATOM     14  C   UNL     1      -3.340  12.300  23.705  0.00  0.00    +0.000 A 
ATOM     15  C   UNL     1      -4.079  13.283  24.368  0.00  0.00    +0.000 A 
ATOM     16  C   UNL     1      -3.511  14.525  24.620  0.00  0.00    +0.000 A 
ATOM     17  C   UNL     1      -2.203  14.781  24.214  0.00  0.00    +0.000 A 
ATOM     18  C   UNL     1      -1.471  13.798  23.538  0.00  0.00    +0.000 A 
ENDBRANCH  10  13
ENDBRANCH   3   7
BRANCH   1  19
ATOM     19  C   UNL     1       3.064   5.589  20.006  0.00  0.00    +0.000 C 
BRANCH  19  26
ATOM     20  C   UNL     1       3.156   3.349  18.946  0.00  0.00    +0.000 C 
ATOM     21  C   UNL     1       4.550   2.875  19.443  0.00  0.00    +0.000 C 
ATOM     22  O   UNL     1       4.722   1.899  20.178  0.00  0.00    +0.000 OA
ATOM     23  N   UNL     1       5.652   3.516  18.940  0.00  0.00    +0.000 N 
ATOM     24  C   UNL     1       5.586   4.864  18.418  0.00  0.00    +0.000 C 
ATOM     25  C   UNL     1       4.205   5.212  17.842  0.00  0.00    +0.000 C 
ATOM     26  N   UNL     1       3.081   4.836  18.731  0.00  0.00    +0.000 NA
ATOM     27  H   UNL     1       6.533   3.184  19.320  0.00  0.00    +0.000 HD
BRANCH  20  29
ATOM     28  C   UNL     1       0.680   2.713  19.184  0.00  0.00    +0.000 C 
ATOM     29  C   UNL     1       2.050   2.760  19.845  0.00  0.00    +0.000 C 
ENDBRANCH  20  29
ENDBRANCH  19  26
ENDBRANCH   1  19
TORSDOF 5
ENDMDL
MODEL 4
REMARK VINA RESULT:      -8.4      0.525      1.333
REMARK  Name = 
REMARK  7 active torsions:
REMARK  status: ('A' for Active; 'I' for Inactive)
REMARK    1  A    between atoms: C_1  and  C_2
REMARK    2  A    between atoms: C_2  and  C_3
REMARK    3  A    between atoms: N_9  and  C_10
REMARK    4  A    between atoms: C_10  and  C_11
REMARK    5  A    between atoms: C_13  and  C_14
REMARK    6  A    between atoms: C_17  and  C_18
REMARK    7  A    between atoms: C_27  and  C_28
REMARK                            x       y       z     vdW  Elec       q    Type
REMARK                         _______ _______ _______ _____ _____    ______ ____
ROOT
ATOM      1  C   UNL     1       2.438   7.074  19.817  0.00  0.00    +0.000 A 
ATOM      2  N   UNL     1       1.728   7.573  20.905  0.00  0.00    +0.000 NA
ATOM      3  C   UNL     1       1.201   8.699  20.463  0.00  0.00    +0.000 A 
ATOM      4  O   UNL     1       1.520   8.990  19.171  0.00  0.00    +0.000 OA
ATOM      5  C   UNL     1       2.311   7.959  18.760  0.00  0.00    +0.000 A 
ATOM      6  C   UNL     1       2.769   8.068  17.364  0.00  0.00    +0.000 C 
ENDROOT
BRANCH   3   7
ATOM      7  C   UNL     1       0.370   9.687  21.139  0.00  0.00    +0.000 A 
ATOM      8  C   UNL     1      -0.020  10.844  20.465  0.00  0.00    +0.000 A 
ATOM      9  C   UNL     1      -0.875  11.766  21.078  0.00  0.00    +0.000 A 
ATOM     10  C   UNL     1      -1.380  11.563  22.377  0.00  0.00    +0.000 A 
ATOM     11  C   UNL     1      -0.944  10.418  23.061  0.00  0.00    +0.000 A 
ATOM     12  C   UNL     1      -0.080   9.496  22.454  0.00  0.00    +0.000 A 
BRANCH  10  13
ATOM     13  C   UNL     1      -2.345  12.513  22.973  0.00  0.00    +0.000 A 
ATOM     14  C   UNL     1      -3.333  12.060  23.868  0.00  0.00    +0.000 A 
ATOM     15  C   UNL     1      -4.283  12.927  24.411  0.00  0.00    +0.000 A 
ATOM     16  C   UNL     1      -4.254  14.278  24.090  0.00  0.00    +0.000 A 
ATOM     17  C   UNL     1      -3.269  14.761  23.232  0.00  0.00    +0.000 A 
ATOM     18  C   UNL     1      -2.326  13.887  22.678  0.00  0.00    +0.000 A 
ENDBRANCH  10  13
ENDBRANCH   3   7
BRANCH   1  19
ATOM     19  C   UNL     1       3.099   5.726  19.902  0.00  0.00    +0.000 C 
BRANCH  19  26
ATOM     20  C   UNL     1       2.692   3.283  19.773  0.00  0.00    +0.000 C 
ATOM     21  C   UNL     1       4.090   2.804  19.295  0.00  0.00    +0.000 C 
ATOM     22  O   UNL     1       4.826   2.065  19.954  0.00  0.00    +0.000 OA
ATOM     23  N   UNL     1       4.471   3.136  18.021  0.00  0.00    +0.000 N 
ATOM     24  C   UNL     1       3.916   4.277  17.325  0.00  0.00    +0.000 C 
ATOM     25  C   UNL     1       2.488   4.612  17.778  0.00  0.00    +0.000 C 
ATOM     26  N   UNL     1       2.325   4.646  19.250  0.00  0.00    +0.000 NA
ATOM     27  H   UNL     1       5.404   2.820  17.772  0.00  0.00    +0.000 HD
BRANCH  20  29
ATOM     28  C   UNL     1       1.186   2.698  21.768  0.00  0.00    +0.000 C 
ATOM     29  C   UNL     1       2.573   3.115  21.301  0.00  0.00    +0.000 C 
ENDBRANCH  20  29
ENDBRANCH  19  26
ENDBRANCH   1  19
TORSDOF 5
ENDMDL
MODEL 5
REMARK VINA RESULT:      -8.4      2.168      3.236
REMARK  Name = 
REMARK  7 active torsions:
REMARK  status: ('A' for Active; 'I' for Inactive)
REMARK    1  A    between atoms: C_1  and  C_2
REMARK    2  A    between atoms: C_2  and  C_3
REMARK    3  A    between atoms: N_9  and  C_10
REMARK    4  A    between atoms: C_10  and  C_11
REMARK    5  A    between atoms: C_13  and  C_14
REMARK    6  A    between atoms: C_17  and  C_18
REMARK    7  A    between atoms: C_27  and  C_28
REMARK                            x       y       z     vdW  Elec       q    Type
REMARK                         _______ _______ _______ _____ _____    ______ ____
ROOT
ATOM      1  C   UNL     1       2.726   6.522  19.076  0.00  0.00    +0.000 A 
ATOM      2  N   UNL     1       2.237   7.823  19.130  0.00  0.00    +0.000 NA
ATOM      3  C   UNL     1       1.512   7.854  20.232  0.00  0.00    +0.000 A 
ATOM      4  O   UNL     1       1.473   6.669  20.903  0.00  0.00    +0.000 OA
ATOM      5  C   UNL     1       2.241   5.819  20.166  0.00  0.00    +0.000 A 
ATOM      6  C   UNL     1       2.347   4.460  20.726  0.00  0.00    +0.000 C 
ENDROOT
BRANCH   3   7
ATOM      7  C   UNL     1       0.728   8.932  20.821  0.00  0.00    +0.000 A 
ATOM      8  C   UNL     1       0.302   8.836  22.146  0.00  0.00    +0.000 A 
ATOM      9  C   UNL     1      -0.390   9.895  22.744  0.00  0.00    +0.000 A 
ATOM     10  C   UNL     1      -0.672  11.086  22.050  0.00  0.00    +0.000 A 
ATOM     11  C   UNL     1      -0.278  11.152  20.706  0.00  0.00    +0.000 A 
ATOM     12  C   UNL     1       0.408  10.091  20.099  0.00  0.00    +0.000 A 
BRANCH  10  13
ATOM     13  C   UNL     1      -1.335  12.221  22.729  0.00  0.00    +0.000 A 
ATOM     14  C   UNL     1      -0.682  13.462  22.850  0.00  0.00    +0.000 A 
ATOM     15  C   UNL     1      -1.266  14.537  23.524  0.00  0.00    +0.000 A 
ATOM     16  C   UNL     1      -2.535  14.403  24.074  0.00  0.00    +0.000 A 
ATOM     17  C   UNL     1      -3.219  13.197  23.943  0.00  0.00    +0.000 A 
ATOM     18  C   UNL     1      -2.625  12.118  23.279  0.00  0.00    +0.000 A 
ENDBRANCH  10  13
ENDBRANCH   3   7
BRANCH   1  19
ATOM     19  C   UNL     1       3.698   6.125  17.999  0.00  0.00    +0.000 C 
BRANCH  19  26
ATOM     20  C   UNL     1       6.143   5.894  17.657  0.00  0.00    +0.000 C 
ATOM     21  C   UNL     1       6.153   5.123  16.308  0.00  0.00    +0.000 C 
ATOM     22  O   UNL     1       6.631   5.571  15.263  0.00  0.00    +0.000 OA
ATOM     23  N   UNL     1       5.704   3.827  16.318  0.00  0.00    +0.000 N 
ATOM     24  C   UNL     1       4.788   3.339  17.325  0.00  0.00    +0.000 C 
ATOM     25  C   UNL     1       4.924   4.080  18.663  0.00  0.00    +0.000 C 
ATOM     26  N   UNL     1       4.960   5.554  18.522  0.00  0.00    +0.000 NA
ATOM     27  H   UNL     1       5.707   3.382  15.405  0.00  0.00    +0.000 HD
BRANCH  20  29
ATOM     28  C   UNL     1       7.780   7.871  17.665  0.00  0.00    +0.000 C 
ATOM     29  C   UNL     1       6.357   7.399  17.402  0.00  0.00    +0.000 C 
ENDBRANCH  20  29
ENDBRANCH  19  26
ENDBRANCH   1  19
TORSDOF 5
ENDMDL
MODEL 6
REMARK VINA RESULT:      -8.2      0.932      1.406
REMARK  Name = 
REMARK  7 active torsions:
REMARK  status: ('A' for Active; 'I' for Inactive)
REMARK    1  A    between atoms: C_1  and  C_2
REMARK    2  A    between atoms: C_2  and  C_3
REMARK    3  A    between atoms: N_9  and  C_10
REMARK    4  A    between atoms: C_10  and  C_11
REMARK    5  A    between atoms: C_13  and  C_14
REMARK    6  A    between atoms: C_17  and  C_18
REMARK    7  A    between atoms: C_27  and  C_28
REMARK                            x       y       z     vdW  Elec       q    Type
REMARK                         _______ _______ _______ _____ _____    ______ ____
ROOT
ATOM      1  C   UNL     1       2.357   7.025  19.918  0.00  0.00    +0.000 A 
ATOM      2  N   UNL     1       1.673   7.550  21.009  0.00  0.00    +0.000 NA
ATOM      3  C   UNL     1       1.147   8.672  20.557  0.00  0.00    +0.000 A 
ATOM      4  O   UNL     1       1.443   8.937  19.254  0.00  0.00    +0.000 OA
ATOM      5  C   UNL     1       2.216   7.891  18.846  0.00  0.00    +0.000 A 
ATOM      6  C   UNL     1       2.647   7.969  17.440  0.00  0.00    +0.000 C 
ENDROOT
BRANCH   3   7
ATOM      7  C   UNL     1       0.338   9.681  21.231  0.00  0.00    +0.000 A 
ATOM      8  C   UNL     1      -0.008  10.853  20.560  0.00  0.00    +0.000 A 
ATOM      9  C   UNL     1      -0.842  11.796  21.171  0.00  0.00    +0.000 A 
ATOM     10  C   UNL     1      -1.369  11.599  22.461  0.00  0.00    +0.000 A 
ATOM     11  C   UNL     1      -0.977  10.437  23.142  0.00  0.00    +0.000 A 
ATOM     12  C   UNL     1      -0.134   9.493  22.538  0.00  0.00    +0.000 A 
BRANCH  10  13
ATOM     13  C   UNL     1      -2.312  12.574  23.053  0.00  0.00    +0.000 A 
ATOM     14  C   UNL     1      -2.115  13.956  22.876  0.00  0.00    +0.000 A 
ATOM     15  C   UNL     1      -2.965  14.899  23.459  0.00  0.00    +0.000 A 
ATOM     16  C   UNL     1      -4.051  14.479  24.216  0.00  0.00    +0.000 A 
ATOM     17  C   UNL     1      -4.290  13.117  24.383  0.00  0.00    +0.000 A 
ATOM     18  C   UNL     1      -3.429  12.175  23.808  0.00  0.00    +0.000 A 
ENDBRANCH  10  13
ENDBRANCH   3   7
BRANCH   1  19
ATOM     19  C   UNL     1       3.007   5.672  20.014  0.00  0.00    +0.000 C 
BRANCH  19  26
ATOM     20  C   UNL     1       3.144   3.473  18.877  0.00  0.00    +0.000 C 
ATOM     21  C   UNL     1       4.492   2.958  19.454  0.00  0.00    +0.000 C 
ATOM     22  O   UNL     1       4.599   1.952  20.160  0.00  0.00    +0.000 OA
ATOM     23  N   UNL     1       5.637   3.599  19.056  0.00  0.00    +0.000 N 
ATOM     24  C   UNL     1       5.626   4.967  18.583  0.00  0.00    +0.000 C 
ATOM     25  C   UNL     1       4.296   5.359  17.925  0.00  0.00    +0.000 C 
ATOM     26  N   UNL     1       3.106   4.969  18.716  0.00  0.00    +0.000 NA
ATOM     27  H   UNL     1       6.483   3.238  19.484  0.00  0.00    +0.000 HD
BRANCH  20  29
ATOM     28  C   UNL     1       0.781   2.473  18.808  0.00  0.00    +0.000 C 
ATOM     29  C   UNL     1       1.969   2.870  19.672  0.00  0.00    +0.000 C 
ENDBRANCH  20  29
ENDBRANCH  19  26
ENDBRANCH   1  19
TORSDOF 5
ENDMDL
MODEL 7
REMARK VINA RESULT:      -8.1      2.360      3.544
REMARK  Name = 
REMARK  7 active torsions:
REMARK  status: ('A' for Active; 'I' for Inactive)
REMARK    1  A    between atoms: C_1  and  C_2
REMARK    2  A    between atoms: C_2  and  C_3
REMARK    3  A    between atoms: N_9  and  C_10
REMARK    4  A    between atoms: C_10  and  C_11
REMARK    5  A    between atoms: C_13  and  C_14
REMARK    6  A    between atoms: C_17  and  C_18
REMARK    7  A    between atoms: C_27  and  C_28
REMARK                            x       y       z     vdW  Elec       q    Type
REMARK                         _______ _______ _______ _____ _____    ______ ____
ROOT
ATOM      1  C   UNL     1       3.076   6.506  18.739  0.00  0.00    +0.000 A 
ATOM      2  N   UNL     1       2.607   7.813  18.824  0.00  0.00    +0.000 NA
ATOM      3  C   UNL     1       1.822   7.811  19.884  0.00  0.00    +0.000 A 
ATOM      4  O   UNL     1       1.724   6.599  20.499  0.00  0.00    +0.000 OA
ATOM      5  C   UNL     1       2.519   5.766  19.769  0.00  0.00    +0.000 A 
ATOM      6  C   UNL     1       2.570   4.383  20.273  0.00  0.00    +0.000 C 
ENDROOT
BRANCH   3   7
ATOM      7  C   UNL     1       1.023   8.877  20.476  0.00  0.00    +0.000 A 
ATOM      8  C   UNL     1       0.322   8.644  21.659  0.00  0.00    +0.000 A 
ATOM      9  C   UNL     1      -0.390   9.679  22.274  0.00  0.00    +0.000 A 
ATOM     10  C   UNL     1      -0.420  10.982  21.740  0.00  0.00    +0.000 A 
ATOM     11  C   UNL     1       0.252  11.192  20.527  0.00  0.00    +0.000 A 
ATOM     12  C   UNL     1       0.960  10.155  19.902  0.00  0.00    +0.000 A 
BRANCH  10  13
ATOM     13  C   UNL     1      -1.114  12.077  22.452  0.00  0.00    +0.000 A 
ATOM     14  C   UNL     1      -2.311  11.830  23.150  0.00  0.00    +0.000 A 
ATOM     15  C   UNL     1      -3.010  12.853  23.794  0.00  0.00    +0.000 A 
ATOM     16  C   UNL     1      -2.514  14.150  23.775  0.00  0.00    +0.000 A 
ATOM     17  C   UNL     1      -1.316  14.421  23.119  0.00  0.00    +0.000 A 
ATOM     18  C   UNL     1      -0.625  13.395  22.463  0.00  0.00    +0.000 A 
ENDBRANCH  10  13
ENDBRANCH   3   7
BRANCH   1  19
ATOM     19  C   UNL     1       4.101   6.138  17.702  0.00  0.00    +0.000 C 
BRANCH  19  26
ATOM     20  C   UNL     1       6.562   5.915  17.499  0.00  0.00    +0.000 C 
ATOM     21  C   UNL     1       6.654   5.218  16.114  0.00  0.00    +0.000 C 
ATOM     22  O   UNL     1       7.196   5.721  15.126  0.00  0.00    +0.000 OA
ATOM     23  N   UNL     1       6.205   3.927  16.024  0.00  0.00    +0.000 N 
ATOM     24  C   UNL     1       5.227   3.388  16.945  0.00  0.00    +0.000 C 
ATOM     25  C   UNL     1       5.281   4.055  18.327  0.00  0.00    +0.000 C 
ATOM     26  N   UNL     1       5.327   5.534  18.270  0.00  0.00    +0.000 NA
ATOM     27  H   UNL     1       6.264   3.531  15.091  0.00  0.00    +0.000 HD
BRANCH  20  29
ATOM     28  C   UNL     1       8.059   7.935  18.020  0.00  0.00    +0.000 C 
ATOM     29  C   UNL     1       6.793   7.431  17.340  0.00  0.00    +0.000 C 
ENDBRANCH  20  29
ENDBRANCH  19  26
ENDBRANCH   1  19
TORSDOF 5
ENDMDL
MODEL 8
REMARK VINA RESULT:      -8.0      1.065      2.128
REMARK  Name = 
REMARK  7 active torsions:
REMARK  status: ('A' for Active; 'I' for Inactive)
REMARK    1  A    between atoms: C_1  and  C_2
REMARK    2  A    between atoms: C_2  and  C_3
REMARK    3  A    between atoms: N_9  and  C_10
REMARK    4  A    between atoms: C_10  and  C_11
REMARK    5  A    between atoms: C_13  and  C_14
REMARK    6  A    between atoms: C_17  and  C_18
REMARK    7  A    between atoms: C_27  and  C_28
REMARK                            x       y       z     vdW  Elec       q    Type
REMARK                         _______ _______ _______ _____ _____    ______ ____
ROOT
ATOM      1  C   UNL     1       2.008   6.689  19.494  0.00  0.00    +0.000 A 
ATOM      2  N   UNL     1       1.194   7.135  20.530  0.00  0.00    +0.000 NA
ATOM      3  C   UNL     1       1.139   8.443  20.364  0.00  0.00    +0.000 A 
ATOM      4  O   UNL     1       1.866   8.897  19.306  0.00  0.00    +0.000 OA
ATOM      5  C   UNL     1       2.423   7.783  18.753  0.00  0.00    +0.000 A 
ATOM      6  C   UNL     1       3.256   8.047  17.568  0.00  0.00    +0.000 C 
ENDROOT
BRANCH   3   7
ATOM      7  C   UNL     1       0.460   9.471  21.143  0.00  0.00    +0.000 A 
ATOM      8  C   UNL     1       0.309  10.753  20.617  0.00  0.00    +0.000 A 
ATOM      9  C   UNL     1      -0.402  11.728  21.325  0.00  0.00    +0.000 A 
ATOM     10  C   UNL     1      -0.995  11.458  22.572  0.00  0.00    +0.000 A 
ATOM     11  C   UNL     1      -0.798  10.178  23.111  0.00  0.00    +0.000 A 
ATOM     12  C   UNL     1      -0.078   9.200  22.409  0.00  0.00    +0.000 A 
BRANCH  10  13
ATOM     13  C   UNL     1      -1.809  12.482  23.263  0.00  0.00    +0.000 A 
ATOM     14  C   UNL     1      -1.275  13.757  23.531  0.00  0.00    +0.000 A 
ATOM     15  C   UNL     1      -2.005  14.729  24.219  0.00  0.00    +0.000 A 
ATOM     16  C   UNL     1      -3.301  14.455  24.638  0.00  0.00    +0.000 A 
ATOM     17  C   UNL     1      -3.867  13.213  24.361  0.00  0.00    +0.000 A 
ATOM     18  C   UNL     1      -3.128  12.237  23.682  0.00  0.00    +0.000 A 
ENDBRANCH  10  13
ENDBRANCH   3   7
BRANCH   1  19
ATOM     19  C   UNL     1       2.222   5.215  19.284  0.00  0.00    +0.000 C 
BRANCH  19  26
ATOM     20  C   UNL     1       3.977   3.540  19.796  0.00  0.00    +0.000 C 
ATOM     21  C   UNL     1       3.253   2.245  19.335  0.00  0.00    +0.000 C 
ATOM     22  O   UNL     1       3.649   1.528  18.412  0.00  0.00    +0.000 OA
ATOM     23  N   UNL     1       2.179   1.823  20.074  0.00  0.00    +0.000 N 
ATOM     24  C   UNL     1       1.401   2.733  20.887  0.00  0.00    +0.000 C 
ATOM     25  C   UNL     1       2.222   3.926  21.396  0.00  0.00    +0.000 C 
ATOM     26  N   UNL     1       3.035   4.578  20.344  0.00  0.00    +0.000 NA
ATOM     27  H   UNL     1       1.729   0.989  19.711  0.00  0.00    +0.000 HD
BRANCH  20  29
ATOM     28  C   UNL     1       5.889   5.122  19.140  0.00  0.00    +0.000 C 
ATOM     29  C   UNL     1       4.925   4.036  18.686  0.00  0.00    +0.000 C 
ENDBRANCH  20  29
ENDBRANCH  19  26
ENDBRANCH   1  19
TORSDOF 5
ENDMDL
MODEL 9
REMARK VINA RESULT:      -8.0      2.563      3.787
REMARK  Name = 
REMARK  7 active torsions:
REMARK  status: ('A' for Active; 'I' for Inactive)
REMARK    1  A    between atoms: C_1  and  C_2
REMARK    2  A    between atoms: C_2  and  C_3
REMARK    3  A    between atoms: N_9  and  C_10
REMARK    4  A    between atoms: C_10  and  C_11
REMARK    5  A    between atoms: C_13  and  C_14
REMARK    6  A    between atoms: C_17  and  C_18
REMARK    7  A    between atoms: C_27  and  C_28
REMARK                            x       y       z     vdW  Elec       q    Type
REMARK                         _______ _______ _______ _____ _____    ______ ____
ROOT
ATOM      1  C   UNL     1       3.513   6.326  18.156  0.00  0.00    +0.000 A 
ATOM      2  N   UNL     1       2.934   7.589  18.216  0.00  0.00    +0.000 NA
ATOM      3  C   UNL     1       2.242   7.578  19.340  0.00  0.00    +0.000 A 
ATOM      4  O   UNL     1       2.308   6.400  20.019  0.00  0.00    +0.000 OA
ATOM      5  C   UNL     1       3.114   5.600  19.266  0.00  0.00    +0.000 A 
ATOM      6  C   UNL     1       3.334   4.258  19.831  0.00  0.00    +0.000 C 
ENDROOT
BRANCH   3   7
ATOM      7  C   UNL     1       1.400   8.603  19.945  0.00  0.00    +0.000 A 
ATOM      8  C   UNL     1       0.985   9.696  19.186  0.00  0.00    +0.000 A 
ATOM      9  C   UNL     1       0.119  10.649  19.734  0.00  0.00    +0.000 A 
ATOM     10  C   UNL     1      -0.372  10.540  21.048  0.00  0.00    +0.000 A 
ATOM     11  C   UNL     1       0.088   9.459  21.815  0.00  0.00    +0.000 A 
ATOM     12  C   UNL     1       0.963   8.507  21.274  0.00  0.00    +0.000 A 
BRANCH  10  13
ATOM     13  C   UNL     1      -1.349  11.517  21.577  0.00  0.00    +0.000 A 
ATOM     14  C   UNL     1      -1.674  11.532  22.947  0.00  0.00    +0.000 A 
ATOM     15  C   UNL     1      -2.623  12.415  23.466  0.00  0.00    +0.000 A 
ATOM     16  C   UNL     1      -3.257  13.324  22.628  0.00  0.00    +0.000 A 
ATOM     17  C   UNL     1      -2.933  13.354  21.273  0.00  0.00    +0.000 A 
ATOM     18  C   UNL     1      -1.990  12.459  20.754  0.00  0.00    +0.000 A 
ENDBRANCH  10  13
ENDBRANCH   3   7
BRANCH   1  19
ATOM     19  C   UNL     1       4.478   5.990  17.052  0.00  0.00    +0.000 C 
BRANCH  19  26
ATOM     20  C   UNL     1       6.780   5.073  16.949  0.00  0.00    +0.000 C 
ATOM     21  C   UNL     1       6.984   5.035  15.410  0.00  0.00    +0.000 C 
ATOM     22  O   UNL     1       7.838   5.694  14.813  0.00  0.00    +0.000 OA
ATOM     23  N   UNL     1       6.243   4.129  14.696  0.00  0.00    +0.000 N 
ATOM     24  C   UNL     1       4.983   3.610  15.185  0.00  0.00    +0.000 C 
ATOM     25  C   UNL     1       4.910   3.576  16.718  0.00  0.00    +0.000 C 
ATOM     26  N   UNL     1       5.352   4.836  17.361  0.00  0.00    +0.000 NA
ATOM     27  H   UNL     1       6.397   4.167  13.693  0.00  0.00    +0.000 HD
BRANCH  20  29
ATOM     28  C   UNL     1       7.905   6.187  18.970  0.00  0.00    +0.000 C 
ATOM     29  C   UNL     1       7.427   6.344  17.533  0.00  0.00    +0.000 C 
ENDBRANCH  20  29
ENDBRANCH  19  26
ENDBRANCH   1  19
TORSDOF 5
ENDMDL
