MODEL 1
REMARK VINA RESULT:      -9.2      0.000      0.000
REMARK  Name = 
REMARK  3 active torsions:
REMARK  status: ('A' for Active; 'I' for Inactive)
REMARK    1  A    between atoms: C_1  and  C_2
REMARK    2  A    between atoms: C_4  and  O_5
REMARK    3  A    between atoms: O_5  and  C_6
REMARK                            x       y       z     vdW  Elec       q    Type
REMARK                         _______ _______ _______ _____ _____    ______ ____
ROOT
ATOM      1  C   UNL     1       5.586   4.098  17.271  0.00  0.00    +0.000 C 
ATOM      2  C   UNL     1       4.608   4.779  17.883  0.00  0.00    +0.000 C 
ATOM      3  C   UNL     1       4.985   5.504  19.124  0.00  0.00    +0.000 C 
ATOM      4  O   UNL     1       6.055   5.446  19.700  0.00  0.00    +0.000 OA
ATOM      5  O   UNL     1       3.948   6.313  19.463  0.00  0.00    +0.000 OA
ATOM      6  C   UNL     1       2.767   5.803  18.859  0.00  0.00    +0.000 C 
ATOM      7  C   UNL     1       2.225   4.685  19.711  0.00  0.00    +0.000 A 
ATOM      8  C   UNL     1       2.136   4.627  21.091  0.00  0.00    +0.000 A 
ATOM      9  C   UNL     1       1.802   3.404  21.674  0.00  0.00    +0.000 A 
ATOM     10  C   UNL     1       1.521   2.284  20.874  0.00  0.00    +0.000 A 
ATOM     11  C   UNL     1       1.569   2.366  19.484  0.00  0.00    +0.000 A 
ATOM     12  C   UNL     1       1.942   3.571  18.909  0.00  0.00    +0.000 A 
ATOM     13  C   UNL     1       2.181   3.895  17.459  0.00  0.00    +0.000 C 
ATOM     14  C   UNL     1       3.174   5.072  17.566  0.00  0.00    +0.000 C 
ENDROOT
BRANCH   1  15
ATOM     15  O   UNL     1       5.497   3.481  16.049  0.00  0.00    +0.000 OA
BRANCH  15  19
ATOM     16  C   UNL     1       7.112   3.872  11.638  0.00  0.00    +0.000 C 
ATOM     17  C   UNL     1       6.644   4.191  13.001  0.00  0.00    +0.000 C 
ATOM     18  C   UNL     1       5.567   3.789  13.675  0.00  0.00    +0.000 C 
ATOM     19  C   UNL     1       5.498   4.455  14.992  0.00  0.00    +0.000 C 
ATOM     20  O   UNL     1       6.658   5.280  15.035  0.00  0.00    +0.000 OA
ATOM     21  C   UNL     1       7.360   5.118  13.885  0.00  0.00    +0.000 C 
ATOM     22  O   UNL     1       8.410   5.672  13.615  0.00  0.00    +0.000 OA
ENDBRANCH  15  19
ENDBRANCH   1  15
TORSDOF 2
ENDMDL
MODEL 2
REMARK VINA RESULT:      -8.6      2.186      3.261
REMARK  Name = 
REMARK  3 active torsions:
REMARK  status: ('A' for Active; 'I' for Inactive)
REMARK    1  A    between atoms: C_1  and  C_2
REMARK    2  A    between atoms: C_4  and  O_5
REMARK    3  A    between atoms: O_5  and  C_6
REMARK                            x       y       z     vdW  Elec       q    Type
REMARK                         _______ _______ _______ _____ _____    ______ ____
ROOT
ATOM      1  C   UNL     1       4.815   5.179  16.858  0.00  0.00    +0.000 C 
ATOM      2  C   UNL     1       3.576   4.813  17.212  0.00  0.00    +0.000 C 
ATOM      3  C   UNL     1       2.723   5.868  17.819  0.00  0.00    +0.000 C 
ATOM      4  O   UNL     1       3.073   6.989  18.134  0.00  0.00    +0.000 OA
ATOM      5  O   UNL     1       1.455   5.386  17.888  0.00  0.00    +0.000 OA
ATOM      6  C   UNL     1       1.513   3.967  17.858  0.00  0.00    +0.000 C 
ATOM      7  C   UNL     1       1.823   3.461  19.244  0.00  0.00    +0.000 A 
ATOM      8  C   UNL     1       1.315   3.906  20.451  0.00  0.00    +0.000 A 
ATOM      9  C   UNL     1       1.909   3.437  21.623  0.00  0.00    +0.000 A 
ATOM     10  C   UNL     1       2.958   2.505  21.570  0.00  0.00    +0.000 A 
ATOM     11  C   UNL     1       3.431   2.028  20.349  0.00  0.00    +0.000 A 
ATOM     12  C   UNL     1       2.867   2.527  19.185  0.00  0.00    +0.000 A 
ATOM     13  C   UNL     1       3.263   2.272  17.756  0.00  0.00    +0.000 C 
ATOM     14  C   UNL     1       2.768   3.561  17.065  0.00  0.00    +0.000 C 
ENDROOT
BRANCH   1  15
ATOM     15  O   UNL     1       5.714   4.415  16.158  0.00  0.00    +0.000 OA
BRANCH  15  19
ATOM     16  C   UNL     1       8.210   5.880  19.879  0.00  0.00    +0.000 C 
ATOM     17  C   UNL     1       7.736   5.657  18.499  0.00  0.00    +0.000 C 
ATOM     18  C   UNL     1       7.396   4.539  17.858  0.00  0.00    +0.000 C 
ATOM     19  C   UNL     1       7.059   4.828  16.450  0.00  0.00    +0.000 C 
ATOM     20  O   UNL     1       7.218   6.238  16.327  0.00  0.00    +0.000 OA
ATOM     21  C   UNL     1       7.589   6.748  17.529  0.00  0.00    +0.000 C 
ATOM     22  O   UNL     1       7.791   7.925  17.763  0.00  0.00    +0.000 OA
ENDBRANCH  15  19
ENDBRANCH   1  15
TORSDOF 2
ENDMDL
MODEL 3
REMARK VINA RESULT:      -8.4      1.084      1.331
REMARK  Name = 
REMARK  3 active torsions:
REMARK  status: ('A' for Active; 'I' for Inactive)
REMARK    1  A    between atoms: C_1  and  C_2
REMARK    2  A    between atoms: C_4  and  O_5
REMARK    3  A    between atoms: O_5  and  C_6
REMARK                            x       y       z     vdW  Elec       q    Type
REMARK                         _______ _______ _______ _____ _____    ______ ____
ROOT
ATOM      1  C   UNL     1       5.104   4.603  17.080  0.00  0.00    +0.000 C 
ATOM      2  C   UNL     1       4.219   5.168  17.911  0.00  0.00    +0.000 C 
ATOM      3  C   UNL     1       4.728   5.564  19.250  0.00  0.00    +0.000 C 
ATOM      4  O   UNL     1       5.829   5.321  19.707  0.00  0.00    +0.000 OA
ATOM      5  O   UNL     1       3.773   6.320  19.850  0.00  0.00    +0.000 OA
ATOM      6  C   UNL     1       2.522   6.023  19.246  0.00  0.00    +0.000 C 
ATOM      7  C   UNL     1       1.968   4.764  19.861  0.00  0.00    +0.000 A 
ATOM      8  C   UNL     1       1.971   4.390  21.193  0.00  0.00    +0.000 A 
ATOM      9  C   UNL     1       1.598   3.082  21.505  0.00  0.00    +0.000 A 
ATOM     10  C   UNL     1       1.189   2.195  20.497  0.00  0.00    +0.000 A 
ATOM     11  C   UNL     1       1.145   2.597  19.163  0.00  0.00    +0.000 A 
ATOM     12  C   UNL     1       1.556   3.884  18.851  0.00  0.00    +0.000 A 
ATOM     13  C   UNL     1       1.714   4.525  17.500  0.00  0.00    +0.000 C 
ATOM     14  C   UNL     1       2.789   5.596  17.791  0.00  0.00    +0.000 C 
ENDROOT
BRANCH   1  15
ATOM     15  O   UNL     1       4.889   4.294  15.761  0.00  0.00    +0.000 OA
BRANCH  15  19
ATOM     16  C   UNL     1       8.236   5.750  12.778  0.00  0.00    +0.000 C 
ATOM     17  C   UNL     1       7.313   4.899  13.555  0.00  0.00    +0.000 C 
ATOM     18  C   UNL     1       7.029   4.874  14.856  0.00  0.00    +0.000 C 
ATOM     19  C   UNL     1       6.089   3.777  15.164  0.00  0.00    +0.000 C 
ATOM     20  O   UNL     1       5.831   3.165  13.904  0.00  0.00    +0.000 OA
ATOM     21  C   UNL     1       6.520   3.828  12.941  0.00  0.00    +0.000 C 
ATOM     22  O   UNL     1       6.503   3.563  11.752  0.00  0.00    +0.000 OA
ENDBRANCH  15  19
ENDBRANCH   1  15
TORSDOF 2
ENDMDL
MODEL 4
REMARK VINA RESULT:      -8.4      1.271      1.753
REMARK  Name = 
REMARK  3 active torsions:
REMARK  status: ('A' for Active; 'I' for Inactive)
REMARK    1  A    between atoms: C_1  and  C_2
REMARK    2  A    between atoms: C_4  and  O_5
REMARK    3  A    between atoms: O_5  and  C_6
REMARK                            x       y       z     vdW  Elec       q    Type
REMARK                         _______ _______ _______ _____ _____    ______ ____
ROOT
ATOM      1  C   UNL     1       4.681   5.628  17.327  0.00  0.00    +0.000 C 
ATOM      2  C   UNL     1       3.463   5.120  17.554  0.00  0.00    +0.000 C 
ATOM      3  C   UNL     1       2.480   6.025  18.205  0.00  0.00    +0.000 C 
ATOM      4  O   UNL     1       2.704   7.132  18.657  0.00  0.00    +0.000 OA
ATOM      5  O   UNL     1       1.261   5.431  18.136  0.00  0.00    +0.000 OA
ATOM      6  C   UNL     1       1.453   4.034  17.965  0.00  0.00    +0.000 C 
ATOM      7  C   UNL     1       1.725   3.409  19.310  0.00  0.00    +0.000 A 
ATOM      8  C   UNL     1       1.106   3.676  20.518  0.00  0.00    +0.000 A 
ATOM      9  C   UNL     1       1.669   3.135  21.675  0.00  0.00    +0.000 A 
ATOM     10  C   UNL     1       2.802   2.309  21.599  0.00  0.00    +0.000 A 
ATOM     11  C   UNL     1       3.390   2.009  20.372  0.00  0.00    +0.000 A 
ATOM     12  C   UNL     1       2.853   2.581  19.228  0.00  0.00    +0.000 A 
ATOM     13  C   UNL     1       3.356   2.517  17.812  0.00  0.00    +0.000 C 
ATOM     14  C   UNL     1       2.785   3.826  17.224  0.00  0.00    +0.000 C 
ENDROOT
BRANCH   1  15
ATOM     15  O   UNL     1       5.688   5.025  16.617  0.00  0.00    +0.000 OA
BRANCH  15  19
ATOM     16  C   UNL     1       6.566   3.239  12.344  0.00  0.00    +0.000 C 
ATOM     17  C   UNL     1       6.399   4.174  13.475  0.00  0.00    +0.000 C 
ATOM     18  C   UNL     1       5.402   4.330  14.343  0.00  0.00    +0.000 C 
ATOM     19  C   UNL     1       5.672   5.465  15.250  0.00  0.00    +0.000 C 
ATOM     20  O   UNL     1       6.945   5.953  14.838  0.00  0.00    +0.000 OA
ATOM     21  C   UNL     1       7.402   5.191  13.812  0.00  0.00    +0.000 C 
ATOM     22  O   UNL     1       8.469   5.338  13.244  0.00  0.00    +0.000 OA
ENDBRANCH  15  19
ENDBRANCH   1  15
TORSDOF 2
ENDMDL
MODEL 5
REMARK VINA RESULT:      -8.2      0.935      1.074
REMARK  Name = 
REMARK  3 active torsions:
REMARK  status: ('A' for Active; 'I' for Inactive)
REMARK    1  A    between atoms: C_1  and  C_2
REMARK    2  A    between atoms: C_4  and  O_5
REMARK    3  A    between atoms: O_5  and  C_6
REMARK                            x       y       z     vdW  Elec       q    Type
REMARK                         _______ _______ _______ _____ _____    ______ ____
ROOT
ATOM      1  C   UNL     1       5.833   4.069  17.221  0.00  0.00    +0.000 C 
ATOM      2  C   UNL     1       4.809   4.740  17.762  0.00  0.00    +0.000 C 
ATOM      3  C   UNL     1       5.111   5.541  18.977  0.00  0.00    +0.000 C 
ATOM      4  O   UNL     1       6.160   5.555  19.592  0.00  0.00    +0.000 OA
ATOM      5  O   UNL     1       4.032   6.324  19.237  0.00  0.00    +0.000 OA
ATOM      6  C   UNL     1       2.895   5.737  18.619  0.00  0.00    +0.000 C 
ATOM      7  C   UNL     1       2.365   4.643  19.509  0.00  0.00    +0.000 A 
ATOM      8  C   UNL     1       2.227   4.651  20.886  0.00  0.00    +0.000 A 
ATOM      9  C   UNL     1       1.919   3.446  21.519  0.00  0.00    +0.000 A 
ATOM     10  C   UNL     1       1.711   2.277  20.769  0.00  0.00    +0.000 A 
ATOM     11  C   UNL     1       1.807   2.291  19.379  0.00  0.00    +0.000 A 
ATOM     12  C   UNL     1       2.154   3.480  18.756  0.00  0.00    +0.000 A 
ATOM     13  C   UNL     1       2.434   3.739  17.301  0.00  0.00    +0.000 C 
ATOM     14  C   UNL     1       3.377   4.959  17.381  0.00  0.00    +0.000 C 
ENDROOT
BRANCH   1  15
ATOM     15  O   UNL     1       5.813   3.388  16.030  0.00  0.00    +0.000 OA
BRANCH  15  19
ATOM     16  C   UNL     1       4.420   3.393  11.527  0.00  0.00    +0.000 C 
ATOM     17  C   UNL     1       5.122   3.712  12.786  0.00  0.00    +0.000 C 
ATOM     18  C   UNL     1       4.659   3.957  14.010  0.00  0.00    +0.000 C 
ATOM     19  C   UNL     1       5.764   4.306  14.926  0.00  0.00    +0.000 C 
ATOM     20  O   UNL     1       6.934   4.224  14.118  0.00  0.00    +0.000 OA
ATOM     21  C   UNL     1       6.581   3.850  12.863  0.00  0.00    +0.000 C 
ATOM     22  O   UNL     1       7.350   3.675  11.936  0.00  0.00    +0.000 OA
ENDBRANCH  15  19
ENDBRANCH   1  15
TORSDOF 2
ENDMDL
MODEL 6
REMARK VINA RESULT:      -7.8      2.733      5.948
REMARK  Name = 
REMARK  3 active torsions:
REMARK  status: ('A' for Active; 'I' for Inactive)
REMARK    1  A    between atoms: C_1  and  C_2
REMARK    2  A    between atoms: C_4  and  O_5
REMARK    3  A    between atoms: O_5  and  C_6
REMARK                            x       y       z     vdW  Elec       q    Type
REMARK                         _______ _______ _______ _____ _____    ______ ____
ROOT
ATOM      1  C   UNL     1       3.870   7.088  17.396  0.00  0.00    +0.000 C 
ATOM      2  C   UNL     1       4.271   5.947  17.971  0.00  0.00    +0.000 C 
ATOM      3  C   UNL     1       4.845   4.917  17.067  0.00  0.00    +0.000 C 
ATOM      4  O   UNL     1       4.879   4.958  15.851  0.00  0.00    +0.000 OA
ATOM      5  O   UNL     1       5.403   3.951  17.841  0.00  0.00    +0.000 OA
ATOM      6  C   UNL     1       4.802   4.005  19.127  0.00  0.00    +0.000 C 
ATOM      7  C   UNL     1       3.489   3.267  19.084  0.00  0.00    +0.000 A 
ATOM      8  C   UNL     1       3.201   2.068  18.457  0.00  0.00    +0.000 A 
ATOM      9  C   UNL     1       1.862   1.683  18.366  0.00  0.00    +0.000 A 
ATOM     10  C   UNL     1       0.851   2.472  18.937  0.00  0.00    +0.000 A 
ATOM     11  C   UNL     1       1.157   3.655  19.606  0.00  0.00    +0.000 A 
ATOM     12  C   UNL     1       2.483   4.056  19.659  0.00  0.00    +0.000 A 
ATOM     13  C   UNL     1       3.065   5.329  20.211  0.00  0.00    +0.000 C 
ATOM     14  C   UNL     1       4.363   5.458  19.383  0.00  0.00    +0.000 C 
ENDROOT
BRANCH   1  15
ATOM     15  O   UNL     1       3.447   8.217  18.050  0.00  0.00    +0.000 OA
BRANCH  15  19
ATOM     16  C   UNL     1      -0.169  11.180  18.652  0.00  0.00    +0.000 C 
ATOM     17  C   UNL     1       0.707   9.993  18.715  0.00  0.00    +0.000 C 
ATOM     18  C   UNL     1       1.342   9.321  17.757  0.00  0.00    +0.000 C 
ATOM     19  C   UNL     1       2.037   8.144  18.318  0.00  0.00    +0.000 C 
ATOM     20  O   UNL     1       1.761   8.201  19.714  0.00  0.00    +0.000 OA
ATOM     21  C   UNL     1       1.002   9.296  19.972  0.00  0.00    +0.000 C 
ATOM     22  O   UNL     1       0.609   9.639  21.072  0.00  0.00    +0.000 OA
ENDBRANCH  15  19
ENDBRANCH   1  15
TORSDOF 2
ENDMDL
MODEL 7
REMARK VINA RESULT:      -7.7      3.437      7.171
REMARK  Name = 
REMARK  3 active torsions:
REMARK  status: ('A' for Active; 'I' for Inactive)
REMARK    1  A    between atoms: C_1  and  C_2
REMARK    2  A    between atoms: C_4  and  O_5
REMARK    3  A    between atoms: O_5  and  C_6
REMARK                            x       y       z     vdW  Elec       q    Type
REMARK                         _______ _______ _______ _____ _____    ______ ____
ROOT
ATOM      1  C   UNL     1       2.410   7.019  18.510  0.00  0.00    +0.000 C 
ATOM      2  C   UNL     1       3.305   6.080  18.177  0.00  0.00    +0.000 C 
ATOM      3  C   UNL     1       3.627   5.074  19.222  0.00  0.00    +0.000 C 
ATOM      4  O   UNL     1       3.253   5.087  20.380  0.00  0.00    +0.000 OA
ATOM      5  O   UNL     1       4.352   4.085  18.637  0.00  0.00    +0.000 OA
ATOM      6  C   UNL     1       4.949   4.607  17.458  0.00  0.00    +0.000 C 
ATOM      7  C   UNL     1       6.201   5.356  17.835  0.00  0.00    +0.000 A 
ATOM      8  C   UNL     1       7.168   4.999  18.758  0.00  0.00    +0.000 A 
ATOM      9  C   UNL     1       8.128   5.952  19.101  0.00  0.00    +0.000 A 
ATOM     10  C   UNL     1       8.134   7.215  18.487  0.00  0.00    +0.000 A 
ATOM     11  C   UNL     1       7.183   7.547  17.524  0.00  0.00    +0.000 A 
ATOM     12  C   UNL     1       6.205   6.614  17.216  0.00  0.00    +0.000 A 
ATOM     13  C   UNL     1       5.012   6.758  16.312  0.00  0.00    +0.000 C 
ATOM     14  C   UNL     1       4.038   5.725  16.920  0.00  0.00    +0.000 C 
ENDROOT
BRANCH   1  15
ATOM     15  O   UNL     1       1.864   7.950  17.664  0.00  0.00    +0.000 OA
BRANCH  15  19
ATOM     16  C   UNL     1      -0.267   9.651  21.509  0.00  0.00    +0.000 C 
ATOM     17  C   UNL     1       0.349   9.537  20.172  0.00  0.00    +0.000 C 
ATOM     18  C   UNL     1       1.507   9.008  19.782  0.00  0.00    +0.000 C 
ATOM     19  C   UNL     1       1.713   9.212  18.333  0.00  0.00    +0.000 C 
ATOM     20  O   UNL     1       0.544   9.902  17.902  0.00  0.00    +0.000 OA
ATOM     21  C   UNL     1      -0.283  10.080  18.963  0.00  0.00    +0.000 C 
ATOM     22  O   UNL     1      -1.371  10.623  18.926  0.00  0.00    +0.000 OA
ENDBRANCH  15  19
ENDBRANCH   1  15
TORSDOF 2
ENDMDL
MODEL 8
REMARK VINA RESULT:      -7.7      2.583      3.684
REMARK  Name = 
REMARK  3 active torsions:
REMARK  status: ('A' for Active; 'I' for Inactive)
REMARK    1  A    between atoms: C_1  and  C_2
REMARK    2  A    between atoms: C_4  and  O_5
REMARK    3  A    between atoms: O_5  and  C_6
REMARK                            x       y       z     vdW  Elec       q    Type
REMARK                         _______ _______ _______ _____ _____    ______ ____
ROOT
ATOM      1  C   UNL     1       5.621   5.475  19.287  0.00  0.00    +0.000 C 
ATOM      2  C   UNL     1       4.737   4.626  18.747  0.00  0.00    +0.000 C 
ATOM      3  C   UNL     1       3.599   5.235  18.011  0.00  0.00    +0.000 C 
ATOM      4  O   UNL     1       3.326   6.420  17.951  0.00  0.00    +0.000 OA
ATOM      5  O   UNL     1       2.956   4.242  17.345  0.00  0.00    +0.000 OA
ATOM      6  C   UNL     1       3.258   3.008  17.982  0.00  0.00    +0.000 C 
ATOM      7  C   UNL     1       2.357   2.842  19.178  0.00  0.00    +0.000 A 
ATOM      8  C   UNL     1       1.008   3.130  19.280  0.00  0.00    +0.000 A 
ATOM      9  C   UNL     1       0.428   3.103  20.550  0.00  0.00    +0.000 A 
ATOM     10  C   UNL     1       1.187   2.747  21.676  0.00  0.00    +0.000 A 
ATOM     11  C   UNL     1       2.535   2.414  21.554  0.00  0.00    +0.000 A 
ATOM     12  C   UNL     1       3.119   2.482  20.299  0.00  0.00    +0.000 A 
ATOM     13  C   UNL     1       4.560   2.289  19.913  0.00  0.00    +0.000 C 
ATOM     14  C   UNL     1       4.650   3.136  18.625  0.00  0.00    +0.000 C 
ENDROOT
BRANCH   1  15
ATOM     15  O   UNL     1       6.809   5.134  19.880  0.00  0.00    +0.000 OA
BRANCH  15  19
ATOM     16  C   UNL     1       8.153   8.943  17.449  0.00  0.00    +0.000 C 
ATOM     17  C   UNL     1       7.990   7.550  17.911  0.00  0.00    +0.000 C 
ATOM     18  C   UNL     1       8.090   7.011  19.125  0.00  0.00    +0.000 C 
ATOM     19  C   UNL     1       7.916   5.546  19.062  0.00  0.00    +0.000 C 
ATOM     20  O   UNL     1       7.685   5.274  17.683  0.00  0.00    +0.000 OA
ATOM     21  C   UNL     1       7.698   6.443  16.993  0.00  0.00    +0.000 C 
ATOM     22  O   UNL     1       7.516   6.557  15.795  0.00  0.00    +0.000 OA
ENDBRANCH  15  19
ENDBRANCH   1  15
TORSDOF 2
ENDMDL
MODEL 9
REMARK VINA RESULT:      -7.5      1.728      2.723
REMARK  Name = 
REMARK  3 active torsions:
REMARK  status: ('A' for Active; 'I' for Inactive)
REMARK    1  A    between atoms: C_1  and  C_2
REMARK    2  A    between atoms: C_4  and  O_5
REMARK    3  A    between atoms: O_5  and  C_6
REMARK                            x       y       z     vdW  Elec       q    Type
REMARK                         _______ _______ _______ _____ _____    ______ ____
ROOT
ATOM      1  C   UNL     1       4.594   3.393  16.556  0.00  0.00    +0.000 C 
ATOM      2  C   UNL     1       4.216   3.221  17.829  0.00  0.00    +0.000 C 
ATOM      3  C   UNL     1       2.967   2.447  18.049  0.00  0.00    +0.000 C 
ATOM      4  O   UNL     1       2.196   2.057  17.192  0.00  0.00    +0.000 OA
ATOM      5  O   UNL     1       2.875   2.176  19.377  0.00  0.00    +0.000 OA
ATOM      6  C   UNL     1       3.663   3.125  20.082  0.00  0.00    +0.000 C 
ATOM      7  C   UNL     1       2.869   4.396  20.245  0.00  0.00    +0.000 A 
ATOM      8  C   UNL     1       1.531   4.533  20.567  0.00  0.00    +0.000 A 
ATOM      9  C   UNL     1       0.957   5.799  20.449  0.00  0.00    +0.000 A 
ATOM     10  C   UNL     1       1.733   6.903  20.061  0.00  0.00    +0.000 A 
ATOM     11  C   UNL     1       3.091   6.761  19.784  0.00  0.00    +0.000 A 
ATOM     12  C   UNL     1       3.650   5.495  19.861  0.00  0.00    +0.000 A 
ATOM     13  C   UNL     1       5.043   5.052  19.508  0.00  0.00    +0.000 C 
ATOM     14  C   UNL     1       4.814   3.565  19.158  0.00  0.00    +0.000 C 
ENDROOT
BRANCH   1  15
ATOM     15  O   UNL     1       5.775   3.946  16.132  0.00  0.00    +0.000 OA
BRANCH  15  19
ATOM     16  C   UNL     1       6.945   3.357  11.604  0.00  0.00    +0.000 C 
ATOM     17  C   UNL     1       6.574   3.966  12.896  0.00  0.00    +0.000 C 
ATOM     18  C   UNL     1       5.604   3.669  13.760  0.00  0.00    +0.000 C 
ATOM     19  C   UNL     1       5.592   4.629  14.882  0.00  0.00    +0.000 C 
ATOM     20  O   UNL     1       6.669   5.517  14.602  0.00  0.00    +0.000 OA
ATOM     21  C   UNL     1       7.276   5.129  13.452  0.00  0.00    +0.000 C 
ATOM     22  O   UNL     1       8.242   5.670  12.946  0.00  0.00    +0.000 OA
ENDBRANCH  15  19
ENDBRANCH   1  15
TORSDOF 2
ENDMDL
