MODEL 1
REMARK VINA RESULT:      -8.1      0.000      0.000
REMARK  Name = 
REMARK  4 active torsions:
REMARK  status: ('A' for Active; 'I' for Inactive)
REMARK    1  A    between atoms: C_1  and  O_2
REMARK    2  A    between atoms: O_2  and  C_3
REMARK    3  A    between atoms: C_15  and  C_16
REMARK    4  A    between atoms: C_16  and  O_18
REMARK                            x       y       z     vdW  Elec       q    Type
REMARK                         _______ _______ _______ _____ _____    ______ ____
ROOT
ATOM      1  C   UNL     1      -0.751  11.472  21.188  0.00  0.00    +0.000 A 
ATOM      2  C   UNL     1      -0.978  11.163  22.537  0.00  0.00    +0.000 A 
ATOM      3  C   UNL     1      -0.357  10.080  23.136  0.00  0.00    +0.000 A 
ATOM      4  C   UNL     1       0.458   9.253  22.378  0.00  0.00    +0.000 A 
ATOM      5  C   UNL     1       0.635   9.470  21.002  0.00  0.00    +0.000 A 
ATOM      6  C   UNL     1       0.072  10.616  20.409  0.00  0.00    +0.000 A 
ATOM      7  C   UNL     1       0.314  10.728  18.912  0.00  0.00    +0.000 C 
ATOM      8  O   UNL     1       1.557  10.171  18.417  0.00  0.00    +0.000 OA
ATOM      9  C   UNL     1       1.762   8.884  18.853  0.00  0.00    +0.000 A 
ATOM     10  C   UNL     1       2.427   7.990  17.995  0.00  0.00    +0.000 A 
ATOM     11  C   UNL     1       2.697   6.693  18.436  0.00  0.00    +0.000 A 
ATOM     12  O   UNL     1       3.379   5.821  17.608  0.00  0.00    +0.000 OA
ATOM     13  C   UNL     1       3.737   4.577  18.136  0.00  0.00    +0.000 A 
ATOM     14  C   UNL     1       3.396   4.130  19.349  0.00  0.00    +0.000 A 
ATOM     15  C   UNL     1       2.587   4.981  20.217  0.00  0.00    +0.000 A 
ATOM     16  O   UNL     1       2.213   4.595  21.309  0.00  0.00    +0.000 OA
ATOM     17  C   UNL     1       2.280   6.319  19.708  0.00  0.00    +0.000 A 
ATOM     18  C   UNL     1       1.598   7.203  20.542  0.00  0.00    +0.000 A 
ATOM     19  C   UNL     1       1.346   8.512  20.140  0.00  0.00    +0.000 A 
ENDROOT
BRANCH   1  21
ATOM     20  C   UNL     1      -2.712  12.459  20.229  0.00  0.00    +0.000 C 
ATOM     21  O   UNL     1      -1.332  12.572  20.609  0.00  0.00    +0.000 OA
ENDBRANCH   1  21
BRANCH  13  22
ATOM     22  C   UNL     1       4.559   3.643  17.322  0.00  0.00    +0.000 C 
ATOM     23  O   UNL     1       5.252   3.974  16.377  0.00  0.00    +0.000 OA
BRANCH  22  24
ATOM     24  O   UNL     1       4.458   2.367  17.746  0.00  0.00    +0.000 OA
ATOM     25  H   UNL     1       5.303   1.881  17.697  0.00  0.00    +0.000 HD
ENDBRANCH  22  24
ENDBRANCH  13  22
TORSDOF 3
ENDMDL
MODEL 2
REMARK VINA RESULT:      -7.7      1.414      1.758
REMARK  Name = 
REMARK  4 active torsions:
REMARK  status: ('A' for Active; 'I' for Inactive)
REMARK    1  A    between atoms: C_1  and  O_2
REMARK    2  A    between atoms: O_2  and  C_3
REMARK    3  A    between atoms: C_15  and  C_16
REMARK    4  A    between atoms: C_16  and  O_18
REMARK                            x       y       z     vdW  Elec       q    Type
REMARK                         _______ _______ _______ _____ _____    ______ ____
ROOT
ATOM      1  C   UNL     1      -0.518  10.278  20.357  0.00  0.00    +0.000 A 
ATOM      2  C   UNL     1      -0.721   9.827  21.669  0.00  0.00    +0.000 A 
ATOM      3  C   UNL     1       0.104   8.867  22.230  0.00  0.00    +0.000 A 
ATOM      4  C   UNL     1       1.113   8.300  21.466  0.00  0.00    +0.000 A 
ATOM      5  C   UNL     1       1.289   8.653  20.119  0.00  0.00    +0.000 A 
ATOM      6  C   UNL     1       0.506   9.686  19.571  0.00  0.00    +0.000 A 
ATOM      7  C   UNL     1       0.773   9.960  18.099  0.00  0.00    +0.000 C 
ATOM      8  O   UNL     1       2.128   9.731  17.637  0.00  0.00    +0.000 OA
ATOM      9  C   UNL     1       2.601   8.492  18.001  0.00  0.00    +0.000 A 
ATOM     10  C   UNL     1       3.482   7.834  17.124  0.00  0.00    +0.000 A 
ATOM     11  C   UNL     1       4.020   6.601  17.495  0.00  0.00    +0.000 A 
ATOM     12  O   UNL     1       4.911   5.966  16.651  0.00  0.00    +0.000 OA
ATOM     13  C   UNL     1       5.519   4.796  17.117  0.00  0.00    +0.000 A 
ATOM     14  C   UNL     1       5.242   4.196  18.278  0.00  0.00    +0.000 A 
ATOM     15  C   UNL     1       4.230   4.779  19.155  0.00  0.00    +0.000 A 
ATOM     16  O   UNL     1       3.911   4.240  20.199  0.00  0.00    +0.000 OA
ATOM     17  C   UNL     1       3.649   6.050  18.717  0.00  0.00    +0.000 A 
ATOM     18  C   UNL     1       2.755   6.696  19.568  0.00  0.00    +0.000 A 
ATOM     19  C   UNL     1       2.230   7.943  19.237  0.00  0.00    +0.000 A 
ENDROOT
BRANCH   1  21
ATOM     20  C   UNL     1      -1.102  12.600  20.298  0.00  0.00    +0.000 C 
ATOM     21  O   UNL     1      -1.309  11.262  19.820  0.00  0.00    +0.000 OA
ENDBRANCH   1  21
BRANCH  13  22
ATOM     22  C   UNL     1       6.561   4.131  16.291  0.00  0.00    +0.000 C 
ATOM     23  O   UNL     1       7.741   4.434  16.288  0.00  0.00    +0.000 OA
BRANCH  22  24
ATOM     24  O   UNL     1       6.056   3.139  15.530  0.00  0.00    +0.000 OA
ATOM     25  H   UNL     1       6.078   2.270  15.974  0.00  0.00    +0.000 HD
ENDBRANCH  22  24
ENDBRANCH  13  22
TORSDOF 3
ENDMDL
MODEL 3
REMARK VINA RESULT:      -7.6      0.850      1.079
REMARK  Name = 
REMARK  4 active torsions:
REMARK  status: ('A' for Active; 'I' for Inactive)
REMARK    1  A    between atoms: C_1  and  O_2
REMARK    2  A    between atoms: O_2  and  C_3
REMARK    3  A    between atoms: C_15  and  C_16
REMARK    4  A    between atoms: C_16  and  O_18
REMARK                            x       y       z     vdW  Elec       q    Type
REMARK                         _______ _______ _______ _____ _____    ______ ____
ROOT
ATOM      1  C   UNL     1      -0.276  11.341  21.089  0.00  0.00    +0.000 A 
ATOM      2  C   UNL     1      -0.574  11.112  22.440  0.00  0.00    +0.000 A 
ATOM      3  C   UNL     1      -0.109   9.984  23.093  0.00  0.00    +0.000 A 
ATOM      4  C   UNL     1       0.618   9.037  22.389  0.00  0.00    +0.000 A 
ATOM      5  C   UNL     1       0.857   9.179  21.013  0.00  0.00    +0.000 A 
ATOM      6  C   UNL     1       0.455  10.362  20.365  0.00  0.00    +0.000 A 
ATOM      7  C   UNL     1       0.749  10.388  18.873  0.00  0.00    +0.000 C 
ATOM      8  O   UNL     1       1.926   9.665  18.436  0.00  0.00    +0.000 OA
ATOM      9  C   UNL     1       1.959   8.380  18.921  0.00  0.00    +0.000 A 
ATOM     10  C   UNL     1       2.531   7.379  18.114  0.00  0.00    +0.000 A 
ATOM     11  C   UNL     1       2.627   6.077  18.606  0.00  0.00    +0.000 A 
ATOM     12  O   UNL     1       3.217   5.098  17.829  0.00  0.00    +0.000 OA
ATOM     13  C   UNL     1       3.405   3.840  18.410  0.00  0.00    +0.000 A 
ATOM     14  C   UNL     1       2.979   3.483  19.625  0.00  0.00    +0.000 A 
ATOM     15  C   UNL     1       2.259   4.458  20.439  0.00  0.00    +0.000 A 
ATOM     16  O   UNL     1       1.812   4.162  21.532  0.00  0.00    +0.000 OA
ATOM     17  C   UNL     1       2.134   5.804  19.877  0.00  0.00    +0.000 A 
ATOM     18  C   UNL     1       1.544   6.795  20.660  0.00  0.00    +0.000 A 
ATOM     19  C   UNL     1       1.466   8.110  20.206  0.00  0.00    +0.000 A 
ENDROOT
BRANCH   1  21
ATOM     20  C   UNL     1      -0.079  13.716  20.848  0.00  0.00    +0.000 C 
ATOM     21  O   UNL     1      -0.700  12.482  20.456  0.00  0.00    +0.000 OA
ENDBRANCH   1  21
BRANCH  13  22
ATOM     22  C   UNL     1       4.126   2.783  17.653  0.00  0.00    +0.000 C 
ATOM     23  O   UNL     1       3.854   1.596  17.690  0.00  0.00    +0.000 OA
BRANCH  22  24
ATOM     24  O   UNL     1       5.132   3.282  16.907  0.00  0.00    +0.000 OA
ATOM     25  H   UNL     1       6.006   2.926  17.159  0.00  0.00    +0.000 HD
ENDBRANCH  22  24
ENDBRANCH  13  22
TORSDOF 3
ENDMDL
MODEL 4
REMARK VINA RESULT:      -7.6      1.712      7.308
REMARK  Name = 
REMARK  4 active torsions:
REMARK  status: ('A' for Active; 'I' for Inactive)
REMARK    1  A    between atoms: C_1  and  O_2
REMARK    2  A    between atoms: O_2  and  C_3
REMARK    3  A    between atoms: C_15  and  C_16
REMARK    4  A    between atoms: C_16  and  O_18
REMARK                            x       y       z     vdW  Elec       q    Type
REMARK                         _______ _______ _______ _____ _____    ______ ____
ROOT
ATOM      1  C   UNL     1       3.551   2.949  19.946  0.00  0.00    +0.000 A 
ATOM      2  C   UNL     1       2.900   2.525  21.114  0.00  0.00    +0.000 A 
ATOM      3  C   UNL     1       1.939   3.315  21.722  0.00  0.00    +0.000 A 
ATOM      4  C   UNL     1       1.655   4.569  21.203  0.00  0.00    +0.000 A 
ATOM      5  C   UNL     1       2.352   5.071  20.093  0.00  0.00    +0.000 A 
ATOM      6  C   UNL     1       3.270   4.239  19.424  0.00  0.00    +0.000 A 
ATOM      7  C   UNL     1       3.977   4.903  18.253  0.00  0.00    +0.000 C 
ATOM      8  O   UNL     1       3.222   5.907  17.530  0.00  0.00    +0.000 OA
ATOM      9  C   UNL     1       2.669   6.846  18.367  0.00  0.00    +0.000 A 
ATOM     10  C   UNL     1       2.558   8.168  17.900  0.00  0.00    +0.000 A 
ATOM     11  C   UNL     1       1.949   9.130  18.709  0.00  0.00    +0.000 A 
ATOM     12  O   UNL     1       1.808  10.422  18.241  0.00  0.00    +0.000 OA
ATOM     13  C   UNL     1       1.083  11.319  19.032  0.00  0.00    +0.000 A 
ATOM     14  C   UNL     1       0.590  11.049  20.244  0.00  0.00    +0.000 A 
ATOM     15  C   UNL     1       0.806   9.725  20.820  0.00  0.00    +0.000 A 
ATOM     16  O   UNL     1       0.416   9.451  21.940  0.00  0.00    +0.000 OA
ATOM     17  C   UNL     1       1.488   8.751  19.965  0.00  0.00    +0.000 A 
ATOM     18  C   UNL     1       1.627   7.445  20.431  0.00  0.00    +0.000 A 
ATOM     19  C   UNL     1       2.200   6.460  19.631  0.00  0.00    +0.000 A 
ENDROOT
BRANCH   1  21
ATOM     20  C   UNL     1       3.958   1.116  18.459  0.00  0.00    +0.000 C 
ATOM     21  O   UNL     1       4.470   2.144  19.320  0.00  0.00    +0.000 OA
ENDBRANCH   1  21
BRANCH  13  22
ATOM     22  C   UNL     1       0.815  12.692  18.527  0.00  0.00    +0.000 C 
ATOM     23  O   UNL     1      -0.180  13.344  18.789  0.00  0.00    +0.000 OA
BRANCH  22  24
ATOM     24  O   UNL     1       1.805  13.149  17.735  0.00  0.00    +0.000 OA
ATOM     25  H   UNL     1       1.555  13.950  17.236  0.00  0.00    +0.000 HD
ENDBRANCH  22  24
ENDBRANCH  13  22
TORSDOF 3
ENDMDL
MODEL 5
REMARK VINA RESULT:      -7.5      1.553      2.199
REMARK  Name = 
REMARK  4 active torsions:
REMARK  status: ('A' for Active; 'I' for Inactive)
REMARK    1  A    between atoms: C_1  and  O_2
REMARK    2  A    between atoms: O_2  and  C_3
REMARK    3  A    between atoms: C_15  and  C_16
REMARK    4  A    between atoms: C_16  and  O_18
REMARK                            x       y       z     vdW  Elec       q    Type
REMARK                         _______ _______ _______ _____ _____    ______ ____
ROOT
ATOM      1  C   UNL     1       0.300  10.608  19.736  0.00  0.00    +0.000 A 
ATOM      2  C   UNL     1      -0.286  10.721  21.005  0.00  0.00    +0.000 A 
ATOM      3  C   UNL     1      -0.060   9.767  21.984  0.00  0.00    +0.000 A 
ATOM      4  C   UNL     1       0.712   8.654  21.689  0.00  0.00    +0.000 A 
ATOM      5  C   UNL     1       1.236   8.453  20.402  0.00  0.00    +0.000 A 
ATOM      6  C   UNL     1       1.077   9.460  19.431  0.00  0.00    +0.000 A 
ATOM      7  C   UNL     1       1.669   9.116  18.072  0.00  0.00    +0.000 C 
ATOM      8  O   UNL     1       2.845   8.269  18.078  0.00  0.00    +0.000 OA
ATOM      9  C   UNL     1       2.670   7.138  18.838  0.00  0.00    +0.000 A 
ATOM     10  C   UNL     1       3.306   5.954  18.424  0.00  0.00    +0.000 A 
ATOM     11  C   UNL     1       3.190   4.805  19.208  0.00  0.00    +0.000 A 
ATOM     12  O   UNL     1       3.841   3.649  18.821  0.00  0.00    +0.000 OA
ATOM     13  C   UNL     1       3.799   2.561  19.699  0.00  0.00    +0.000 A 
ATOM     14  C   UNL     1       3.106   2.522  20.842  0.00  0.00    +0.000 A 
ATOM     15  C   UNL     1       2.321   3.688  21.236  0.00  0.00    +0.000 A 
ATOM     16  O   UNL     1       1.638   3.678  22.243  0.00  0.00    +0.000 OA
ATOM     17  C   UNL     1       2.427   4.863  20.368  0.00  0.00    +0.000 A 
ATOM     18  C   UNL     1       1.777   6.032  20.758  0.00  0.00    +0.000 A 
ATOM     19  C   UNL     1       1.905   7.201  20.012  0.00  0.00    +0.000 A 
ENDROOT
BRANCH   1  21
ATOM     20  C   UNL     1      -1.228  11.768  18.302  0.00  0.00    +0.000 C 
ATOM     21  O   UNL     1       0.111  11.577  18.784  0.00  0.00    +0.000 OA
ENDBRANCH   1  21
BRANCH  13  22
ATOM     22  C   UNL     1       4.567   1.329  19.378  0.00  0.00    +0.000 C 
ATOM     23  O   UNL     1       5.368   0.798  20.127  0.00  0.00    +0.000 OA
BRANCH  22  24
ATOM     24  O   UNL     1       4.280   0.850  18.151  0.00  0.00    +0.000 OA
ATOM     25  H   UNL     1       4.070   1.554  17.507  0.00  0.00    +0.000 HD
ENDBRANCH  22  24
ENDBRANCH  13  22
TORSDOF 3
ENDMDL
MODEL 6
REMARK VINA RESULT:      -7.5      1.604      7.516
REMARK  Name = 
REMARK  4 active torsions:
REMARK  status: ('A' for Active; 'I' for Inactive)
REMARK    1  A    between atoms: C_1  and  O_2
REMARK    2  A    between atoms: O_2  and  C_3
REMARK    3  A    between atoms: C_15  and  C_16
REMARK    4  A    between atoms: C_16  and  O_18
REMARK                            x       y       z     vdW  Elec       q    Type
REMARK                         _______ _______ _______ _____ _____    ______ ____
ROOT
ATOM      1  C   UNL     1       4.873   4.625  18.233  0.00  0.00    +0.000 A 
ATOM      2  C   UNL     1       4.564   3.706  19.247  0.00  0.00    +0.000 A 
ATOM      3  C   UNL     1       3.493   3.916  20.099  0.00  0.00    +0.000 A 
ATOM      4  C   UNL     1       2.748   5.080  19.987  0.00  0.00    +0.000 A 
ATOM      5  C   UNL     1       3.082   6.070  19.051  0.00  0.00    +0.000 A 
ATOM      6  C   UNL     1       4.118   5.823  18.130  0.00  0.00    +0.000 A 
ATOM      7  C   UNL     1       4.401   6.978  17.182  0.00  0.00    +0.000 C 
ATOM      8  O   UNL     1       3.267   7.806  16.820  0.00  0.00    +0.000 OA
ATOM      9  C   UNL     1       2.561   8.233  17.919  0.00  0.00    +0.000 A 
ATOM     10  C   UNL     1       1.963   9.505  17.871  0.00  0.00    +0.000 A 
ATOM     11  C   UNL     1       1.194   9.940  18.952  0.00  0.00    +0.000 A 
ATOM     12  O   UNL     1       0.577  11.175  18.895  0.00  0.00    +0.000 OA
ATOM     13  C   UNL     1      -0.282  11.516  19.944  0.00  0.00    +0.000 A 
ATOM     14  C   UNL     1      -0.487  10.779  21.040  0.00  0.00    +0.000 A 
ATOM     15  C   UNL     1       0.225   9.513  21.187  0.00  0.00    +0.000 A 
ATOM     16  O   UNL     1       0.106   8.833  22.190  0.00  0.00    +0.000 OA
ATOM     17  C   UNL     1       1.061   9.105  20.056  0.00  0.00    +0.000 A 
ATOM     18  C   UNL     1       1.680   7.858  20.107  0.00  0.00    +0.000 A 
ATOM     19  C   UNL     1       2.424   7.386  19.029  0.00  0.00    +0.000 A 
ENDROOT
BRANCH   1  21
ATOM     20  C   UNL     1       7.234   4.666  17.832  0.00  0.00    +0.000 C 
ATOM     21  O   UNL     1       5.906   4.391  17.361  0.00  0.00    +0.000 OA
ENDBRANCH   1  21
BRANCH  13  22
ATOM     22  C   UNL     1      -1.049  12.788  19.881  0.00  0.00    +0.000 C 
ATOM     23  O   UNL     1      -1.294  13.497  20.841  0.00  0.00    +0.000 OA
BRANCH  22  24
ATOM     24  O   UNL     1      -1.452  13.083  18.629  0.00  0.00    +0.000 OA
ATOM     25  H   UNL     1      -1.629  14.034  18.500  0.00  0.00    +0.000 HD
ENDBRANCH  22  24
ENDBRANCH  13  22
TORSDOF 3
ENDMDL
MODEL 7
REMARK VINA RESULT:      -7.4      1.532      2.969
REMARK  Name = 
REMARK  4 active torsions:
REMARK  status: ('A' for Active; 'I' for Inactive)
REMARK    1  A    between atoms: C_1  and  O_2
REMARK    2  A    between atoms: O_2  and  C_3
REMARK    3  A    between atoms: C_15  and  C_16
REMARK    4  A    between atoms: C_16  and  O_18
REMARK                            x       y       z     vdW  Elec       q    Type
REMARK                         _______ _______ _______ _____ _____    ______ ____
ROOT
ATOM      1  C   UNL     1       0.673  11.391  20.556  0.00  0.00    +0.000 A 
ATOM      2  C   UNL     1       0.939  12.116  19.386  0.00  0.00    +0.000 A 
ATOM      3  C   UNL     1       1.387  11.483  18.239  0.00  0.00    +0.000 A 
ATOM      4  C   UNL     1       1.630  10.118  18.262  0.00  0.00    +0.000 A 
ATOM      5  C   UNL     1       1.469   9.371  19.439  0.00  0.00    +0.000 A 
ATOM      6  C   UNL     1       0.937   9.996  20.583  0.00  0.00    +0.000 A 
ATOM      7  C   UNL     1       0.832   9.090  21.800  0.00  0.00    +0.000 C 
ATOM      8  O   UNL     1       0.583   7.686  21.537  0.00  0.00    +0.000 OA
ATOM      9  C   UNL     1       1.454   7.166  20.610  0.00  0.00    +0.000 A 
ATOM     10  C   UNL     1       1.849   5.824  20.750  0.00  0.00    +0.000 A 
ATOM     11  C   UNL     1       2.689   5.255  19.791  0.00  0.00    +0.000 A 
ATOM     12  O   UNL     1       3.053   3.927  19.907  0.00  0.00    +0.000 OA
ATOM     13  C   UNL     1       3.792   3.367  18.860  0.00  0.00    +0.000 A 
ATOM     14  C   UNL     1       4.248   4.036  17.797  0.00  0.00    +0.000 A 
ATOM     15  C   UNL     1       3.972   5.466  17.688  0.00  0.00    +0.000 A 
ATOM     16  O   UNL     1       4.409   6.125  16.762  0.00  0.00    +0.000 OA
ATOM     17  C   UNL     1       3.126   6.044  18.734  0.00  0.00    +0.000 A 
ATOM     18  C   UNL     1       2.752   7.382  18.617  0.00  0.00    +0.000 A 
ATOM     19  C   UNL     1       1.888   7.963  19.541  0.00  0.00    +0.000 A 
ENDROOT
BRANCH   1  21
ATOM     20  C   UNL     1      -1.157  12.519  21.613  0.00  0.00    +0.000 C 
ATOM     21  O   UNL     1       0.186  12.015  21.677  0.00  0.00    +0.000 OA
ENDBRANCH   1  21
BRANCH  13  22
ATOM     22  C   UNL     1       4.121   1.917  18.888  0.00  0.00    +0.000 C 
ATOM     23  O   UNL     1       3.607   1.076  18.172  0.00  0.00    +0.000 OA
BRANCH  22  24
ATOM     24  O   UNL     1       5.066   1.623  19.804  0.00  0.00    +0.000 OA
ATOM     25  H   UNL     1       5.947   1.974  19.568  0.00  0.00    +0.000 HD
ENDBRANCH  22  24
ENDBRANCH  13  22
TORSDOF 3
ENDMDL
MODEL 8
REMARK VINA RESULT:      -7.3      1.324      1.604
REMARK  Name = 
REMARK  4 active torsions:
REMARK  status: ('A' for Active; 'I' for Inactive)
REMARK    1  A    between atoms: C_1  and  O_2
REMARK    2  A    between atoms: O_2  and  C_3
REMARK    3  A    between atoms: C_15  and  C_16
REMARK    4  A    between atoms: C_16  and  O_18
REMARK                            x       y       z     vdW  Elec       q    Type
REMARK                         _______ _______ _______ _____ _____    ______ ____
ROOT
ATOM      1  C   UNL     1      -0.067  10.873  20.657  0.00  0.00    +0.000 A 
ATOM      2  C   UNL     1      -0.435  10.867  22.010  0.00  0.00    +0.000 A 
ATOM      3  C   UNL     1      -0.049   9.836  22.850  0.00  0.00    +0.000 A 
ATOM      4  C   UNL     1       0.665   8.765  22.336  0.00  0.00    +0.000 A 
ATOM      5  C   UNL     1       0.971   8.685  20.969  0.00  0.00    +0.000 A 
ATOM      6  C   UNL     1       0.652   9.769  20.128  0.00  0.00    +0.000 A 
ATOM      7  C   UNL     1       1.012   9.554  18.666  0.00  0.00    +0.000 C 
ATOM      8  O   UNL     1       2.175   8.729  18.405  0.00  0.00    +0.000 OA
ATOM      9  C   UNL     1       2.130   7.533  19.081  0.00  0.00    +0.000 A 
ATOM     10  C   UNL     1       2.692   6.401  18.465  0.00  0.00    +0.000 A 
ATOM     11  C   UNL     1       2.708   5.186  19.154  0.00  0.00    +0.000 A 
ATOM     12  O   UNL     1       3.289   4.078  18.566  0.00  0.00    +0.000 OA
ATOM     13  C   UNL     1       3.394   2.919  19.339  0.00  0.00    +0.000 A 
ATOM     14  C   UNL     1       2.900   2.769  20.572  0.00  0.00    +0.000 A 
ATOM     15  C   UNL     1       2.188   3.884  21.191  0.00  0.00    +0.000 A 
ATOM     16  O   UNL     1       1.680   3.776  22.292  0.00  0.00    +0.000 OA
ATOM     17  C   UNL     1       2.147   5.131  20.424  0.00  0.00    +0.000 A 
ATOM     18  C   UNL     1       1.568   6.252  21.017  0.00  0.00    +0.000 A 
ATOM     19  C   UNL     1       1.568   7.483  20.365  0.00  0.00    +0.000 A 
ENDROOT
BRANCH   1  21
ATOM     20  C   UNL     1      -1.711  12.499  20.031  0.00  0.00    +0.000 C 
ATOM     21  O   UNL     1      -0.412  11.918  19.837  0.00  0.00    +0.000 OA
ENDBRANCH   1  21
BRANCH  13  22
ATOM     22  C   UNL     1       4.101   1.732  18.790  0.00  0.00    +0.000 C 
ATOM     23  O   UNL     1       3.874   1.231  17.703  0.00  0.00    +0.000 OA
BRANCH  22  24
ATOM     24  O   UNL     1       5.039   1.257  19.635  0.00  0.00    +0.000 OA
ATOM     25  H   UNL     1       4.665   0.710  20.351  0.00  0.00    +0.000 HD
ENDBRANCH  22  24
ENDBRANCH  13  22
TORSDOF 3
ENDMDL
MODEL 9
REMARK VINA RESULT:      -7.3      1.534      7.551
REMARK  Name = 
REMARK  4 active torsions:
REMARK  status: ('A' for Active; 'I' for Inactive)
REMARK    1  A    between atoms: C_1  and  O_2
REMARK    2  A    between atoms: O_2  and  C_3
REMARK    3  A    between atoms: C_15  and  C_16
REMARK    4  A    between atoms: C_16  and  O_18
REMARK                            x       y       z     vdW  Elec       q    Type
REMARK                         _______ _______ _______ _____ _____    ______ ____
ROOT
ATOM      1  C   UNL     1       3.865   4.970  18.678  0.00  0.00    +0.000 A 
ATOM      2  C   UNL     1       3.578   4.049  19.696  0.00  0.00    +0.000 A 
ATOM      3  C   UNL     1       2.614   4.320  20.653  0.00  0.00    +0.000 A 
ATOM      4  C   UNL     1       1.961   5.543  20.638  0.00  0.00    +0.000 A 
ATOM      5  C   UNL     1       2.287   6.530  19.695  0.00  0.00    +0.000 A 
ATOM      6  C   UNL     1       3.207   6.227  18.673  0.00  0.00    +0.000 A 
ATOM      7  C   UNL     1       3.495   7.383  17.728  0.00  0.00    +0.000 C 
ATOM      8  O   UNL     1       2.405   8.311  17.495  0.00  0.00    +0.000 OA
ATOM      9  C   UNL     1       1.844   8.761  18.666  0.00  0.00    +0.000 A 
ATOM     10  C   UNL     1       1.352  10.078  18.703  0.00  0.00    +0.000 A 
ATOM     11  C   UNL     1       0.727  10.542  19.862  0.00  0.00    +0.000 A 
ATOM     12  O   UNL     1       0.213  11.824  19.891  0.00  0.00    +0.000 OA
ATOM     13  C   UNL     1      -0.513  12.202  21.025  0.00  0.00    +0.000 A 
ATOM     14  C   UNL     1      -0.674  11.453  22.120  0.00  0.00    +0.000 A 
ATOM     15  C   UNL     1      -0.059  10.129  22.170  0.00  0.00    +0.000 A 
ATOM     16  O   UNL     1      -0.140   9.432  23.165  0.00  0.00    +0.000 OA
ATOM     17  C   UNL     1       0.630   9.689  20.955  0.00  0.00    +0.000 A 
ATOM     18  C   UNL     1       1.144   8.394  20.920  0.00  0.00    +0.000 A 
ATOM     19  C   UNL     1       1.742   7.896  19.765  0.00  0.00    +0.000 A 
ENDROOT
BRANCH   1  21
ATOM     20  C   UNL     1       6.173   4.726  18.083  0.00  0.00    +0.000 C 
ATOM     21  O   UNL     1       4.789   4.679  17.705  0.00  0.00    +0.000 OA
ENDBRANCH   1  21
BRANCH  13  22
ATOM     22  C   UNL     1      -1.173  13.534  21.064  0.00  0.00    +0.000 C 
ATOM     23  O   UNL     1      -1.129  14.302  22.009  0.00  0.00    +0.000 OA
BRANCH  22  24
ATOM     24  O   UNL     1      -1.838  13.810  19.924  0.00  0.00    +0.000 OA
ATOM     25  H   UNL     1      -2.590  14.417  20.059  0.00  0.00    +0.000 HD
ENDBRANCH  22  24
ENDBRANCH  13  22
TORSDOF 3
ENDMDL
