MODEL 1
REMARK VINA RESULT:      -7.4      0.000      0.000
REMARK  Name = 
REMARK  3 active torsions:
REMARK  status: ('A' for Active; 'I' for Inactive)
REMARK    1  A    between atoms: C_2  and  C_3
REMARK    2  A    between atoms: C_16  and  C_17
REMARK    3  A    between atoms: C_17  and  N_18
REMARK                            x       y       z     vdW  Elec       q    Type
REMARK                         _______ _______ _______ _____ _____    ______ ____
ROOT
ATOM      1  O   UNL     1       4.252   6.931  17.243  0.00  0.00    +0.000 OA
ATOM      2  C   UNL     1       3.240   6.570  17.846  0.00  0.00    +0.000 C 
ATOM      3  N   UNL     1       2.884   5.222  17.892  0.00  0.00    +0.000 N 
ATOM      4  C   UNL     1       1.727   4.676  18.582  0.00  0.00    +0.000 C 
ATOM      5  C   UNL     1       2.073   3.218  18.779  0.00  0.00    +0.000 C 
ATOM      6  C   UNL     1       2.849   2.874  17.518  0.00  0.00    +0.000 C 
ATOM      7  C   UNL     1       3.602   4.171  17.140  0.00  0.00    +0.000 C 
ENDROOT
BRANCH   2   8
ATOM      8  C   UNL     1       2.434   7.513  18.604  0.00  0.00    +0.000 A 
ATOM      9  C   UNL     1       1.784   8.669  18.204  0.00  0.00    +0.000 A 
ATOM     10  C   UNL     1       1.219   9.252  19.369  0.00  0.00    +0.000 A 
ATOM     11  C   UNL     1       0.497  10.423  19.666  0.00  0.00    +0.000 A 
ATOM     12  C   UNL     1       0.118  10.660  20.995  0.00  0.00    +0.000 A 
ATOM     13  C   UNL     1       0.443   9.757  22.012  0.00  0.00    +0.000 A 
ATOM     14  C   UNL     1       1.155   8.587  21.735  0.00  0.00    +0.000 A 
ATOM     15  C   UNL     1       1.519   8.382  20.408  0.00  0.00    +0.000 A 
ATOM     16  O   UNL     1       2.228   7.320  19.945  0.00  0.00    +0.000 OA
ENDBRANCH   2   8
BRANCH   7  17
ATOM     17  C   UNL     1       5.108   4.097  17.430  0.00  0.00    +0.000 C 
BRANCH  17  18
ATOM     18  N   UNL     1       5.929   4.318  16.253  0.00  0.00    +0.000 N 
ATOM     19  N   UNL     1       7.179   4.821  16.358  0.00  0.00    +0.000 NA
ATOM     20  C   UNL     1       7.531   4.930  15.073  0.00  0.00    +0.000 A 
ATOM     21  C   UNL     1       6.491   4.473  14.254  0.00  0.00    +0.000 A 
ATOM     22  N   UNL     1       5.467   4.065  15.008  0.00  0.00    +0.000 NA
ENDBRANCH  17  18
ENDBRANCH   7  17
TORSDOF 3
ENDMDL
MODEL 2
REMARK VINA RESULT:      -7.3      1.542      2.069
REMARK  Name = 
REMARK  3 active torsions:
REMARK  status: ('A' for Active; 'I' for Inactive)
REMARK    1  A    between atoms: C_2  and  C_3
REMARK    2  A    between atoms: C_16  and  C_17
REMARK    3  A    between atoms: C_17  and  N_18
REMARK                            x       y       z     vdW  Elec       q    Type
REMARK                         _______ _______ _______ _____ _____    ______ ____
ROOT
ATOM      1  O   UNL     1       3.770   6.541  18.679  0.00  0.00    +0.000 OA
ATOM      2  C   UNL     1       2.754   6.341  19.347  0.00  0.00    +0.000 C 
ATOM      3  N   UNL     1       2.337   5.040  19.632  0.00  0.00    +0.000 N 
ATOM      4  C   UNL     1       1.169   4.680  20.420  0.00  0.00    +0.000 C 
ATOM      5  C   UNL     1       1.451   3.263  20.864  0.00  0.00    +0.000 C 
ATOM      6  C   UNL     1       2.185   2.667  19.674  0.00  0.00    +0.000 C 
ATOM      7  C   UNL     1       2.990   3.841  19.066  0.00  0.00    +0.000 C 
ENDROOT
BRANCH   2   8
ATOM      8  C   UNL     1       2.009   7.439  19.939  0.00  0.00    +0.000 A 
ATOM      9  C   UNL     1       1.525   7.611  21.226  0.00  0.00    +0.000 A 
ATOM     10  C   UNL     1       0.793   8.828  21.235  0.00  0.00    +0.000 A 
ATOM     11  C   UNL     1       0.028   9.540  22.177  0.00  0.00    +0.000 A 
ATOM     12  C   UNL     1      -0.575  10.744  21.781  0.00  0.00    +0.000 A 
ATOM     13  C   UNL     1      -0.424  11.235  20.481  0.00  0.00    +0.000 A 
ATOM     14  C   UNL     1       0.336  10.543  19.533  0.00  0.00    +0.000 A 
ATOM     15  C   UNL     1       0.919   9.352  19.957  0.00  0.00    +0.000 A 
ATOM     16  O   UNL     1       1.673   8.531  19.181  0.00  0.00    +0.000 OA
ENDBRANCH   2   8
BRANCH   7  17
ATOM     17  C   UNL     1       4.496   3.743  19.348  0.00  0.00    +0.000 C 
BRANCH  17  18
ATOM     18  N   UNL     1       5.315   3.977  18.171  0.00  0.00    +0.000 N 
ATOM     19  N   UNL     1       6.575   4.449  18.280  0.00  0.00    +0.000 NA
ATOM     20  C   UNL     1       6.922   4.583  16.996  0.00  0.00    +0.000 A 
ATOM     21  C   UNL     1       5.867   4.170  16.173  0.00  0.00    +0.000 A 
ATOM     22  N   UNL     1       4.839   3.766  16.924  0.00  0.00    +0.000 NA
ENDBRANCH  17  18
ENDBRANCH   7  17
TORSDOF 3
ENDMDL
MODEL 3
REMARK VINA RESULT:      -7.3      1.478      1.691
REMARK  Name = 
REMARK  3 active torsions:
REMARK  status: ('A' for Active; 'I' for Inactive)
REMARK    1  A    between atoms: C_2  and  C_3
REMARK    2  A    between atoms: C_16  and  C_17
REMARK    3  A    between atoms: C_17  and  N_18
REMARK                            x       y       z     vdW  Elec       q    Type
REMARK                         _______ _______ _______ _____ _____    ______ ____
ROOT
ATOM      1  O   UNL     1       3.671   6.919  18.488  0.00  0.00    +0.000 OA
ATOM      2  C   UNL     1       2.743   6.664  19.257  0.00  0.00    +0.000 C 
ATOM      3  N   UNL     1       2.531   5.362  19.708  0.00  0.00    +0.000 N 
ATOM      4  C   UNL     1       1.484   4.943  20.625  0.00  0.00    +0.000 C 
ATOM      5  C   UNL     1       1.990   3.634  21.186  0.00  0.00    +0.000 C 
ATOM      6  C   UNL     1       2.714   3.009  20.005  0.00  0.00    +0.000 C 
ATOM      7  C   UNL     1       3.303   4.201  19.214  0.00  0.00    +0.000 C 
ENDROOT
BRANCH   2   8
ATOM      8  C   UNL     1       1.896   7.716  19.794  0.00  0.00    +0.000 A 
ATOM      9  C   UNL     1       1.397   8.864  19.200  0.00  0.00    +0.000 A 
ATOM     10  C   UNL     1       0.698   9.583  20.206  0.00  0.00    +0.000 A 
ATOM     11  C   UNL     1       0.022  10.814  20.284  0.00  0.00    +0.000 A 
ATOM     12  C   UNL     1      -0.544  11.194  21.510  0.00  0.00    +0.000 A 
ATOM     13  C   UNL     1      -0.446  10.372  22.637  0.00  0.00    +0.000 A 
ATOM     14  C   UNL     1       0.219   9.144  22.577  0.00  0.00    +0.000 A 
ATOM     15  C   UNL     1       0.771   8.798  21.347  0.00  0.00    +0.000 A 
ATOM     16  O   UNL     1       1.469   7.660  21.095  0.00  0.00    +0.000 OA
ENDBRANCH   2   8
BRANCH   7  17
ATOM     17  C   UNL     1       4.824   4.333  19.375  0.00  0.00    +0.000 C 
BRANCH  17  18
ATOM     18  N   UNL     1       5.540   4.273  18.113  0.00  0.00    +0.000 N 
ATOM     19  N   UNL     1       6.863   4.540  18.047  0.00  0.00    +0.000 NA
ATOM     20  C   UNL     1       7.089   4.448  16.733  0.00  0.00    +0.000 A 
ATOM     21  C   UNL     1       5.903   4.113  16.069  0.00  0.00    +0.000 A 
ATOM     22  N   UNL     1       4.909   3.985  16.953  0.00  0.00    +0.000 NA
ENDBRANCH  17  18
ENDBRANCH   7  17
TORSDOF 3
ENDMDL
MODEL 4
REMARK VINA RESULT:      -7.3      0.651      1.303
REMARK  Name = 
REMARK  3 active torsions:
REMARK  status: ('A' for Active; 'I' for Inactive)
REMARK    1  A    between atoms: C_2  and  C_3
REMARK    2  A    between atoms: C_16  and  C_17
REMARK    3  A    between atoms: C_17  and  N_18
REMARK                            x       y       z     vdW  Elec       q    Type
REMARK                         _______ _______ _______ _____ _____    ______ ____
ROOT
ATOM      1  O   UNL     1       4.214   6.598  17.574  0.00  0.00    +0.000 OA
ATOM      2  C   UNL     1       3.171   6.276  18.145  0.00  0.00    +0.000 C 
ATOM      3  N   UNL     1       2.702   4.964  18.078  0.00  0.00    +0.000 N 
ATOM      4  C   UNL     1       1.498   4.462  18.720  0.00  0.00    +0.000 C 
ATOM      5  C   UNL     1       1.718   2.969  18.794  0.00  0.00    +0.000 C 
ATOM      6  C   UNL     1       2.470   2.667  17.508  0.00  0.00    +0.000 C 
ATOM      7  C   UNL     1       3.332   3.923  17.239  0.00  0.00    +0.000 C 
ENDROOT
BRANCH   2   8
ATOM      8  C   UNL     1       2.444   7.217  18.980  0.00  0.00    +0.000 A 
ATOM      9  C   UNL     1       2.137   7.174  20.330  0.00  0.00    +0.000 A 
ATOM     10  C   UNL     1       1.332   8.310  20.610  0.00  0.00    +0.000 A 
ATOM     11  C   UNL     1       0.662   8.822  21.736  0.00  0.00    +0.000 A 
ATOM     12  C   UNL     1      -0.072  10.010  21.599  0.00  0.00    +0.000 A 
ATOM     13  C   UNL     1      -0.140  10.680  20.375  0.00  0.00    +0.000 A 
ATOM     14  C   UNL     1       0.523  10.189  19.246  0.00  0.00    +0.000 A 
ATOM     15  C   UNL     1       1.240   9.008  19.415  0.00  0.00    +0.000 A 
ATOM     16  O   UNL     1       1.930   8.366  18.437  0.00  0.00    +0.000 OA
ENDBRANCH   2   8
BRANCH   7  17
ATOM     17  C   UNL     1       4.825   3.696  17.521  0.00  0.00    +0.000 C 
BRANCH  17  18
ATOM     18  N   UNL     1       5.683   4.106  16.424  0.00  0.00    +0.000 N 
ATOM     19  N   UNL     1       6.950   4.519  16.645  0.00  0.00    +0.000 NA
ATOM     20  C   UNL     1       7.338   4.863  15.413  0.00  0.00    +0.000 A 
ATOM     21  C   UNL     1       6.299   4.626  14.504  0.00  0.00    +0.000 A 
ATOM     22  N   UNL     1       5.241   4.126  15.147  0.00  0.00    +0.000 NA
ENDBRANCH  17  18
ENDBRANCH   7  17
TORSDOF 3
ENDMDL
MODEL 5
REMARK VINA RESULT:      -7.2      1.094      1.258
REMARK  Name = 
REMARK  3 active torsions:
REMARK  status: ('A' for Active; 'I' for Inactive)
REMARK    1  A    between atoms: C_2  and  C_3
REMARK    2  A    between atoms: C_16  and  C_17
REMARK    3  A    between atoms: C_17  and  N_18
REMARK                            x       y       z     vdW  Elec       q    Type
REMARK                         _______ _______ _______ _____ _____    ______ ____
ROOT
ATOM      1  O   UNL     1       4.501   6.615  18.099  0.00  0.00    +0.000 OA
ATOM      2  C   UNL     1       3.281   6.469  18.192  0.00  0.00    +0.000 C 
ATOM      3  N   UNL     1       2.700   5.216  17.998  0.00  0.00    +0.000 N 
ATOM      4  C   UNL     1       1.281   4.917  18.097  0.00  0.00    +0.000 C 
ATOM      5  C   UNL     1       1.236   3.425  18.329  0.00  0.00    +0.000 C 
ATOM      6  C   UNL     1       2.399   2.911  17.497  0.00  0.00    +0.000 C 
ATOM      7  C   UNL     1       3.464   4.031  17.555  0.00  0.00    +0.000 C 
ENDROOT
BRANCH   2   8
ATOM      8  C   UNL     1       2.417   7.565  18.596  0.00  0.00    +0.000 A 
ATOM      9  C   UNL     1       1.895   8.619  17.864  0.00  0.00    +0.000 A 
ATOM     10  C   UNL     1       1.186   9.448  18.774  0.00  0.00    +0.000 A 
ATOM     11  C   UNL     1       0.488  10.666  18.699  0.00  0.00    +0.000 A 
ATOM     12  C   UNL     1      -0.081  11.189  19.870  0.00  0.00    +0.000 A 
ATOM     13  C   UNL     1       0.037  10.519  21.092  0.00  0.00    +0.000 A 
ATOM     14  C   UNL     1       0.724   9.305  21.185  0.00  0.00    +0.000 A 
ATOM     15  C   UNL     1       1.278   8.815  20.006  0.00  0.00    +0.000 A 
ATOM     16  O   UNL     1       1.995   7.668  19.896  0.00  0.00    +0.000 OA
ENDBRANCH   2   8
BRANCH   7  17
ATOM     17  C   UNL     1       4.660   3.674  18.450  0.00  0.00    +0.000 C 
BRANCH  17  18
ATOM     18  N   UNL     1       5.937   4.070  17.884  0.00  0.00    +0.000 N 
ATOM     19  N   UNL     1       6.947   4.500  18.671  0.00  0.00    +0.000 NA
ATOM     20  C   UNL     1       7.875   4.822  17.764  0.00  0.00    +0.000 A 
ATOM     21  C   UNL     1       7.393   4.556  16.477  0.00  0.00    +0.000 A 
ATOM     22  N   UNL     1       6.155   4.059  16.550  0.00  0.00    +0.000 NA
ENDBRANCH  17  18
ENDBRANCH   7  17
TORSDOF 3
ENDMDL
MODEL 6
REMARK VINA RESULT:      -6.9      1.516      2.398
REMARK  Name = 
REMARK  3 active torsions:
REMARK  status: ('A' for Active; 'I' for Inactive)
REMARK    1  A    between atoms: C_2  and  C_3
REMARK    2  A    between atoms: C_16  and  C_17
REMARK    3  A    between atoms: C_17  and  N_18
REMARK                            x       y       z     vdW  Elec       q    Type
REMARK                         _______ _______ _______ _____ _____    ______ ____
ROOT
ATOM      1  O   UNL     1       2.494   8.798  17.537  0.00  0.00    +0.000 OA
ATOM      2  C   UNL     1       2.217   8.152  18.548  0.00  0.00    +0.000 C 
ATOM      3  N   UNL     1       2.659   6.837  18.692  0.00  0.00    +0.000 N 
ATOM      4  C   UNL     1       2.411   5.982  19.842  0.00  0.00    +0.000 C 
ATOM      5  C   UNL     1       3.489   4.926  19.753  0.00  0.00    +0.000 C 
ATOM      6  C   UNL     1       3.644   4.716  18.255  0.00  0.00    +0.000 C 
ATOM      7  C   UNL     1       3.363   6.099  17.622  0.00  0.00    +0.000 C 
ENDROOT
BRANCH   2   8
ATOM      8  C   UNL     1       1.507   8.757  19.662  0.00  0.00    +0.000 A 
ATOM      9  C   UNL     1       1.326   8.315  20.963  0.00  0.00    +0.000 A 
ATOM     10  C   UNL     1       0.476   9.253  21.606  0.00  0.00    +0.000 A 
ATOM     11  C   UNL     1      -0.124   9.372  22.873  0.00  0.00    +0.000 A 
ATOM     12  C   UNL     1      -0.945  10.481  23.128  0.00  0.00    +0.000 A 
ATOM     13  C   UNL     1      -1.167  11.455  22.149  0.00  0.00    +0.000 A 
ATOM     14  C   UNL     1      -0.577  11.356  20.886  0.00  0.00    +0.000 A 
ATOM     15  C   UNL     1       0.229  10.243  20.666  0.00  0.00    +0.000 A 
ATOM     16  O   UNL     1       0.871   9.960  19.502  0.00  0.00    +0.000 OA
ENDBRANCH   2   8
BRANCH   7  17
ATOM     17  C   UNL     1       4.632   6.789  17.102  0.00  0.00    +0.000 C 
BRANCH  17  18
ATOM     18  N   UNL     1       5.548   5.879  16.439  0.00  0.00    +0.000 N 
ATOM     19  N   UNL     1       5.267   5.369  15.220  0.00  0.00    +0.000 NA
ATOM     20  C   UNL     1       6.304   4.549  15.027  0.00  0.00    +0.000 A 
ATOM     21  C   UNL     1       7.172   4.614  16.124  0.00  0.00    +0.000 A 
ATOM     22  N   UNL     1       6.698   5.477  17.026  0.00  0.00    +0.000 NA
ENDBRANCH  17  18
ENDBRANCH   7  17
TORSDOF 3
ENDMDL
MODEL 7
REMARK VINA RESULT:      -6.9      3.389      7.388
REMARK  Name = 
REMARK  3 active torsions:
REMARK  status: ('A' for Active; 'I' for Inactive)
REMARK    1  A    between atoms: C_2  and  C_3
REMARK    2  A    between atoms: C_16  and  C_17
REMARK    3  A    between atoms: C_17  and  N_18
REMARK                            x       y       z     vdW  Elec       q    Type
REMARK                         _______ _______ _______ _____ _____    ______ ____
ROOT
ATOM      1  O   UNL     1       2.508   8.519  17.433  0.00  0.00    +0.000 OA
ATOM      2  C   UNL     1       2.280   7.819  18.421  0.00  0.00    +0.000 C 
ATOM      3  N   UNL     1       1.685   8.368  19.557  0.00  0.00    +0.000 N 
ATOM      4  C   UNL     1       1.352   7.643  20.772  0.00  0.00    +0.000 C 
ATOM      5  C   UNL     1       0.302   8.503  21.436  0.00  0.00    +0.000 C 
ATOM      6  C   UNL     1       0.750   9.916  21.102  0.00  0.00    +0.000 C 
ATOM      7  C   UNL     1       1.407   9.812  19.705  0.00  0.00    +0.000 C 
ENDROOT
BRANCH   2   8
ATOM      8  C   UNL     1       2.533   6.388  18.409  0.00  0.00    +0.000 A 
ATOM      9  C   UNL     1       1.802   5.348  17.858  0.00  0.00    +0.000 A 
ATOM     10  C   UNL     1       2.460   4.141  18.218  0.00  0.00    +0.000 A 
ATOM     11  C   UNL     1       2.224   2.767  18.033  0.00  0.00    +0.000 A 
ATOM     12  C   UNL     1       3.135   1.849  18.577  0.00  0.00    +0.000 A 
ATOM     13  C   UNL     1       4.259   2.281  19.287  0.00  0.00    +0.000 A 
ATOM     14  C   UNL     1       4.512   3.643  19.477  0.00  0.00    +0.000 A 
ATOM     15  C   UNL     1       3.588   4.527  18.928  0.00  0.00    +0.000 A 
ATOM     16  O   UNL     1       3.649   5.880  19.022  0.00  0.00    +0.000 OA
ENDBRANCH   2   8
BRANCH   7  17
ATOM     17  C   UNL     1       0.538  10.411  18.589  0.00  0.00    +0.000 C 
BRANCH  17  18
ATOM     18  N   UNL     1       0.458  11.860  18.641  0.00  0.00    +0.000 N 
ATOM     19  N   UNL     1      -0.729  12.498  18.545  0.00  0.00    +0.000 NA
ATOM     20  C   UNL     1      -0.346  13.778  18.560  0.00  0.00    +0.000 A 
ATOM     21  C   UNL     1       1.047  13.857  18.683  0.00  0.00    +0.000 A 
ATOM     22  N   UNL     1       1.565  12.628  18.750  0.00  0.00    +0.000 NA
ENDBRANCH  17  18
ENDBRANCH   7  17
TORSDOF 3
ENDMDL
MODEL 8
REMARK VINA RESULT:      -6.9      3.530      7.444
REMARK  Name = 
REMARK  3 active torsions:
REMARK  status: ('A' for Active; 'I' for Inactive)
REMARK    1  A    between atoms: C_2  and  C_3
REMARK    2  A    between atoms: C_16  and  C_17
REMARK    3  A    between atoms: C_17  and  N_18
REMARK                            x       y       z     vdW  Elec       q    Type
REMARK                         _______ _______ _______ _____ _____    ______ ____
ROOT
ATOM      1  O   UNL     1       2.547   8.636  17.780  0.00  0.00    +0.000 OA
ATOM      2  C   UNL     1       2.273   7.935  18.756  0.00  0.00    +0.000 C 
ATOM      3  N   UNL     1       1.552   8.462  19.828  0.00  0.00    +0.000 N 
ATOM      4  C   UNL     1       1.156   7.733  21.021  0.00  0.00    +0.000 C 
ATOM      5  C   UNL     1       0.005   8.539  21.579  0.00  0.00    +0.000 C 
ATOM      6  C   UNL     1       0.403   9.972  21.262  0.00  0.00    +0.000 C 
ATOM      7  C   UNL     1       1.182   9.890  19.929  0.00  0.00    +0.000 C 
ENDROOT
BRANCH   2   8
ATOM      8  C   UNL     1       2.604   6.521  18.789  0.00  0.00    +0.000 A 
ATOM      9  C   UNL     1       3.601   5.844  19.473  0.00  0.00    +0.000 A 
ATOM     10  C   UNL     1       3.527   4.482  19.075  0.00  0.00    +0.000 A 
ATOM     11  C   UNL     1       4.257   3.310  19.343  0.00  0.00    +0.000 A 
ATOM     12  C   UNL     1       3.865   2.117  18.717  0.00  0.00    +0.000 A 
ATOM     13  C   UNL     1       2.773   2.082  17.845  0.00  0.00    +0.000 A 
ATOM     14  C   UNL     1       2.034   3.237  17.570  0.00  0.00    +0.000 A 
ATOM     15  C   UNL     1       2.449   4.403  18.205  0.00  0.00    +0.000 A 
ATOM     16  O   UNL     1       1.875   5.625  18.052  0.00  0.00    +0.000 OA
ENDBRANCH   2   8
BRANCH   7  17
ATOM     17  C   UNL     1       0.382  10.426  18.733  0.00  0.00    +0.000 C 
BRANCH  17  18
ATOM     18  N   UNL     1       0.388  11.876  18.644  0.00  0.00    +0.000 N 
ATOM     19  N   UNL     1       1.540  12.576  18.727  0.00  0.00    +0.000 NA
ATOM     20  C   UNL     1       1.091  13.834  18.677  0.00  0.00    +0.000 A 
ATOM     21  C   UNL     1      -0.303  13.838  18.548  0.00  0.00    +0.000 A 
ATOM     22  N   UNL     1      -0.757  12.582  18.511  0.00  0.00    +0.000 NA
ENDBRANCH  17  18
ENDBRANCH   7  17
TORSDOF 3
ENDMDL
MODEL 9
REMARK VINA RESULT:      -6.8      1.416      1.998
REMARK  Name = 
REMARK  3 active torsions:
REMARK  status: ('A' for Active; 'I' for Inactive)
REMARK    1  A    between atoms: C_2  and  C_3
REMARK    2  A    between atoms: C_16  and  C_17
REMARK    3  A    between atoms: C_17  and  N_18
REMARK                            x       y       z     vdW  Elec       q    Type
REMARK                         _______ _______ _______ _____ _____    ______ ____
ROOT
ATOM      1  O   UNL     1       2.673   8.790  17.313  0.00  0.00    +0.000 OA
ATOM      2  C   UNL     1       2.258   8.206  18.316  0.00  0.00    +0.000 C 
ATOM      3  N   UNL     1       2.672   6.905  18.601  0.00  0.00    +0.000 N 
ATOM      4  C   UNL     1       2.266   6.122  19.758  0.00  0.00    +0.000 C 
ATOM      5  C   UNL     1       3.343   5.069  19.883  0.00  0.00    +0.000 C 
ATOM      6  C   UNL     1       3.701   4.767  18.437  0.00  0.00    +0.000 C 
ATOM      7  C   UNL     1       3.513   6.106  17.686  0.00  0.00    +0.000 C 
ENDROOT
BRANCH   2   8
ATOM      8  C   UNL     1       1.404   8.876  19.282  0.00  0.00    +0.000 A 
ATOM      9  C   UNL     1       0.526   9.937  19.127  0.00  0.00    +0.000 A 
ATOM     10  C   UNL     1       0.016  10.246  20.416  0.00  0.00    +0.000 A 
ATOM     11  C   UNL     1      -0.850  11.215  20.955  0.00  0.00    +0.000 A 
ATOM     12  C   UNL     1      -1.101  11.198  22.336  0.00  0.00    +0.000 A 
ATOM     13  C   UNL     1      -0.511  10.241  23.167  0.00  0.00    +0.000 A 
ATOM     14  C   UNL     1       0.349   9.268  22.648  0.00  0.00    +0.000 A 
ATOM     15  C   UNL     1       0.579   9.314  21.276  0.00  0.00    +0.000 A 
ATOM     16  O   UNL     1       1.395   8.471  20.592  0.00  0.00    +0.000 OA
ENDBRANCH   2   8
BRANCH   7  17
ATOM     17  C   UNL     1       4.844   6.769  17.302  0.00  0.00    +0.000 C 
BRANCH  17  18
ATOM     18  N   UNL     1       5.674   5.938  16.448  0.00  0.00    +0.000 N 
ATOM     19  N   UNL     1       5.306   5.655  15.180  0.00  0.00    +0.000 NA
ATOM     20  C   UNL     1       6.284   4.827  14.797  0.00  0.00    +0.000 A 
ATOM     21  C   UNL     1       7.203   4.663  15.840  0.00  0.00    +0.000 A 
ATOM     22  N   UNL     1       6.823   5.386  16.897  0.00  0.00    +0.000 NA
ENDBRANCH  17  18
ENDBRANCH   7  17
TORSDOF 3
ENDMDL
