MODEL 1
REMARK VINA RESULT:      -7.0      0.000      0.000
REMARK  Name = 
REMARK  8 active torsions:
REMARK  status: ('A' for Active; 'I' for Inactive)
REMARK    1  A    between atoms: C_1  and  O_2
REMARK    2  A    between atoms: O_2  and  C_3
REMARK    3  A    between atoms: C_12  and  C_13
REMARK    4  A    between atoms: C_13  and  C_14
REMARK    5  A    between atoms: C_14  and  C_15
REMARK    6  A    between atoms: C_15  and  N_16
REMARK    7  A    between atoms: C_17  and  C_18
REMARK    8  A    between atoms: C_22  and  C_23
REMARK                            x       y       z     vdW  Elec       q    Type
REMARK                         _______ _______ _______ _____ _____    ______ ____
ROOT
ATOM      1  C   UNL     1      -2.475  10.417  17.402  0.00  0.00    +0.000 A 
ATOM      2  C   UNL     1      -1.303   9.784  17.007  0.00  0.00    +0.000 A 
ATOM      3  C   UNL     1      -0.179   9.830  17.825  0.00  0.00    +0.000 A 
ATOM      4  C   UNL     1      -0.237  10.423  19.096  0.00  0.00    +0.000 A 
ATOM      5  C   UNL     1      -1.407  11.097  19.483  0.00  0.00    +0.000 A 
ATOM      6  C   UNL     1      -2.521  11.088  18.625  0.00  0.00    +0.000 A 
ATOM      7  C   UNL     1      -1.480  11.901  20.759  0.00  0.00    +0.000 C 
ATOM      8  C   UNL     1      -0.364  11.612  21.761  0.00  0.00    +0.000 C 
ATOM      9  C   UNL     1       0.977  11.394  21.066  0.00  0.00    +0.000 C 
ATOM     10  C   UNL     1       0.924  10.226  20.060  0.00  0.00    +0.000 C 
ENDROOT
BRANCH   1  12
ATOM     11  C   UNL     1      -3.191  10.435  15.168  0.00  0.00    +0.000 C 
ATOM     12  O   UNL     1      -3.530  10.284  16.543  0.00  0.00    +0.000 OA
ENDBRANCH   1  12
BRANCH  10  13
ATOM     13  C   UNL     1       0.828   8.843  20.776  0.00  0.00    +0.000 C 
BRANCH  13  14
ATOM     14  C   UNL     1       1.753   7.771  20.164  0.00  0.00    +0.000 C 
BRANCH  14  15
ATOM     15  C   UNL     1       1.693   6.390  20.827  0.00  0.00    +0.000 C 
BRANCH  15  16
ATOM     16  N   UNL     1       1.535   5.280  19.883  0.00  0.00    +0.000 NA
ATOM     17  C   UNL     1       2.523   5.204  18.784  0.00  0.00    +0.000 C 
ATOM     18  C   UNL     1       4.003   5.168  19.178  0.00  0.00    +0.000 C 
ATOM     19  C   UNL     1       2.190   4.073  17.790  0.00  0.00    +0.000 C 
ATOM     20  C   UNL     1       1.912   2.750  18.481  0.00  0.00    +0.000 C 
ATOM     21  C   UNL     1       0.787   2.950  19.483  0.00  0.00    +0.000 C 
ATOM     22  C   UNL     1       1.135   4.019  20.528  0.00  0.00    +0.000 C 
ATOM     23  C   UNL     1       2.093   3.468  21.594  0.00  0.00    +0.000 C 
ENDBRANCH  15  16
ENDBRANCH  14  15
ENDBRANCH  13  14
ENDBRANCH  10  13
TORSDOF 5
ENDMDL
MODEL 2
REMARK VINA RESULT:      -7.0      2.936      7.833
REMARK  Name = 
REMARK  8 active torsions:
REMARK  status: ('A' for Active; 'I' for Inactive)
REMARK    1  A    between atoms: C_1  and  O_2
REMARK    2  A    between atoms: O_2  and  C_3
REMARK    3  A    between atoms: C_12  and  C_13
REMARK    4  A    between atoms: C_13  and  C_14
REMARK    5  A    between atoms: C_14  and  C_15
REMARK    6  A    between atoms: C_15  and  N_16
REMARK    7  A    between atoms: C_17  and  C_18
REMARK    8  A    between atoms: C_22  and  C_23
REMARK                            x       y       z     vdW  Elec       q    Type
REMARK                         _______ _______ _______ _____ _____    ______ ____
ROOT
ATOM      1  C   UNL     1       5.169   4.289  17.662  0.00  0.00    +0.000 A 
ATOM      2  C   UNL     1       4.223   5.200  17.210  0.00  0.00    +0.000 A 
ATOM      3  C   UNL     1       2.999   5.312  17.860  0.00  0.00    +0.000 A 
ATOM      4  C   UNL     1       2.738   4.587  19.034  0.00  0.00    +0.000 A 
ATOM      5  C   UNL     1       3.674   3.636  19.472  0.00  0.00    +0.000 A 
ATOM      6  C   UNL     1       4.888   3.495  18.775  0.00  0.00    +0.000 A 
ATOM      7  C   UNL     1       3.384   2.702  20.623  0.00  0.00    +0.000 C 
ATOM      8  C   UNL     1       2.205   3.117  21.501  0.00  0.00    +0.000 C 
ATOM      9  C   UNL     1       1.061   3.697  20.674  0.00  0.00    +0.000 C 
ATOM     10  C   UNL     1       1.503   4.926  19.856  0.00  0.00    +0.000 C 
ENDROOT
BRANCH   1  12
ATOM     11  C   UNL     1       7.473   4.720  17.732  0.00  0.00    +0.000 C 
ATOM     12  O   UNL     1       6.351   4.280  16.975  0.00  0.00    +0.000 OA
ENDBRANCH   1  12
BRANCH  10  13
ATOM     13  C   UNL     1       1.761   6.170  20.763  0.00  0.00    +0.000 C 
BRANCH  13  14
ATOM     14  C   UNL     1       1.867   7.492  19.975  0.00  0.00    +0.000 C 
BRANCH  14  15
ATOM     15  C   UNL     1       1.392   8.744  20.720  0.00  0.00    +0.000 C 
BRANCH  15  16
ATOM     16  N   UNL     1       0.344   9.495  20.020  0.00  0.00    +0.000 NA
ATOM     17  C   UNL     1      -0.122  10.739  20.671  0.00  0.00    +0.000 C 
ATOM     18  C   UNL     1       0.942  11.787  21.012  0.00  0.00    +0.000 C 
ATOM     19  C   UNL     1      -1.301  11.378  19.911  0.00  0.00    +0.000 C 
ATOM     20  C   UNL     1      -1.036  11.506  18.422  0.00  0.00    +0.000 C 
ATOM     21  C   UNL     1      -0.704  10.131  17.865  0.00  0.00    +0.000 C 
ATOM     22  C   UNL     1       0.518   9.514  18.559  0.00  0.00    +0.000 C 
ATOM     23  C   UNL     1       1.826  10.128  18.039  0.00  0.00    +0.000 C 
ENDBRANCH  15  16
ENDBRANCH  14  15
ENDBRANCH  13  14
ENDBRANCH  10  13
TORSDOF 5
ENDMDL
MODEL 3
REMARK VINA RESULT:      -7.0      2.990      7.831
REMARK  Name = 
REMARK  8 active torsions:
REMARK  status: ('A' for Active; 'I' for Inactive)
REMARK    1  A    between atoms: C_1  and  O_2
REMARK    2  A    between atoms: O_2  and  C_3
REMARK    3  A    between atoms: C_12  and  C_13
REMARK    4  A    between atoms: C_13  and  C_14
REMARK    5  A    between atoms: C_14  and  C_15
REMARK    6  A    between atoms: C_15  and  N_16
REMARK    7  A    between atoms: C_17  and  C_18
REMARK    8  A    between atoms: C_22  and  C_23
REMARK                            x       y       z     vdW  Elec       q    Type
REMARK                         _______ _______ _______ _____ _____    ______ ____
ROOT
ATOM      1  C   UNL     1       2.644   3.338  19.721  0.00  0.00    +0.000 A 
ATOM      2  C   UNL     1       2.537   4.538  20.412  0.00  0.00    +0.000 A 
ATOM      3  C   UNL     1       3.113   5.693  19.894  0.00  0.00    +0.000 A 
ATOM      4  C   UNL     1       3.719   5.689  18.627  0.00  0.00    +0.000 A 
ATOM      5  C   UNL     1       3.865   4.471  17.943  0.00  0.00    +0.000 A 
ATOM      6  C   UNL     1       3.324   3.299  18.503  0.00  0.00    +0.000 A 
ATOM      7  C   UNL     1       4.657   4.365  16.662  0.00  0.00    +0.000 C 
ATOM      8  C   UNL     1       4.941   5.699  15.974  0.00  0.00    +0.000 C 
ATOM      9  C   UNL     1       5.256   6.799  16.983  0.00  0.00    +0.000 C 
ATOM     10  C   UNL     1       4.103   7.014  17.984  0.00  0.00    +0.000 C 
ENDROOT
BRANCH   1  12
ATOM     11  C   UNL     1       1.489   2.531  21.597  0.00  0.00    +0.000 C 
ATOM     12  O   UNL     1       2.016   2.270  20.299  0.00  0.00    +0.000 OA
ENDBRANCH   1  12
BRANCH  10  13
ATOM     13  C   UNL     1       2.866   7.688  17.314  0.00  0.00    +0.000 C 
BRANCH  13  14
ATOM     14  C   UNL     1       2.443   9.006  17.995  0.00  0.00    +0.000 C 
BRANCH  14  15
ATOM     15  C   UNL     1       0.953   9.352  17.896  0.00  0.00    +0.000 C 
BRANCH  15  16
ATOM     16  N   UNL     1       0.543  10.479  18.740  0.00  0.00    +0.000 NA
ATOM     17  C   UNL     1      -0.732  11.139  18.385  0.00  0.00    +0.000 C 
ATOM     18  C   UNL     1      -1.977  10.250  18.298  0.00  0.00    +0.000 C 
ATOM     19  C   UNL     1      -1.002  12.378  19.262  0.00  0.00    +0.000 C 
ATOM     20  C   UNL     1      -0.829  12.094  20.743  0.00  0.00    +0.000 C 
ATOM     21  C   UNL     1       0.571  11.550  20.977  0.00  0.00    +0.000 C 
ATOM     22  C   UNL     1       0.828  10.270  20.170  0.00  0.00    +0.000 C 
ATOM     23  C   UNL     1       0.159   9.053  20.824  0.00  0.00    +0.000 C 
ENDBRANCH  15  16
ENDBRANCH  14  15
ENDBRANCH  13  14
ENDBRANCH  10  13
TORSDOF 5
ENDMDL
MODEL 4
REMARK VINA RESULT:      -7.0      7.272      9.007
REMARK  Name = 
REMARK  8 active torsions:
REMARK  status: ('A' for Active; 'I' for Inactive)
REMARK    1  A    between atoms: C_1  and  O_2
REMARK    2  A    between atoms: O_2  and  C_3
REMARK    3  A    between atoms: C_12  and  C_13
REMARK    4  A    between atoms: C_13  and  C_14
REMARK    5  A    between atoms: C_14  and  C_15
REMARK    6  A    between atoms: C_15  and  N_16
REMARK    7  A    between atoms: C_17  and  C_18
REMARK    8  A    between atoms: C_22  and  C_23
REMARK                            x       y       z     vdW  Elec       q    Type
REMARK                         _______ _______ _______ _____ _____    ______ ____
ROOT
ATOM      1  C   UNL     1       7.695  14.822  18.313  0.00  0.00    +0.000 A 
ATOM      2  C   UNL     1       7.174  13.863  17.453  0.00  0.00    +0.000 A 
ATOM      3  C   UNL     1       7.855  12.667  17.251  0.00  0.00    +0.000 A 
ATOM      4  C   UNL     1       9.017  12.368  17.981  0.00  0.00    +0.000 A 
ATOM      5  C   UNL     1       9.568  13.349  18.821  0.00  0.00    +0.000 A 
ATOM      6  C   UNL     1       8.898  14.576  18.977  0.00  0.00    +0.000 A 
ATOM      7  C   UNL     1      10.903  13.160  19.500  0.00  0.00    +0.000 C 
ATOM      8  C   UNL     1      11.407  11.718  19.529  0.00  0.00    +0.000 C 
ATOM      9  C   UNL     1      11.095  10.984  18.228  0.00  0.00    +0.000 C 
ATOM     10  C   UNL     1       9.583  10.957  17.927  0.00  0.00    +0.000 C 
ENDROOT
BRANCH   1  12
ATOM     11  C   UNL     1       7.068  16.577  19.737  0.00  0.00    +0.000 C 
ATOM     12  O   UNL     1       6.933  15.946  18.467  0.00  0.00    +0.000 OA
ENDBRANCH   1  12
BRANCH  10  13
ATOM     13  C   UNL     1       8.813  10.007  18.896  0.00  0.00    +0.000 C 
BRANCH  13  14
ATOM     14  C   UNL     1       8.578   8.597  18.315  0.00  0.00    +0.000 C 
BRANCH  14  15
ATOM     15  C   UNL     1       7.205   8.367  17.674  0.00  0.00    +0.000 C 
BRANCH  15  16
ATOM     16  N   UNL     1       7.038   7.037  17.080  0.00  0.00    +0.000 NA
ATOM     17  C   UNL     1       7.597   5.900  17.844  0.00  0.00    +0.000 C 
ATOM     18  C   UNL     1       7.130   5.737  19.294  0.00  0.00    +0.000 C 
ATOM     19  C   UNL     1       7.469   4.571  17.072  0.00  0.00    +0.000 C 
ATOM     20  C   UNL     1       6.069   4.341  16.532  0.00  0.00    +0.000 C 
ATOM     21  C   UNL     1       5.682   5.523  15.659  0.00  0.00    +0.000 C 
ATOM     22  C   UNL     1       5.728   6.847  16.435  0.00  0.00    +0.000 C 
ATOM     23  C   UNL     1       4.497   7.009  17.338  0.00  0.00    +0.000 C 
ENDBRANCH  15  16
ENDBRANCH  14  15
ENDBRANCH  13  14
ENDBRANCH  10  13
TORSDOF 5
ENDMDL
MODEL 5
REMARK VINA RESULT:      -6.8      2.987      7.870
REMARK  Name = 
REMARK  8 active torsions:
REMARK  status: ('A' for Active; 'I' for Inactive)
REMARK    1  A    between atoms: C_1  and  O_2
REMARK    2  A    between atoms: O_2  and  C_3
REMARK    3  A    between atoms: C_12  and  C_13
REMARK    4  A    between atoms: C_13  and  C_14
REMARK    5  A    between atoms: C_14  and  C_15
REMARK    6  A    between atoms: C_15  and  N_16
REMARK    7  A    between atoms: C_17  and  C_18
REMARK    8  A    between atoms: C_22  and  C_23
REMARK                            x       y       z     vdW  Elec       q    Type
REMARK                         _______ _______ _______ _____ _____    ______ ____
ROOT
ATOM      1  C   UNL     1       5.127   4.596  17.591  0.00  0.00    +0.000 A 
ATOM      2  C   UNL     1       4.185   5.555  17.241  0.00  0.00    +0.000 A 
ATOM      3  C   UNL     1       2.967   5.611  17.910  0.00  0.00    +0.000 A 
ATOM      4  C   UNL     1       2.710   4.774  19.008  0.00  0.00    +0.000 A 
ATOM      5  C   UNL     1       3.642   3.777  19.341  0.00  0.00    +0.000 A 
ATOM      6  C   UNL     1       4.848   3.696  18.622  0.00  0.00    +0.000 A 
ATOM      7  C   UNL     1       3.354   2.735  20.394  0.00  0.00    +0.000 C 
ATOM      8  C   UNL     1       2.186   3.069  21.321  0.00  0.00    +0.000 C 
ATOM      9  C   UNL     1       1.040   3.737  20.567  0.00  0.00    +0.000 C 
ATOM     10  C   UNL     1       1.486   5.038  19.871  0.00  0.00    +0.000 C 
ENDROOT
BRANCH   1  12
ATOM     11  C   UNL     1       7.470   4.617  17.712  0.00  0.00    +0.000 C 
ATOM     12  O   UNL     1       6.303   4.647  16.896  0.00  0.00    +0.000 OA
ENDBRANCH   1  12
BRANCH  10  13
ATOM     13  C   UNL     1       1.761   6.183  20.896  0.00  0.00    +0.000 C 
BRANCH  13  14
ATOM     14  C   UNL     1       1.903   7.572  20.240  0.00  0.00    +0.000 C 
BRANCH  14  15
ATOM     15  C   UNL     1       0.874   8.619  20.681  0.00  0.00    +0.000 C 
BRANCH  15  16
ATOM     16  N   UNL     1       1.197   9.987  20.264  0.00  0.00    +0.000 NA
ATOM     17  C   UNL     1       1.136  10.266  18.813  0.00  0.00    +0.000 C 
ATOM     18  C   UNL     1      -0.180   9.945  18.096  0.00  0.00    +0.000 C 
ATOM     19  C   UNL     1       1.608  11.696  18.482  0.00  0.00    +0.000 C 
ATOM     20  C   UNL     1       0.946  12.746  19.355  0.00  0.00    +0.000 C 
ATOM     21  C   UNL     1       1.206  12.406  20.813  0.00  0.00    +0.000 C 
ATOM     22  C   UNL     1       0.671  11.014  21.178  0.00  0.00    +0.000 C 
ATOM     23  C   UNL     1      -0.852  11.034  21.373  0.00  0.00    +0.000 C 
ENDBRANCH  15  16
ENDBRANCH  14  15
ENDBRANCH  13  14
ENDBRANCH  10  13
TORSDOF 5
ENDMDL
MODEL 6
REMARK VINA RESULT:      -6.8      6.225      9.584
REMARK  Name = 
REMARK  8 active torsions:
REMARK  status: ('A' for Active; 'I' for Inactive)
REMARK    1  A    between atoms: C_1  and  O_2
REMARK    2  A    between atoms: O_2  and  C_3
REMARK    3  A    between atoms: C_12  and  C_13
REMARK    4  A    between atoms: C_13  and  C_14
REMARK    5  A    between atoms: C_14  and  C_15
REMARK    6  A    between atoms: C_15  and  N_16
REMARK    7  A    between atoms: C_17  and  C_18
REMARK    8  A    between atoms: C_22  and  C_23
REMARK                            x       y       z     vdW  Elec       q    Type
REMARK                         _______ _______ _______ _____ _____    ______ ____
ROOT
ATOM      1  C   UNL     1       2.912   4.794  18.512  0.00  0.00    +0.000 A 
ATOM      2  C   UNL     1       3.674   5.343  19.536  0.00  0.00    +0.000 A 
ATOM      3  C   UNL     1       5.017   5.637  19.322  0.00  0.00    +0.000 A 
ATOM      4  C   UNL     1       5.594   5.481  18.051  0.00  0.00    +0.000 A 
ATOM      5  C   UNL     1       4.839   4.891  17.025  0.00  0.00    +0.000 A 
ATOM      6  C   UNL     1       3.496   4.549  17.269  0.00  0.00    +0.000 A 
ATOM      7  C   UNL     1       5.447   4.536  15.689  0.00  0.00    +0.000 C 
ATOM      8  C   UNL     1       6.790   5.204  15.401  0.00  0.00    +0.000 C 
ATOM      9  C   UNL     1       7.664   5.277  16.649  0.00  0.00    +0.000 C 
ATOM     10  C   UNL     1       6.980   6.054  17.791  0.00  0.00    +0.000 C 
ENDROOT
BRANCH   1  12
ATOM     11  C   UNL     1       1.363   3.410  19.603  0.00  0.00    +0.000 C 
ATOM     12  O   UNL     1       1.597   4.573  18.815  0.00  0.00    +0.000 OA
ENDBRANCH   1  12
BRANCH  10  13
ATOM     13  C   UNL     1       6.906   7.584  17.494  0.00  0.00    +0.000 C 
BRANCH  13  14
ATOM     14  C   UNL     1       8.185   8.348  17.893  0.00  0.00    +0.000 C 
BRANCH  14  15
ATOM     15  C   UNL     1       8.007   9.849  18.144  0.00  0.00    +0.000 C 
BRANCH  15  16
ATOM     16  N   UNL     1       9.266  10.598  18.215  0.00  0.00    +0.000 NA
ATOM     17  C   UNL     1       9.323  11.864  17.453  0.00  0.00    +0.000 C 
ATOM     18  C   UNL     1       8.238  12.905  17.748  0.00  0.00    +0.000 C 
ATOM     19  C   UNL     1      10.726  12.502  17.503  0.00  0.00    +0.000 C 
ATOM     20  C   UNL     1      11.278  12.589  18.914  0.00  0.00    +0.000 C 
ATOM     21  C   UNL     1      11.286  11.196  19.522  0.00  0.00    +0.000 C 
ATOM     22  C   UNL     1       9.881  10.578  19.552  0.00  0.00    +0.000 C 
ATOM     23  C   UNL     1       9.038  11.159  20.695  0.00  0.00    +0.000 C 
ENDBRANCH  15  16
ENDBRANCH  14  15
ENDBRANCH  13  14
ENDBRANCH  10  13
TORSDOF 5
ENDMDL
MODEL 7
REMARK VINA RESULT:      -6.8      1.612      2.764
REMARK  Name = 
REMARK  8 active torsions:
REMARK  status: ('A' for Active; 'I' for Inactive)
REMARK    1  A    between atoms: C_1  and  O_2
REMARK    2  A    between atoms: O_2  and  C_3
REMARK    3  A    between atoms: C_12  and  C_13
REMARK    4  A    between atoms: C_13  and  C_14
REMARK    5  A    between atoms: C_14  and  C_15
REMARK    6  A    between atoms: C_15  and  N_16
REMARK    7  A    between atoms: C_17  and  C_18
REMARK    8  A    between atoms: C_22  and  C_23
REMARK                            x       y       z     vdW  Elec       q    Type
REMARK                         _______ _______ _______ _____ _____    ______ ____
ROOT
ATOM      1  C   UNL     1      -1.046  10.905  18.434  0.00  0.00    +0.000 A 
ATOM      2  C   UNL     1      -0.008  10.119  17.950  0.00  0.00    +0.000 A 
ATOM      3  C   UNL     1       0.840   9.464  18.837  0.00  0.00    +0.000 A 
ATOM      4  C   UNL     1       0.603   9.502  20.221  0.00  0.00    +0.000 A 
ATOM      5  C   UNL     1      -0.420  10.326  20.716  0.00  0.00    +0.000 A 
ATOM      6  C   UNL     1      -1.238  11.026  19.811  0.00  0.00    +0.000 A 
ATOM      7  C   UNL     1      -0.619  10.550  22.197  0.00  0.00    +0.000 C 
ATOM      8  C   UNL     1       0.090   9.539  23.096  0.00  0.00    +0.000 C 
ATOM      9  C   UNL     1       1.466   9.166  22.552  0.00  0.00    +0.000 C 
ATOM     10  C   UNL     1       1.386   8.570  21.133  0.00  0.00    +0.000 C 
ENDROOT
BRANCH   1  12
ATOM     11  C   UNL     1      -3.224  11.519  17.816  0.00  0.00    +0.000 C 
ATOM     12  O   UNL     1      -1.840  11.479  17.481  0.00  0.00    +0.000 OA
ENDBRANCH   1  12
BRANCH  10  13
ATOM     13  C   UNL     1       0.765   7.138  21.136  0.00  0.00    +0.000 C 
BRANCH  13  14
ATOM     14  C   UNL     1       1.748   6.042  20.673  0.00  0.00    +0.000 C 
BRANCH  14  15
ATOM     15  C   UNL     1       2.805   6.490  19.658  0.00  0.00    +0.000 C 
BRANCH  15  16
ATOM     16  N   UNL     1       3.538   5.385  19.032  0.00  0.00    +0.000 NA
ATOM     17  C   UNL     1       2.729   4.241  18.559  0.00  0.00    +0.000 C 
ATOM     18  C   UNL     1       1.590   4.550  17.582  0.00  0.00    +0.000 C 
ATOM     19  C   UNL     1       3.611   3.092  18.030  0.00  0.00    +0.000 C 
ATOM     20  C   UNL     1       4.664   3.570  17.047  0.00  0.00    +0.000 C 
ATOM     21  C   UNL     1       5.505   4.645  17.715  0.00  0.00    +0.000 C 
ATOM     22  C   UNL     1       4.650   5.833  18.178  0.00  0.00    +0.000 C 
ATOM     23  C   UNL     1       4.276   6.745  17.001  0.00  0.00    +0.000 C 
ENDBRANCH  15  16
ENDBRANCH  14  15
ENDBRANCH  13  14
ENDBRANCH  10  13
TORSDOF 5
ENDMDL
MODEL 8
REMARK VINA RESULT:      -6.8      5.156      7.530
REMARK  Name = 
REMARK  8 active torsions:
REMARK  status: ('A' for Active; 'I' for Inactive)
REMARK    1  A    between atoms: C_1  and  O_2
REMARK    2  A    between atoms: O_2  and  C_3
REMARK    3  A    between atoms: C_12  and  C_13
REMARK    4  A    between atoms: C_13  and  C_14
REMARK    5  A    between atoms: C_14  and  C_15
REMARK    6  A    between atoms: C_15  and  N_16
REMARK    7  A    between atoms: C_17  and  C_18
REMARK    8  A    between atoms: C_22  and  C_23
REMARK                            x       y       z     vdW  Elec       q    Type
REMARK                         _______ _______ _______ _____ _____    ______ ____
ROOT
ATOM      1  C   UNL     1       6.468   4.444  13.785  0.00  0.00    +0.000 A 
ATOM      2  C   UNL     1       5.298   3.946  14.346  0.00  0.00    +0.000 A 
ATOM      3  C   UNL     1       4.961   4.271  15.655  0.00  0.00    +0.000 A 
ATOM      4  C   UNL     1       5.737   5.180  16.394  0.00  0.00    +0.000 A 
ATOM      5  C   UNL     1       6.940   5.654  15.846  0.00  0.00    +0.000 A 
ATOM      6  C   UNL     1       7.296   5.276  14.539  0.00  0.00    +0.000 A 
ATOM      7  C   UNL     1       7.906   6.494  16.648  0.00  0.00    +0.000 C 
ATOM      8  C   UNL     1       7.319   7.104  17.919  0.00  0.00    +0.000 C 
ATOM      9  C   UNL     1       6.371   6.138  18.624  0.00  0.00    +0.000 C 
ATOM     10  C   UNL     1       5.201   5.709  17.716  0.00  0.00    +0.000 C 
ENDROOT
BRANCH   1  12
ATOM     11  C   UNL     1       5.883   3.013  12.020  0.00  0.00    +0.000 C 
ATOM     12  O   UNL     1       6.689   4.092  12.483  0.00  0.00    +0.000 OA
ENDBRANCH   1  12
BRANCH  10  13
ATOM     13  C   UNL     1       4.186   6.871  17.483  0.00  0.00    +0.000 C 
BRANCH  13  14
ATOM     14  C   UNL     1       2.841   6.665  18.211  0.00  0.00    +0.000 C 
BRANCH  14  15
ATOM     15  C   UNL     1       2.842   5.597  19.311  0.00  0.00    +0.000 C 
BRANCH  15  16
ATOM     16  N   UNL     1       2.301   4.302  18.888  0.00  0.00    +0.000 NA
ATOM     17  C   UNL     1       3.286   3.276  18.484  0.00  0.00    +0.000 C 
ATOM     18  C   UNL     1       4.380   2.923  19.496  0.00  0.00    +0.000 C 
ATOM     19  C   UNL     1       2.602   2.002  17.947  0.00  0.00    +0.000 C 
ATOM     20  C   UNL     1       1.505   1.497  18.867  0.00  0.00    +0.000 C 
ATOM     21  C   UNL     1       0.496   2.612  19.083  0.00  0.00    +0.000 C 
ATOM     22  C   UNL     1       1.148   3.862  19.691  0.00  0.00    +0.000 C 
ATOM     23  C   UNL     1       1.397   3.687  21.196  0.00  0.00    +0.000 C 
ENDBRANCH  15  16
ENDBRANCH  14  15
ENDBRANCH  13  14
ENDBRANCH  10  13
TORSDOF 5
ENDMDL
MODEL 9
REMARK VINA RESULT:      -6.8      3.388      7.874
REMARK  Name = 
REMARK  8 active torsions:
REMARK  status: ('A' for Active; 'I' for Inactive)
REMARK    1  A    between atoms: C_1  and  O_2
REMARK    2  A    between atoms: O_2  and  C_3
REMARK    3  A    between atoms: C_12  and  C_13
REMARK    4  A    between atoms: C_13  and  C_14
REMARK    5  A    between atoms: C_14  and  C_15
REMARK    6  A    between atoms: C_15  and  N_16
REMARK    7  A    between atoms: C_17  and  C_18
REMARK    8  A    between atoms: C_22  and  C_23
REMARK                            x       y       z     vdW  Elec       q    Type
REMARK                         _______ _______ _______ _____ _____    ______ ____
ROOT
ATOM      1  C   UNL     1       6.066   5.142  16.138  0.00  0.00    +0.000 A 
ATOM      2  C   UNL     1       5.487   6.387  16.351  0.00  0.00    +0.000 A 
ATOM      3  C   UNL     1       4.216   6.478  16.907  0.00  0.00    +0.000 A 
ATOM      4  C   UNL     1       3.542   5.330  17.354  0.00  0.00    +0.000 A 
ATOM      5  C   UNL     1       4.105   4.067  17.106  0.00  0.00    +0.000 A 
ATOM      6  C   UNL     1       5.369   3.986  16.494  0.00  0.00    +0.000 A 
ATOM      7  C   UNL     1       3.359   2.788  17.402  0.00  0.00    +0.000 C 
ATOM      8  C   UNL     1       2.155   2.951  18.328  0.00  0.00    +0.000 C 
ATOM      9  C   UNL     1       1.389   4.238  18.037  0.00  0.00    +0.000 C 
ATOM     10  C   UNL     1       2.279   5.488  18.187  0.00  0.00    +0.000 C 
ENDROOT
BRANCH   1  12
ATOM     11  C   UNL     1       7.399   4.847  14.231  0.00  0.00    +0.000 C 
ATOM     12  O   UNL     1       7.330   5.164  15.618  0.00  0.00    +0.000 OA
ENDBRANCH   1  12
BRANCH  10  13
ATOM     13  C   UNL     1       2.628   5.780  19.680  0.00  0.00    +0.000 C 
BRANCH  13  14
ATOM     14  C   UNL     1       2.440   7.260  20.075  0.00  0.00    +0.000 C 
BRANCH  14  15
ATOM     15  C   UNL     1       1.591   8.098  19.112  0.00  0.00    +0.000 C 
BRANCH  15  16
ATOM     16  N   UNL     1       1.293   9.449  19.598  0.00  0.00    +0.000 NA
ATOM     17  C   UNL     1       0.629  10.361  18.642  0.00  0.00    +0.000 C 
ATOM     18  C   UNL     1      -0.683   9.880  18.014  0.00  0.00    +0.000 C 
ATOM     19  C   UNL     1       0.474  11.783  19.218  0.00  0.00    +0.000 C 
ATOM     20  C   UNL     1      -0.125  11.786  20.613  0.00  0.00    +0.000 C 
ATOM     21  C   UNL     1       0.736  10.919  21.516  0.00  0.00    +0.000 C 
ATOM     22  C   UNL     1       0.836   9.478  20.997  0.00  0.00    +0.000 C 
ATOM     23  C   UNL     1      -0.437   8.680  21.312  0.00  0.00    +0.000 C 
ENDBRANCH  15  16
ENDBRANCH  14  15
ENDBRANCH  13  14
ENDBRANCH  10  13
TORSDOF 5
ENDMDL
