MODEL 1
REMARK VINA RESULT:      -9.2      0.000      0.000
REMARK  Name = 
REMARK  11 active torsions:
REMARK  status: ('A' for Active; 'I' for Inactive)
REMARK    1  A    between atoms: C_1  and  C_2
REMARK    2  A    between atoms: C_2  and  C_3
REMARK    3  A    between atoms: C_3  and  S_4
REMARK    4  A    between atoms: S_4  and  C_5
REMARK    5  A    between atoms: N_8  and  N_9
REMARK    6  A    between atoms: C_10  and  C_11
REMARK    7  A    between atoms: C_14  and  N_15
REMARK    8  A    between atoms: N_15  and  C_16
REMARK    9  A    between atoms: N_15  and  C_17
REMARK   10  A    between atoms: N_23  and  C_24
REMARK   11  A    between atoms: C_24  and  C_25
REMARK                            x       y       z     vdW  Elec       q    Type
REMARK                         _______ _______ _______ _____ _____    ______ ____
ROOT
ATOM      1  C   UNL     1       7.002   5.457  15.954  0.00  0.00    +0.000 A 
ATOM      2  N   UNL     1       7.680   6.391  16.657  0.00  0.00    +0.000 NA
ATOM      3  C   UNL     1       7.561   6.434  18.019  0.00  0.00    +0.000 A 
ATOM      4  N   UNL     1       8.252   7.379  18.810  0.00  0.00    +0.000 N 
ATOM      5  C   UNL     1       6.726   5.476  18.615  0.00  0.00    +0.000 A 
ATOM      6  N   UNL     1       6.361   5.237  19.917  0.00  0.00    +0.000 NA
ATOM      7  N   UNL     1       5.505   4.219  19.923  0.00  0.00    +0.000 NA
ATOM      8  N   UNL     1       5.353   3.804  18.641  0.00  0.00    +0.000 N 
ATOM      9  C   UNL     1       6.090   4.575  17.783  0.00  0.00    +0.000 A 
ATOM     10  N   UNL     1       6.176   4.508  16.445  0.00  0.00    +0.000 NA
ATOM     11  H   UNL     1       7.975   7.335  19.790  0.00  0.00    +0.000 HD
ENDROOT
BRANCH   4  12
ATOM     12  N   UNL     1       8.579   8.581  18.254  0.00  0.00    +0.000 NA
ATOM     13  C   UNL     1       9.037   9.456  19.096  0.00  0.00    +0.000 C 
BRANCH  13  14
ATOM     14  C   UNL     1       9.421  10.825  18.692  0.00  0.00    +0.000 A 
ATOM     15  C   UNL     1       8.564  11.622  17.943  0.00  0.00    +0.000 A 
ATOM     16  C   UNL     1       8.957  12.916  17.569  0.00  0.00    +0.000 A 
ATOM     17  C   UNL     1      10.203  13.464  17.928  0.00  0.00    +0.000 A 
ATOM     18  C   UNL     1      11.040  12.631  18.689  0.00  0.00    +0.000 A 
ATOM     19  C   UNL     1      10.665  11.331  19.071  0.00  0.00    +0.000 A 
BRANCH  17  20
ATOM     20  N   UNL     1      10.576  14.738  17.543  0.00  0.00    +0.000 N 
ATOM     21  C   UNL     1      11.921  15.035  17.057  0.00  0.00    +0.000 C 
ATOM     22  C   UNL     1       9.636  15.853  17.488  0.00  0.00    +0.000 C 
ENDBRANCH  17  20
ENDBRANCH  13  14
ENDBRANCH   4  12
BRANCH   1  23
ATOM     23  S   UNL     1       7.150   5.501  14.180  0.00  0.00    +0.000 S 
BRANCH  23  24
ATOM     24  C   UNL     1       6.167   4.026  13.759  0.00  0.00    +0.000 C 
BRANCH  24  26
ATOM     25  C   UNL     1       5.413   2.678  11.759  0.00  0.00    +0.000 C 
ATOM     26  C   UNL     1       6.491   3.589  12.329  0.00  0.00    +0.000 C 
ENDBRANCH  24  26
ENDBRANCH  23  24
ENDBRANCH   1  23
BRANCH   8  27
ATOM     27  C   UNL     1       4.382   2.781  18.309  0.00  0.00    +0.000 C 
BRANCH  27  28
ATOM     28  C   UNL     1       3.102   2.922  19.094  0.00  0.00    +0.000 A 
ATOM     29  C   UNL     1       2.993   2.397  20.392  0.00  0.00    +0.000 A 
ATOM     30  C   UNL     1       1.818   2.563  21.129  0.00  0.00    +0.000 A 
ATOM     31  C   UNL     1       0.735   3.245  20.575  0.00  0.00    +0.000 A 
ATOM     32  C   UNL     1       0.825   3.754  19.281  0.00  0.00    +0.000 A 
ATOM     33  C   UNL     1       2.000   3.591  18.543  0.00  0.00    +0.000 A 
ENDBRANCH  27  28
ENDBRANCH   8  27
TORSDOF 8
ENDMDL
MODEL 2
REMARK VINA RESULT:      -9.2      0.200      1.348
REMARK  Name = 
REMARK  11 active torsions:
REMARK  status: ('A' for Active; 'I' for Inactive)
REMARK    1  A    between atoms: C_1  and  C_2
REMARK    2  A    between atoms: C_2  and  C_3
REMARK    3  A    between atoms: C_3  and  S_4
REMARK    4  A    between atoms: S_4  and  C_5
REMARK    5  A    between atoms: N_8  and  N_9
REMARK    6  A    between atoms: C_10  and  C_11
REMARK    7  A    between atoms: C_14  and  N_15
REMARK    8  A    between atoms: N_15  and  C_16
REMARK    9  A    between atoms: N_15  and  C_17
REMARK   10  A    between atoms: N_23  and  C_24
REMARK   11  A    between atoms: C_24  and  C_25
REMARK                            x       y       z     vdW  Elec       q    Type
REMARK                         _______ _______ _______ _____ _____    ______ ____
ROOT
ATOM      1  C   UNL     1       6.979   5.397  15.957  0.00  0.00    +0.000 A 
ATOM      2  N   UNL     1       7.659   6.335  16.653  0.00  0.00    +0.000 NA
ATOM      3  C   UNL     1       7.555   6.378  18.016  0.00  0.00    +0.000 A 
ATOM      4  N   UNL     1       8.249   7.326  18.800  0.00  0.00    +0.000 N 
ATOM      5  C   UNL     1       6.731   5.415  18.621  0.00  0.00    +0.000 A 
ATOM      6  N   UNL     1       6.383   5.174  19.927  0.00  0.00    +0.000 NA
ATOM      7  N   UNL     1       5.532   4.151  19.943  0.00  0.00    +0.000 NA
ATOM      8  N   UNL     1       5.369   3.736  18.663  0.00  0.00    +0.000 N 
ATOM      9  C   UNL     1       6.091   4.510  17.797  0.00  0.00    +0.000 A 
ATOM     10  N   UNL     1       6.163   4.444  16.457  0.00  0.00    +0.000 NA
ATOM     11  H   UNL     1       7.983   7.281  19.783  0.00  0.00    +0.000 HD
ENDROOT
BRANCH   4  12
ATOM     12  N   UNL     1       8.564   8.530  18.240  0.00  0.00    +0.000 NA
ATOM     13  C   UNL     1       9.024   9.408  19.077  0.00  0.00    +0.000 C 
BRANCH  13  14
ATOM     14  C   UNL     1       9.396  10.780  18.669  0.00  0.00    +0.000 A 
ATOM     15  C   UNL     1      10.601  11.347  19.065  0.00  0.00    +0.000 A 
ATOM     16  C   UNL     1      10.927  12.652  18.667  0.00  0.00    +0.000 A 
ATOM     17  C   UNL     1      10.077  13.434  17.862  0.00  0.00    +0.000 A 
ATOM     18  C   UNL     1       8.870  12.826  17.478  0.00  0.00    +0.000 A 
ATOM     19  C   UNL     1       8.525  11.520  17.869  0.00  0.00    +0.000 A 
BRANCH  17  20
ATOM     20  N   UNL     1      10.410  14.722  17.487  0.00  0.00    +0.000 N 
ATOM     21  C   UNL     1       9.674  15.884  17.978  0.00  0.00    +0.000 C 
ATOM     22  C   UNL     1      11.579  15.027  16.668  0.00  0.00    +0.000 C 
ENDBRANCH  17  20
ENDBRANCH  13  14
ENDBRANCH   4  12
BRANCH   1  23
ATOM     23  S   UNL     1       7.106   5.443  14.182  0.00  0.00    +0.000 S 
BRANCH  23  24
ATOM     24  C   UNL     1       6.210   3.908  13.777  0.00  0.00    +0.000 C 
BRANCH  24  26
ATOM     25  C   UNL     1       5.082   3.065  11.679  0.00  0.00    +0.000 C 
ATOM     26  C   UNL     1       6.370   3.605  12.285  0.00  0.00    +0.000 C 
ENDBRANCH  24  26
ENDBRANCH  23  24
ENDBRANCH   1  23
BRANCH   8  27
ATOM     27  C   UNL     1       4.400   2.707  18.342  0.00  0.00    +0.000 C 
BRANCH  27  28
ATOM     28  C   UNL     1       3.100   2.884  19.086  0.00  0.00    +0.000 A 
ATOM     29  C   UNL     1       1.947   3.333  18.423  0.00  0.00    +0.000 A 
ATOM     30  C   UNL     1       0.737   3.461  19.109  0.00  0.00    +0.000 A 
ATOM     31  C   UNL     1       0.667   3.150  20.467  0.00  0.00    +0.000 A 
ATOM     32  C   UNL     1       1.809   2.722  21.140  0.00  0.00    +0.000 A 
ATOM     33  C   UNL     1       3.019   2.592  20.455  0.00  0.00    +0.000 A 
ENDBRANCH  27  28
ENDBRANCH   8  27
TORSDOF 8
ENDMDL
MODEL 3
REMARK VINA RESULT:      -8.5      2.756      4.375
REMARK  Name = 
REMARK  11 active torsions:
REMARK  status: ('A' for Active; 'I' for Inactive)
REMARK    1  A    between atoms: C_1  and  C_2
REMARK    2  A    between atoms: C_2  and  C_3
REMARK    3  A    between atoms: C_3  and  S_4
REMARK    4  A    between atoms: S_4  and  C_5
REMARK    5  A    between atoms: N_8  and  N_9
REMARK    6  A    between atoms: C_10  and  C_11
REMARK    7  A    between atoms: C_14  and  N_15
REMARK    8  A    between atoms: N_15  and  C_16
REMARK    9  A    between atoms: N_15  and  C_17
REMARK   10  A    between atoms: N_23  and  C_24
REMARK   11  A    between atoms: C_24  and  C_25
REMARK                            x       y       z     vdW  Elec       q    Type
REMARK                         _______ _______ _______ _____ _____    ______ ____
ROOT
ATOM      1  C   UNL     1       3.207   7.227  17.746  0.00  0.00    +0.000 A 
ATOM      2  N   UNL     1       4.418   7.800  17.564  0.00  0.00    +0.000 NA
ATOM      3  C   UNL     1       5.506   7.017  17.293  0.00  0.00    +0.000 A 
ATOM      4  N   UNL     1       6.795   7.556  17.083  0.00  0.00    +0.000 N 
ATOM      5  C   UNL     1       5.288   5.632  17.212  0.00  0.00    +0.000 A 
ATOM      6  N   UNL     1       6.125   4.569  16.984  0.00  0.00    +0.000 NA
ATOM      7  N   UNL     1       5.402   3.455  17.052  0.00  0.00    +0.000 NA
ATOM      8  N   UNL     1       4.118   3.815  17.294  0.00  0.00    +0.000 N 
ATOM      9  C   UNL     1       4.002   5.174  17.417  0.00  0.00    +0.000 A 
ATOM     10  N   UNL     1       2.913   5.910  17.694  0.00  0.00    +0.000 NA
ATOM     11  H   UNL     1       7.504   6.831  16.991  0.00  0.00    +0.000 HD
ENDROOT
BRANCH   4  12
ATOM     12  N   UNL     1       7.112   8.741  17.682  0.00  0.00    +0.000 NA
ATOM     13  C   UNL     1       8.381   8.917  17.885  0.00  0.00    +0.000 C 
BRANCH  13  14
ATOM     14  C   UNL     1       8.922  10.124  18.546  0.00  0.00    +0.000 A 
ATOM     15  C   UNL     1       9.380  10.082  19.857  0.00  0.00    +0.000 A 
ATOM     16  C   UNL     1       9.885  11.244  20.461  0.00  0.00    +0.000 A 
ATOM     17  C   UNL     1       9.958  12.478  19.788  0.00  0.00    +0.000 A 
ATOM     18  C   UNL     1       9.490  12.480  18.464  0.00  0.00    +0.000 A 
ATOM     19  C   UNL     1       8.979  11.327  17.842  0.00  0.00    +0.000 A 
BRANCH  17  20
ATOM     20  N   UNL     1      10.449  13.614  20.403  0.00  0.00    +0.000 N 
ATOM     21  C   UNL     1      11.539  14.397  19.824  0.00  0.00    +0.000 C 
ATOM     22  C   UNL     1       9.852  14.179  21.610  0.00  0.00    +0.000 C 
ENDBRANCH  17  20
ENDBRANCH  13  14
ENDBRANCH   4  12
BRANCH   1  23
ATOM     23  S   UNL     1       1.849   8.300  18.163  0.00  0.00    +0.000 S 
BRANCH  23  24
ATOM     24  C   UNL     1       1.835   8.078  19.972  0.00  0.00    +0.000 C 
BRANCH  24  26
ATOM     25  C   UNL     1       0.966   9.075  22.125  0.00  0.00    +0.000 C 
ATOM     26  C   UNL     1       0.902   9.113  20.604  0.00  0.00    +0.000 C 
ENDBRANCH  24  26
ENDBRANCH  23  24
ENDBRANCH   1  23
BRANCH   8  27
ATOM     27  C   UNL     1       3.105   2.809  17.544  0.00  0.00    +0.000 C 
BRANCH  27  28
ATOM     28  C   UNL     1       2.575   2.860  18.955  0.00  0.00    +0.000 A 
ATOM     29  C   UNL     1       1.227   3.163  19.205  0.00  0.00    +0.000 A 
ATOM     30  C   UNL     1       0.732   3.173  20.512  0.00  0.00    +0.000 A 
ATOM     31  C   UNL     1       1.579   2.890  21.583  0.00  0.00    +0.000 A 
ATOM     32  C   UNL     1       2.923   2.606  21.348  0.00  0.00    +0.000 A 
ATOM     33  C   UNL     1       3.419   2.594  20.042  0.00  0.00    +0.000 A 
ENDBRANCH  27  28
ENDBRANCH   8  27
TORSDOF 8
ENDMDL
MODEL 4
REMARK VINA RESULT:      -8.4      2.724      4.214
REMARK  Name = 
REMARK  11 active torsions:
REMARK  status: ('A' for Active; 'I' for Inactive)
REMARK    1  A    between atoms: C_1  and  C_2
REMARK    2  A    between atoms: C_2  and  C_3
REMARK    3  A    between atoms: C_3  and  S_4
REMARK    4  A    between atoms: S_4  and  C_5
REMARK    5  A    between atoms: N_8  and  N_9
REMARK    6  A    between atoms: C_10  and  C_11
REMARK    7  A    between atoms: C_14  and  N_15
REMARK    8  A    between atoms: N_15  and  C_16
REMARK    9  A    between atoms: N_15  and  C_17
REMARK   10  A    between atoms: N_23  and  C_24
REMARK   11  A    between atoms: C_24  and  C_25
REMARK                            x       y       z     vdW  Elec       q    Type
REMARK                         _______ _______ _______ _____ _____    ______ ____
ROOT
ATOM      1  C   UNL     1       3.287   7.354  17.710  0.00  0.00    +0.000 A 
ATOM      2  N   UNL     1       4.521   7.893  17.594  0.00  0.00    +0.000 NA
ATOM      3  C   UNL     1       5.597   7.082  17.357  0.00  0.00    +0.000 A 
ATOM      4  N   UNL     1       6.909   7.585  17.215  0.00  0.00    +0.000 N 
ATOM      5  C   UNL     1       5.342   5.706  17.239  0.00  0.00    +0.000 A 
ATOM      6  N   UNL     1       6.157   4.622  17.028  0.00  0.00    +0.000 NA
ATOM      7  N   UNL     1       5.398   3.529  17.042  0.00  0.00    +0.000 NA
ATOM      8  N   UNL     1       4.115   3.925  17.233  0.00  0.00    +0.000 N 
ATOM      9  C   UNL     1       4.034   5.284  17.377  0.00  0.00    +0.000 A 
ATOM     10  N   UNL     1       2.957   6.048  17.619  0.00  0.00    +0.000 NA
ATOM     11  H   UNL     1       7.601   6.841  17.141  0.00  0.00    +0.000 HD
ENDROOT
BRANCH   4  12
ATOM     12  N   UNL     1       7.234   8.749  17.851  0.00  0.00    +0.000 NA
ATOM     13  C   UNL     1       8.492   9.061  17.790  0.00  0.00    +0.000 C 
BRANCH  13  14
ATOM     14  C   UNL     1       9.045  10.269  18.439  0.00  0.00    +0.000 A 
ATOM     15  C   UNL     1       9.329  11.414  17.706  0.00  0.00    +0.000 A 
ATOM     16  C   UNL     1       9.858  12.545  18.348  0.00  0.00    +0.000 A 
ATOM     17  C   UNL     1      10.116  12.580  19.731  0.00  0.00    +0.000 A 
ATOM     18  C   UNL     1       9.812  11.406  20.439  0.00  0.00    +0.000 A 
ATOM     19  C   UNL     1       9.284  10.262  19.814  0.00  0.00    +0.000 A 
BRANCH  17  20
ATOM     20  N   UNL     1      10.646  13.700  20.344  0.00  0.00    +0.000 N 
ATOM     21  C   UNL     1      11.721  14.479  19.733  0.00  0.00    +0.000 C 
ATOM     22  C   UNL     1      10.107  14.250  21.584  0.00  0.00    +0.000 C 
ENDBRANCH  17  20
ENDBRANCH  13  14
ENDBRANCH   4  12
BRANCH   1  23
ATOM     23  S   UNL     1       1.944   8.460  18.086  0.00  0.00    +0.000 S 
BRANCH  23  24
ATOM     24  C   UNL     1       1.782   8.139  19.873  0.00  0.00    +0.000 C 
BRANCH  24  26
ATOM     25  C   UNL     1      -0.075   8.719  21.485  0.00  0.00    +0.000 C 
ATOM     26  C   UNL     1       0.969   9.263  20.519  0.00  0.00    +0.000 C 
ENDBRANCH  24  26
ENDBRANCH  23  24
ENDBRANCH   1  23
BRANCH   8  27
ATOM     27  C   UNL     1       3.063   2.945  17.417  0.00  0.00    +0.000 C 
BRANCH  27  28
ATOM     28  C   UNL     1       2.554   2.904  18.836  0.00  0.00    +0.000 A 
ATOM     29  C   UNL     1       3.432   2.684  19.909  0.00  0.00    +0.000 A 
ATOM     30  C   UNL     1       2.961   2.682  21.224  0.00  0.00    +0.000 A 
ATOM     31  C   UNL     1       1.607   2.891  21.482  0.00  0.00    +0.000 A 
ATOM     32  C   UNL     1       0.722   3.092  20.424  0.00  0.00    +0.000 A 
ATOM     33  C   UNL     1       1.192   3.095  19.109  0.00  0.00    +0.000 A 
ENDBRANCH  27  28
ENDBRANCH   8  27
TORSDOF 8
ENDMDL
MODEL 5
REMARK VINA RESULT:      -8.4      8.053     10.609
REMARK  Name = 
REMARK  11 active torsions:
REMARK  status: ('A' for Active; 'I' for Inactive)
REMARK    1  A    between atoms: C_1  and  C_2
REMARK    2  A    between atoms: C_2  and  C_3
REMARK    3  A    between atoms: C_3  and  S_4
REMARK    4  A    between atoms: S_4  and  C_5
REMARK    5  A    between atoms: N_8  and  N_9
REMARK    6  A    between atoms: C_10  and  C_11
REMARK    7  A    between atoms: C_14  and  N_15
REMARK    8  A    between atoms: N_15  and  C_16
REMARK    9  A    between atoms: N_15  and  C_17
REMARK   10  A    between atoms: N_23  and  C_24
REMARK   11  A    between atoms: C_24  and  C_25
REMARK                            x       y       z     vdW  Elec       q    Type
REMARK                         _______ _______ _______ _____ _____    ______ ____
ROOT
ATOM      1  C   UNL     1      -1.339  11.093  19.025  0.00  0.00    +0.000 A 
ATOM      2  N   UNL     1      -0.470  10.068  19.159  0.00  0.00    +0.000 NA
ATOM      3  C   UNL     1       0.045   9.769  20.390  0.00  0.00    +0.000 A 
ATOM      4  N   UNL     1       0.949   8.703  20.596  0.00  0.00    +0.000 N 
ATOM      5  C   UNL     1      -0.382  10.563  21.467  0.00  0.00    +0.000 A 
ATOM      6  N   UNL     1      -0.070  10.567  22.803  0.00  0.00    +0.000 NA
ATOM      7  N   UNL     1      -0.734  11.567  23.377  0.00  0.00    +0.000 NA
ATOM      8  N   UNL     1      -1.477  12.168  22.416  0.00  0.00    +0.000 N 
ATOM      9  C   UNL     1      -1.275  11.581  21.196  0.00  0.00    +0.000 A 
ATOM     10  N   UNL     1      -1.793  11.909  20.002  0.00  0.00    +0.000 NA
ATOM     11  H   UNL     1       1.307   8.682  21.550  0.00  0.00    +0.000 HD
ENDROOT
BRANCH   4  12
ATOM     12  N   UNL     1       1.755   8.323  19.562  0.00  0.00    +0.000 NA
ATOM     13  C   UNL     1       2.223   7.117  19.662  0.00  0.00    +0.000 C 
BRANCH  13  14
ATOM     14  C   UNL     1       3.136   6.532  18.657  0.00  0.00    +0.000 A 
ATOM     15  C   UNL     1       3.754   7.324  17.697  0.00  0.00    +0.000 A 
ATOM     16  C   UNL     1       4.613   6.742  16.753  0.00  0.00    +0.000 A 
ATOM     17  C   UNL     1       4.891   5.362  16.730  0.00  0.00    +0.000 A 
ATOM     18  C   UNL     1       4.252   4.594  17.718  0.00  0.00    +0.000 A 
ATOM     19  C   UNL     1       3.387   5.159  18.671  0.00  0.00    +0.000 A 
BRANCH  17  20
ATOM     20  N   UNL     1       5.732   4.805  15.786  0.00  0.00    +0.000 N 
ATOM     21  C   UNL     1       5.254   4.405  14.465  0.00  0.00    +0.000 C 
ATOM     22  C   UNL     1       7.172   4.673  15.991  0.00  0.00    +0.000 C 
ENDBRANCH  17  20
ENDBRANCH  13  14
ENDBRANCH   4  12
BRANCH   1  23
ATOM     23  S   UNL     1      -1.915  11.469  17.383  0.00  0.00    +0.000 S 
BRANCH  23  24
ATOM     24  C   UNL     1      -2.893   9.966  17.056  0.00  0.00    +0.000 C 
BRANCH  24  26
ATOM     25  C   UNL     1      -3.708  10.218  14.677  0.00  0.00    +0.000 C 
ATOM     26  C   UNL     1      -2.701   9.542  15.598  0.00  0.00    +0.000 C 
ENDBRANCH  24  26
ENDBRANCH  23  24
ENDBRANCH   1  23
BRANCH   8  27
ATOM     27  C   UNL     1      -2.221  13.377  22.711  0.00  0.00    +0.000 C 
BRANCH  27  28
ATOM     28  C   UNL     1      -3.659  13.096  23.070  0.00  0.00    +0.000 A 
ATOM     29  C   UNL     1      -4.002  12.632  24.350  0.00  0.00    +0.000 A 
ATOM     30  C   UNL     1      -5.339  12.409  24.690  0.00  0.00    +0.000 A 
ATOM     31  C   UNL     1      -6.346  12.637  23.753  0.00  0.00    +0.000 A 
ATOM     32  C   UNL     1      -6.016  13.080  22.473  0.00  0.00    +0.000 A 
ATOM     33  C   UNL     1      -4.680  13.305  22.132  0.00  0.00    +0.000 A 
ENDBRANCH  27  28
ENDBRANCH   8  27
TORSDOF 8
ENDMDL
MODEL 6
REMARK VINA RESULT:      -8.3      2.641      4.237
REMARK  Name = 
REMARK  11 active torsions:
REMARK  status: ('A' for Active; 'I' for Inactive)
REMARK    1  A    between atoms: C_1  and  C_2
REMARK    2  A    between atoms: C_2  and  C_3
REMARK    3  A    between atoms: C_3  and  S_4
REMARK    4  A    between atoms: S_4  and  C_5
REMARK    5  A    between atoms: N_8  and  N_9
REMARK    6  A    between atoms: C_10  and  C_11
REMARK    7  A    between atoms: C_14  and  N_15
REMARK    8  A    between atoms: N_15  and  C_16
REMARK    9  A    between atoms: N_15  and  C_17
REMARK   10  A    between atoms: N_23  and  C_24
REMARK   11  A    between atoms: C_24  and  C_25
REMARK                            x       y       z     vdW  Elec       q    Type
REMARK                         _______ _______ _______ _____ _____    ______ ____
ROOT
ATOM      1  C   UNL     1       3.286   6.947  17.873  0.00  0.00    +0.000 A 
ATOM      2  N   UNL     1       4.433   7.594  17.568  0.00  0.00    +0.000 NA
ATOM      3  C   UNL     1       5.526   6.883  17.156  0.00  0.00    +0.000 A 
ATOM      4  N   UNL     1       6.748   7.502  16.812  0.00  0.00    +0.000 N 
ATOM      5  C   UNL     1       5.380   5.489  17.068  0.00  0.00    +0.000 A 
ATOM      6  N   UNL     1       6.245   4.482  16.720  0.00  0.00    +0.000 NA
ATOM      7  N   UNL     1       5.600   3.325  16.844  0.00  0.00    +0.000 NA
ATOM      8  N   UNL     1       4.334   3.604  17.240  0.00  0.00    +0.000 N 
ATOM      9  C   UNL     1       4.155   4.951  17.408  0.00  0.00    +0.000 A 
ATOM     10  N   UNL     1       3.065   5.616  17.824  0.00  0.00    +0.000 NA
ATOM     11  H   UNL     1       7.483   6.822  16.623  0.00  0.00    +0.000 HD
ENDROOT
BRANCH   4  12
ATOM     12  N   UNL     1       7.063   8.693  17.399  0.00  0.00    +0.000 NA
ATOM     13  C   UNL     1       8.297   8.789  17.791  0.00  0.00    +0.000 C 
BRANCH  13  14
ATOM     14  C   UNL     1       8.825   9.990  18.473  0.00  0.00    +0.000 A 
ATOM     15  C   UNL     1       9.290   9.928  19.781  0.00  0.00    +0.000 A 
ATOM     16  C   UNL     1       9.782  11.085  20.405  0.00  0.00    +0.000 A 
ATOM     17  C   UNL     1       9.835  12.333  19.757  0.00  0.00    +0.000 A 
ATOM     18  C   UNL     1       9.361  12.354  18.434  0.00  0.00    +0.000 A 
ATOM     19  C   UNL     1       8.862  11.207  17.792  0.00  0.00    +0.000 A 
BRANCH  17  20
ATOM     20  N   UNL     1      10.315  13.463  20.391  0.00  0.00    +0.000 N 
ATOM     21  C   UNL     1       9.785  13.911  21.677  0.00  0.00    +0.000 C 
ATOM     22  C   UNL     1      11.450  14.230  19.886  0.00  0.00    +0.000 C 
ENDBRANCH  17  20
ENDBRANCH  13  14
ENDBRANCH   4  12
BRANCH   1  23
ATOM     23  S   UNL     1       1.926   7.929  18.468  0.00  0.00    +0.000 S 
BRANCH  23  24
ATOM     24  C   UNL     1       1.859   7.337  20.191  0.00  0.00    +0.000 C 
BRANCH  24  26
ATOM     25  C   UNL     1       0.641   9.551  20.230  0.00  0.00    +0.000 C 
ATOM     26  C   UNL     1       1.147   8.378  21.059  0.00  0.00    +0.000 C 
ENDBRANCH  24  26
ENDBRANCH  23  24
ENDBRANCH   1  23
BRANCH   8  27
ATOM     27  C   UNL     1       3.417   2.535  17.580  0.00  0.00    +0.000 C 
BRANCH  27  28
ATOM     28  C   UNL     1       2.757   2.742  18.920  0.00  0.00    +0.000 A 
ATOM     29  C   UNL     1       3.486   2.589  20.111  0.00  0.00    +0.000 A 
ATOM     30  C   UNL     1       2.880   2.818  21.349  0.00  0.00    +0.000 A 
ATOM     31  C   UNL     1       1.539   3.194  21.412  0.00  0.00    +0.000 A 
ATOM     32  C   UNL     1       0.801   3.331  20.238  0.00  0.00    +0.000 A 
ATOM     33  C   UNL     1       1.405   3.104  19.000  0.00  0.00    +0.000 A 
ENDBRANCH  27  28
ENDBRANCH   8  27
TORSDOF 8
ENDMDL
MODEL 7
REMARK VINA RESULT:      -8.3      8.082     10.821
REMARK  Name = 
REMARK  11 active torsions:
REMARK  status: ('A' for Active; 'I' for Inactive)
REMARK    1  A    between atoms: C_1  and  C_2
REMARK    2  A    between atoms: C_2  and  C_3
REMARK    3  A    between atoms: C_3  and  S_4
REMARK    4  A    between atoms: S_4  and  C_5
REMARK    5  A    between atoms: N_8  and  N_9
REMARK    6  A    between atoms: C_10  and  C_11
REMARK    7  A    between atoms: C_14  and  N_15
REMARK    8  A    between atoms: N_15  and  C_16
REMARK    9  A    between atoms: N_15  and  C_17
REMARK   10  A    between atoms: N_23  and  C_24
REMARK   11  A    between atoms: C_24  and  C_25
REMARK                            x       y       z     vdW  Elec       q    Type
REMARK                         _______ _______ _______ _____ _____    ______ ____
ROOT
ATOM      1  C   UNL     1      -1.318  10.995  19.000  0.00  0.00    +0.000 A 
ATOM      2  N   UNL     1      -0.437   9.977  19.118  0.00  0.00    +0.000 NA
ATOM      3  C   UNL     1       0.112   9.693  20.338  0.00  0.00    +0.000 A 
ATOM      4  N   UNL     1       1.029   8.635  20.528  0.00  0.00    +0.000 N 
ATOM      5  C   UNL     1      -0.290  10.494  21.418  0.00  0.00    +0.000 A 
ATOM      6  N   UNL     1       0.058  10.512  22.746  0.00  0.00    +0.000 NA
ATOM      7  N   UNL     1      -0.597  11.512  23.329  0.00  0.00    +0.000 NA
ATOM      8  N   UNL     1      -1.370  12.100  22.383  0.00  0.00    +0.000 N 
ATOM      9  C   UNL     1      -1.198  11.503  21.164  0.00  0.00    +0.000 A 
ATOM     10  N   UNL     1      -1.751  11.816  19.981  0.00  0.00    +0.000 NA
ATOM     11  H   UNL     1       1.413   8.624  21.472  0.00  0.00    +0.000 HD
ENDROOT
BRANCH   4  12
ATOM     12  N   UNL     1       1.810   8.251  19.476  0.00  0.00    +0.000 NA
ATOM     13  C   UNL     1       2.273   7.042  19.564  0.00  0.00    +0.000 C 
BRANCH  13  14
ATOM     14  C   UNL     1       3.160   6.453  18.539  0.00  0.00    +0.000 A 
ATOM     15  C   UNL     1       3.247   5.077  18.367  0.00  0.00    +0.000 A 
ATOM     16  C   UNL     1       4.100   4.544  17.389  0.00  0.00    +0.000 A 
ATOM     17  C   UNL     1       4.888   5.352  16.548  0.00  0.00    +0.000 A 
ATOM     18  C   UNL     1       4.770   6.738  16.748  0.00  0.00    +0.000 A 
ATOM     19  C   UNL     1       3.922   7.290  17.724  0.00  0.00    +0.000 A 
BRANCH  17  20
ATOM     20  N   UNL     1       5.730   4.809  15.596  0.00  0.00    +0.000 N 
ATOM     21  C   UNL     1       7.156   4.618  15.845  0.00  0.00    +0.000 C 
ATOM     22  C   UNL     1       5.247   4.288  14.321  0.00  0.00    +0.000 C 
ENDBRANCH  17  20
ENDBRANCH  13  14
ENDBRANCH   4  12
BRANCH   1  23
ATOM     23  S   UNL     1      -1.941  11.353  17.371  0.00  0.00    +0.000 S 
BRANCH  23  24
ATOM     24  C   UNL     1      -3.458  10.344  17.401  0.00  0.00    +0.000 C 
BRANCH  24  26
ATOM     25  C   UNL     1      -5.043  11.945  18.546  0.00  0.00    +0.000 C 
ATOM     26  C   UNL     1      -4.678  11.254  17.239  0.00  0.00    +0.000 C 
ENDBRANCH  24  26
ENDBRANCH  23  24
ENDBRANCH   1  23
BRANCH   8  27
ATOM     27  C   UNL     1      -2.115  13.306  22.688  0.00  0.00    +0.000 C 
BRANCH  27  28
ATOM     28  C   UNL     1      -3.561  13.025  23.014  0.00  0.00    +0.000 A 
ATOM     29  C   UNL     1      -3.945  12.647  24.310  0.00  0.00    +0.000 A 
ATOM     30  C   UNL     1      -5.290  12.424  24.616  0.00  0.00    +0.000 A 
ATOM     31  C   UNL     1      -6.264  12.567  23.629  0.00  0.00    +0.000 A 
ATOM     32  C   UNL     1      -5.893  12.924  22.334  0.00  0.00    +0.000 A 
ATOM     33  C   UNL     1      -4.549  13.149  22.027  0.00  0.00    +0.000 A 
ENDBRANCH  27  28
ENDBRANCH   8  27
TORSDOF 8
ENDMDL
MODEL 8
REMARK VINA RESULT:      -8.3      5.655      8.685
REMARK  Name = 
REMARK  11 active torsions:
REMARK  status: ('A' for Active; 'I' for Inactive)
REMARK    1  A    between atoms: C_1  and  C_2
REMARK    2  A    between atoms: C_2  and  C_3
REMARK    3  A    between atoms: C_3  and  S_4
REMARK    4  A    between atoms: S_4  and  C_5
REMARK    5  A    between atoms: N_8  and  N_9
REMARK    6  A    between atoms: C_10  and  C_11
REMARK    7  A    between atoms: C_14  and  N_15
REMARK    8  A    between atoms: N_15  and  C_16
REMARK    9  A    between atoms: N_15  and  C_17
REMARK   10  A    between atoms: N_23  and  C_24
REMARK   11  A    between atoms: C_24  and  C_25
REMARK                            x       y       z     vdW  Elec       q    Type
REMARK                         _______ _______ _______ _____ _____    ______ ____
ROOT
ATOM      1  C   UNL     1       3.131   5.192  19.148  0.00  0.00    +0.000 A 
ATOM      2  N   UNL     1       2.440   6.352  19.101  0.00  0.00    +0.000 NA
ATOM      3  C   UNL     1       2.722   7.272  18.129  0.00  0.00    +0.000 A 
ATOM      4  N   UNL     1       2.028   8.497  18.021  0.00  0.00    +0.000 N 
ATOM      5  C   UNL     1       3.734   6.939  17.214  0.00  0.00    +0.000 A 
ATOM      6  N   UNL     1       4.284   7.608  16.149  0.00  0.00    +0.000 NA
ATOM      7  N   UNL     1       5.249   6.847  15.641  0.00  0.00    +0.000 NA
ATOM      8  N   UNL     1       5.288   5.700  16.362  0.00  0.00    +0.000 N 
ATOM      9  C   UNL     1       4.363   5.720  17.371  0.00  0.00    +0.000 A 
ATOM     10  N   UNL     1       4.120   4.798  18.316  0.00  0.00    +0.000 NA
ATOM     11  H   UNL     1       2.428   9.104  17.307  0.00  0.00    +0.000 HD
ENDROOT
BRANCH   4  12
ATOM     12  N   UNL     1       1.492   9.045  19.151  0.00  0.00    +0.000 NA
ATOM     13  C   UNL     1       0.544   9.904  18.933  0.00  0.00    +0.000 C 
BRANCH  13  14
ATOM     14  C   UNL     1      -0.143  10.626  20.025  0.00  0.00    +0.000 A 
ATOM     15  C   UNL     1      -1.113  11.584  19.757  0.00  0.00    +0.000 A 
ATOM     16  C   UNL     1      -1.746  12.257  20.813  0.00  0.00    +0.000 A 
ATOM     17  C   UNL     1      -1.445  12.001  22.164  0.00  0.00    +0.000 A 
ATOM     18  C   UNL     1      -0.463  11.023  22.396  0.00  0.00    +0.000 A 
ATOM     19  C   UNL     1       0.183  10.340  21.351  0.00  0.00    +0.000 A 
BRANCH  17  20
ATOM     20  N   UNL     1      -2.072  12.680  23.191  0.00  0.00    +0.000 N 
ATOM     21  C   UNL     1      -1.522  13.912  23.752  0.00  0.00    +0.000 C 
ATOM     22  C   UNL     1      -3.376  12.287  23.717  0.00  0.00    +0.000 C 
ENDBRANCH  17  20
ENDBRANCH  13  14
ENDBRANCH   4  12
BRANCH   1  23
ATOM     23  S   UNL     1       2.759   4.071  20.480  0.00  0.00    +0.000 S 
BRANCH  23  24
ATOM     24  C   UNL     1       3.097   2.487  19.644  0.00  0.00    +0.000 C 
BRANCH  24  26
ATOM     25  C   UNL     1       0.609   2.552  19.207  0.00  0.00    +0.000 C 
ATOM     26  C   UNL     1       1.977   2.191  18.644  0.00  0.00    +0.000 C 
ENDBRANCH  24  26
ENDBRANCH  23  24
ENDBRANCH   1  23
BRANCH   8  27
ATOM     27  C   UNL     1       6.325   4.716  16.124  0.00  0.00    +0.000 C 
BRANCH  27  28
ATOM     28  C   UNL     1       6.584   4.493  14.655  0.00  0.00    +0.000 A 
ATOM     29  C   UNL     1       5.805   3.589  13.917  0.00  0.00    +0.000 A 
ATOM     30  C   UNL     1       6.025   3.413  12.548  0.00  0.00    +0.000 A 
ATOM     31  C   UNL     1       7.032   4.132  11.904  0.00  0.00    +0.000 A 
ATOM     32  C   UNL     1       7.825   5.018  12.631  0.00  0.00    +0.000 A 
ATOM     33  C   UNL     1       7.605   5.196  13.999  0.00  0.00    +0.000 A 
ENDBRANCH  27  28
ENDBRANCH   8  27
TORSDOF 8
ENDMDL
MODEL 9
REMARK VINA RESULT:      -8.2      8.263     10.764
REMARK  Name = 
REMARK  11 active torsions:
REMARK  status: ('A' for Active; 'I' for Inactive)
REMARK    1  A    between atoms: C_1  and  C_2
REMARK    2  A    between atoms: C_2  and  C_3
REMARK    3  A    between atoms: C_3  and  S_4
REMARK    4  A    between atoms: S_4  and  C_5
REMARK    5  A    between atoms: N_8  and  N_9
REMARK    6  A    between atoms: C_10  and  C_11
REMARK    7  A    between atoms: C_14  and  N_15
REMARK    8  A    between atoms: N_15  and  C_16
REMARK    9  A    between atoms: N_15  and  C_17
REMARK   10  A    between atoms: N_23  and  C_24
REMARK   11  A    between atoms: C_24  and  C_25
REMARK                            x       y       z     vdW  Elec       q    Type
REMARK                         _______ _______ _______ _____ _____    ______ ____
ROOT
ATOM      1  C   UNL     1      -1.503  11.131  19.156  0.00  0.00    +0.000 A 
ATOM      2  N   UNL     1      -0.591  10.167  19.408  0.00  0.00    +0.000 NA
ATOM      3  C   UNL     1      -0.157   9.961  20.689  0.00  0.00    +0.000 A 
ATOM      4  N   UNL     1       0.787   8.961  21.017  0.00  0.00    +0.000 N 
ATOM      5  C   UNL     1      -0.707  10.781  21.687  0.00  0.00    +0.000 A 
ATOM      6  N   UNL     1      -0.499  10.869  23.040  0.00  0.00    +0.000 NA
ATOM      7  N   UNL     1      -1.259  11.855  23.509  0.00  0.00    +0.000 NA
ATOM      8  N   UNL     1      -1.958  12.364  22.465  0.00  0.00    +0.000 N 
ATOM      9  C   UNL     1      -1.632  11.729  21.297  0.00  0.00    +0.000 A 
ATOM     10  N   UNL     1      -2.075  11.966  20.052  0.00  0.00    +0.000 NA
ATOM     11  H   UNL     1       1.071   9.008  21.995  0.00  0.00    +0.000 HD
ENDROOT
BRANCH   4  12
ATOM     12  N   UNL     1       1.689   8.579  20.068  0.00  0.00    +0.000 NA
ATOM     13  C   UNL     1       2.001   7.320  20.099  0.00  0.00    +0.000 C 
BRANCH  13  14
ATOM     14  C   UNL     1       2.981   6.719  19.170  0.00  0.00    +0.000 A 
ATOM     15  C   UNL     1       3.644   5.539  19.487  0.00  0.00    +0.000 A 
ATOM     16  C   UNL     1       4.573   4.993  18.588  0.00  0.00    +0.000 A 
ATOM     17  C   UNL     1       4.871   5.591  17.349  0.00  0.00    +0.000 A 
ATOM     18  C   UNL     1       4.179   6.779  17.062  0.00  0.00    +0.000 A 
ATOM     19  C   UNL     1       3.246   7.343  17.951  0.00  0.00    +0.000 A 
BRANCH  17  20
ATOM     20  N   UNL     1       5.797   5.043  16.481  0.00  0.00    +0.000 N 
ATOM     21  C   UNL     1       5.550   4.954  15.044  0.00  0.00    +0.000 C 
ATOM     22  C   UNL     1       7.125   4.616  16.910  0.00  0.00    +0.000 C 
ENDBRANCH  17  20
ENDBRANCH  13  14
ENDBRANCH   4  12
BRANCH   1  23
ATOM     23  S   UNL     1      -1.972  11.391  17.459  0.00  0.00    +0.000 S 
BRANCH  23  24
ATOM     24  C   UNL     1      -2.926   9.865  17.173  0.00  0.00    +0.000 C 
BRANCH  24  26
ATOM     25  C   UNL     1      -3.404  10.583  14.798  0.00  0.00    +0.000 C 
ATOM     26  C   UNL     1      -2.845   9.485  15.692  0.00  0.00    +0.000 C 
ENDBRANCH  24  26
ENDBRANCH  23  24
ENDBRANCH   1  23
BRANCH   8  27
ATOM     27  C   UNL     1      -2.789  13.539  22.639  0.00  0.00    +0.000 C 
BRANCH  27  28
ATOM     28  C   UNL     1      -4.252  13.198  22.768  0.00  0.00    +0.000 A 
ATOM     29  C   UNL     1      -4.841  13.025  24.030  0.00  0.00    +0.000 A 
ATOM     30  C   UNL     1      -6.206  12.745  24.146  0.00  0.00    +0.000 A 
ATOM     31  C   UNL     1      -6.994  12.627  23.002  0.00  0.00    +0.000 A 
ATOM     32  C   UNL     1      -6.417  12.778  21.743  0.00  0.00    +0.000 A 
ATOM     33  C   UNL     1      -5.053  13.059  21.626  0.00  0.00    +0.000 A 
ENDBRANCH  27  28
ENDBRANCH   8  27
TORSDOF 8
ENDMDL
