MODEL 1
REMARK VINA RESULT:      -7.6      0.000      0.000
REMARK  Name = 
REMARK  4 active torsions:
REMARK  status: ('A' for Active; 'I' for Inactive)
REMARK    1  A    between atoms: C_3  and  N_4
REMARK    2  A    between atoms: N_4  and  C_5
REMARK    3  A    between atoms: N_10  and  C_11
REMARK    4  A    between atoms: C_11  and  C_12
REMARK                            x       y       z     vdW  Elec       q    Type
REMARK                         _______ _______ _______ _____ _____    ______ ____
ROOT
ATOM      1  C   UNL     1       5.890   6.321  16.349  0.00  0.00    +0.000 C 
ATOM      2  C   UNL     1       5.889   6.367  17.893  0.00  0.00    +0.000 C 
ATOM      3  C   UNL     1       4.333   6.262  17.830  0.00  0.00    +0.000 C 
ATOM      4  C   UNL     1       3.526   7.560  17.747  0.00  0.00    +0.000 C 
ATOM      5  C   UNL     1       2.585   7.487  18.942  0.00  0.00    +0.000 C 
ATOM      6  N   UNL     1       2.388   6.052  19.185  0.00  0.00    +0.000 NA
ATOM      7  C   UNL     1       3.698   5.431  18.940  0.00  0.00    +0.000 C 
ATOM      8  C   UNL     1       4.545   5.561  16.453  0.00  0.00    +0.000 C 
ENDROOT
BRANCH   1   9
ATOM      9  N   UNL     1       6.941   5.523  15.813  0.00  0.00    +0.000 N 
ATOM     10  H   UNL     1       7.889   5.808  16.049  0.00  0.00    +0.000 HD
BRANCH   9  13
ATOM     11  C   UNL     1       6.287   3.484  12.854  0.00  0.00    +0.000 A 
ATOM     12  C   UNL     1       6.167   3.926  14.151  0.00  0.00    +0.000 A 
ATOM     13  C   UNL     1       6.971   4.984  14.523  0.00  0.00    +0.000 A 
ATOM     14  N   UNL     1       7.840   5.548  13.670  0.00  0.00    +0.000 NA
ATOM     15  C   UNL     1       7.880   5.036  12.428  0.00  0.00    +0.000 A 
ATOM     16  N   UNL     1       7.137   4.022  11.965  0.00  0.00    +0.000 NA
ENDBRANCH   9  13
ENDBRANCH   1   9
BRANCH   6  17
ATOM     17  C   UNL     1       1.928   5.833  20.573  0.00  0.00    +0.000 C 
BRANCH  17  18
ATOM     18  C   UNL     1       1.772   4.375  20.896  0.00  0.00    +0.000 A 
ATOM     19  C   UNL     1       1.010   3.402  20.201  0.00  0.00    +0.000 A 
ATOM     20  C   UNL     1       1.190   2.237  20.908  0.00  0.00    +0.000 A 
ATOM     21  N   UNL     1       2.017   2.550  21.943  0.00  0.00    +0.000 N 
ATOM     22  N   UNL     1       2.383   3.840  21.967  0.00  0.00    +0.000 NA
ATOM     23  H   UNL     1       2.370   1.938  22.671  0.00  0.00    +0.000 HD
ENDBRANCH  17  18
ENDBRANCH   6  17
TORSDOF 4
ENDMDL
MODEL 2
REMARK VINA RESULT:      -7.4      3.035      8.458
REMARK  Name = 
REMARK  4 active torsions:
REMARK  status: ('A' for Active; 'I' for Inactive)
REMARK    1  A    between atoms: C_3  and  N_4
REMARK    2  A    between atoms: N_4  and  C_5
REMARK    3  A    between atoms: N_10  and  C_11
REMARK    4  A    between atoms: C_11  and  C_12
REMARK                            x       y       z     vdW  Elec       q    Type
REMARK                         _______ _______ _______ _____ _____    ______ ____
ROOT
ATOM      1  C   UNL     1       1.602   7.028  20.371  0.00  0.00    +0.000 C 
ATOM      2  C   UNL     1       2.569   5.842  20.582  0.00  0.00    +0.000 C 
ATOM      3  C   UNL     1       2.853   5.887  19.047  0.00  0.00    +0.000 C 
ATOM      4  C   UNL     1       1.961   5.052  18.125  0.00  0.00    +0.000 C 
ATOM      5  C   UNL     1       2.940   4.162  17.370  0.00  0.00    +0.000 C 
ATOM      6  N   UNL     1       4.197   4.921  17.336  0.00  0.00    +0.000 NA
ATOM      7  C   UNL     1       4.292   5.576  18.649  0.00  0.00    +0.000 C 
ATOM      8  C   UNL     1       2.448   7.390  19.127  0.00  0.00    +0.000 C 
ENDROOT
BRANCH   1   9
ATOM      9  N   UNL     1       1.681   8.005  21.403  0.00  0.00    +0.000 N 
ATOM     10  H   UNL     1       1.973   7.671  22.320  0.00  0.00    +0.000 HD
BRANCH   9  13
ATOM     11  C   UNL     1      -0.544  10.857  20.898  0.00  0.00    +0.000 A 
ATOM     12  C   UNL     1       0.355   9.868  20.576  0.00  0.00    +0.000 A 
ATOM     13  C   UNL     1       0.769   9.047  21.604  0.00  0.00    +0.000 A 
ATOM     14  N   UNL     1       0.330   9.210  22.862  0.00  0.00    +0.000 NA
ATOM     15  C   UNL     1      -0.543  10.209  23.067  0.00  0.00    +0.000 A 
ATOM     16  N   UNL     1      -1.015  11.052  22.139  0.00  0.00    +0.000 NA
ENDBRANCH   9  13
ENDBRANCH   1   9
BRANCH   6  17
ATOM     17  C   UNL     1       5.333   4.006  17.096  0.00  0.00    +0.000 C 
BRANCH  17  18
ATOM     18  C   UNL     1       6.133   4.400  15.889  0.00  0.00    +0.000 A 
ATOM     19  C   UNL     1       5.870   4.098  14.529  0.00  0.00    +0.000 A 
ATOM     20  C   UNL     1       6.905   4.673  13.830  0.00  0.00    +0.000 A 
ATOM     21  N   UNL     1       7.700   5.271  14.759  0.00  0.00    +0.000 N 
ATOM     22  N   UNL     1       7.262   5.118  16.018  0.00  0.00    +0.000 NA
ATOM     23  H   UNL     1       8.556   5.796  14.609  0.00  0.00    +0.000 HD
ENDBRANCH  17  18
ENDBRANCH   6  17
TORSDOF 4
ENDMDL
MODEL 3
REMARK VINA RESULT:      -7.4      1.156      1.390
REMARK  Name = 
REMARK  4 active torsions:
REMARK  status: ('A' for Active; 'I' for Inactive)
REMARK    1  A    between atoms: C_3  and  N_4
REMARK    2  A    between atoms: N_4  and  C_5
REMARK    3  A    between atoms: N_10  and  C_11
REMARK    4  A    between atoms: C_11  and  C_12
REMARK                            x       y       z     vdW  Elec       q    Type
REMARK                         _______ _______ _______ _____ _____    ______ ____
ROOT
ATOM      1  C   UNL     1       6.394   5.924  16.710  0.00  0.00    +0.000 C 
ATOM      2  C   UNL     1       5.925   4.759  17.610  0.00  0.00    +0.000 C 
ATOM      3  C   UNL     1       4.467   5.282  17.414  0.00  0.00    +0.000 C 
ATOM      4  C   UNL     1       3.935   6.320  18.404  0.00  0.00    +0.000 C 
ATOM      5  C   UNL     1       2.672   5.681  18.967  0.00  0.00    +0.000 C 
ATOM      6  N   UNL     1       2.191   4.788  17.904  0.00  0.00    +0.000 NA
ATOM      7  C   UNL     1       3.401   4.196  17.315  0.00  0.00    +0.000 C 
ATOM      8  C   UNL     1       4.983   5.893  16.076  0.00  0.00    +0.000 C 
ENDROOT
BRANCH   1   9
ATOM      9  N   UNL     1       7.423   5.548  15.801  0.00  0.00    +0.000 N 
ATOM     10  H   UNL     1       8.230   6.168  15.751  0.00  0.00    +0.000 HD
BRANCH   9  13
ATOM     11  C   UNL     1       6.246   3.525  12.996  0.00  0.00    +0.000 A 
ATOM     12  C   UNL     1       6.362   3.960  14.296  0.00  0.00    +0.000 A 
ATOM     13  C   UNL     1       7.220   5.016  14.523  0.00  0.00    +0.000 A 
ATOM     14  N   UNL     1       7.921   5.586  13.530  0.00  0.00    +0.000 NA
ATOM     15  C   UNL     1       7.736   5.081  12.299  0.00  0.00    +0.000 A 
ATOM     16  N   UNL     1       6.922   4.069  11.972  0.00  0.00    +0.000 NA
ENDBRANCH   9  13
ENDBRANCH   1   9
BRANCH   6  17
ATOM     17  C   UNL     1       1.298   3.757  18.475  0.00  0.00    +0.000 C 
BRANCH  17  18
ATOM     18  C   UNL     1       1.759   3.293  19.826  0.00  0.00    +0.000 A 
ATOM     19  C   UNL     1       2.930   2.562  20.148  0.00  0.00    +0.000 A 
ATOM     20  C   UNL     1       2.874   2.380  21.509  0.00  0.00    +0.000 A 
ATOM     21  N   UNL     1       1.729   2.989  21.922  0.00  0.00    +0.000 N 
ATOM     22  N   UNL     1       1.027   3.546  20.925  0.00  0.00    +0.000 NA
ATOM     23  H   UNL     1       1.361   3.060  22.866  0.00  0.00    +0.000 HD
ENDBRANCH  17  18
ENDBRANCH   6  17
TORSDOF 4
ENDMDL
MODEL 4
REMARK VINA RESULT:      -7.3      2.802      8.344
REMARK  Name = 
REMARK  4 active torsions:
REMARK  status: ('A' for Active; 'I' for Inactive)
REMARK    1  A    between atoms: C_3  and  N_4
REMARK    2  A    between atoms: N_4  and  C_5
REMARK    3  A    between atoms: N_10  and  C_11
REMARK    4  A    between atoms: C_11  and  C_12
REMARK                            x       y       z     vdW  Elec       q    Type
REMARK                         _______ _______ _______ _____ _____    ______ ____
ROOT
ATOM      1  C   UNL     1       1.731   6.712  20.238  0.00  0.00    +0.000 C 
ATOM      2  C   UNL     1       2.768   5.578  20.405  0.00  0.00    +0.000 C 
ATOM      3  C   UNL     1       3.096   5.746  18.887  0.00  0.00    +0.000 C 
ATOM      4  C   UNL     1       2.291   4.921  17.881  0.00  0.00    +0.000 C 
ATOM      5  C   UNL     1       3.349   4.148  17.105  0.00  0.00    +0.000 C 
ATOM      6  N   UNL     1       4.554   4.986  17.166  0.00  0.00    +0.000 NA
ATOM      7  C   UNL     1       4.564   5.555  18.522  0.00  0.00    +0.000 C 
ATOM      8  C   UNL     1       2.591   7.211  19.052  0.00  0.00    +0.000 C 
ENDROOT
BRANCH   1   9
ATOM      9  N   UNL     1       1.714   7.620  21.335  0.00  0.00    +0.000 N 
ATOM     10  H   UNL     1       1.820   7.211  22.261  0.00  0.00    +0.000 HD
BRANCH   9  13
ATOM     11  C   UNL     1      -0.342  10.326  22.675  0.00  0.00    +0.000 A 
ATOM     12  C   UNL     1       0.496   9.235  22.684  0.00  0.00    +0.000 A 
ATOM     13  C   UNL     1       0.867   8.727  21.457  0.00  0.00    +0.000 A 
ATOM     14  N   UNL     1       0.424   9.258  20.306  0.00  0.00    +0.000 NA
ATOM     15  C   UNL     1      -0.392  10.319  20.411  0.00  0.00    +0.000 A 
ATOM     16  N   UNL     1      -0.803  10.893  21.549  0.00  0.00    +0.000 NA
ENDBRANCH   9  13
ENDBRANCH   1   9
BRANCH   6  17
ATOM     17  C   UNL     1       5.755   4.164  16.907  0.00  0.00    +0.000 C 
BRANCH  17  18
ATOM     18  C   UNL     1       6.401   4.501  15.595  0.00  0.00    +0.000 A 
ATOM     19  C   UNL     1       6.096   3.984  14.311  0.00  0.00    +0.000 A 
ATOM     20  C   UNL     1       6.980   4.601  13.458  0.00  0.00    +0.000 A 
ATOM     21  N   UNL     1       7.736   5.426  14.234  0.00  0.00    +0.000 N 
ATOM     22  N   UNL     1       7.413   5.384  15.535  0.00  0.00    +0.000 NA
ATOM     23  H   UNL     1       8.489   6.043  13.946  0.00  0.00    +0.000 HD
ENDBRANCH  17  18
ENDBRANCH   6  17
TORSDOF 4
ENDMDL
MODEL 5
REMARK VINA RESULT:      -7.2      3.053      8.479
REMARK  Name = 
REMARK  4 active torsions:
REMARK  status: ('A' for Active; 'I' for Inactive)
REMARK    1  A    between atoms: C_3  and  N_4
REMARK    2  A    between atoms: N_4  and  C_5
REMARK    3  A    between atoms: N_10  and  C_11
REMARK    4  A    between atoms: C_11  and  C_12
REMARK                            x       y       z     vdW  Elec       q    Type
REMARK                         _______ _______ _______ _____ _____    ______ ____
ROOT
ATOM      1  C   UNL     1       1.535   7.914  19.322  0.00  0.00    +0.000 C 
ATOM      2  C   UNL     1       2.735   7.076  19.817  0.00  0.00    +0.000 C 
ATOM      3  C   UNL     1       2.853   6.510  18.367  0.00  0.00    +0.000 C 
ATOM      4  C   UNL     1       2.059   5.248  18.019  0.00  0.00    +0.000 C 
ATOM      5  C   UNL     1       3.117   4.271  17.524  0.00  0.00    +0.000 C 
ATOM      6  N   UNL     1       4.189   5.114  16.977  0.00  0.00    +0.000 NA
ATOM      7  C   UNL     1       4.279   6.267  17.885  0.00  0.00    +0.000 C 
ATOM      8  C   UNL     1       2.166   7.833  17.912  0.00  0.00    +0.000 C 
ENDROOT
BRANCH   1   9
ATOM      9  N   UNL     1       1.519   9.235  19.852  0.00  0.00    +0.000 N 
ATOM     10  H   UNL     1       2.408   9.732  19.853  0.00  0.00    +0.000 HD
BRANCH   9  13
ATOM     11  C   UNL     1       0.139   9.480  23.225  0.00  0.00    +0.000 A 
ATOM     12  C   UNL     1       0.890   8.980  22.187  0.00  0.00    +0.000 A 
ATOM     13  C   UNL     1       0.804   9.647  20.982  0.00  0.00    +0.000 A 
ATOM     14  N   UNL     1       0.016  10.722  20.820  0.00  0.00    +0.000 NA
ATOM     15  C   UNL     1      -0.678  11.123  21.898  0.00  0.00    +0.000 A 
ATOM     16  N   UNL     1      -0.656  10.555  23.111  0.00  0.00    +0.000 NA
ENDBRANCH   9  13
ENDBRANCH   1   9
BRANCH   6  17
ATOM     17  C   UNL     1       5.455   4.353  16.929  0.00  0.00    +0.000 C 
BRANCH  17  18
ATOM     18  C   UNL     1       6.229   4.618  15.671  0.00  0.00    +0.000 A 
ATOM     19  C   UNL     1       6.055   4.026  14.395  0.00  0.00    +0.000 A 
ATOM     20  C   UNL     1       7.019   4.600  13.601  0.00  0.00    +0.000 A 
ATOM     21  N   UNL     1       7.692   5.473  14.399  0.00  0.00    +0.000 N 
ATOM     22  N   UNL     1       7.241   5.503  15.661  0.00  0.00    +0.000 NA
ATOM     23  H   UNL     1       8.469   6.078  14.152  0.00  0.00    +0.000 HD
ENDBRANCH  17  18
ENDBRANCH   6  17
TORSDOF 4
ENDMDL
MODEL 6
REMARK VINA RESULT:      -7.1      2.580      8.150
REMARK  Name = 
REMARK  4 active torsions:
REMARK  status: ('A' for Active; 'I' for Inactive)
REMARK    1  A    between atoms: C_3  and  N_4
REMARK    2  A    between atoms: N_4  and  C_5
REMARK    3  A    between atoms: N_10  and  C_11
REMARK    4  A    between atoms: C_11  and  C_12
REMARK                            x       y       z     vdW  Elec       q    Type
REMARK                         _______ _______ _______ _____ _____    ______ ____
ROOT
ATOM      1  C   UNL     1       2.082   6.634  19.591  0.00  0.00    +0.000 C 
ATOM      2  C   UNL     1       3.272   5.671  19.798  0.00  0.00    +0.000 C 
ATOM      3  C   UNL     1       3.283   5.458  18.251  0.00  0.00    +0.000 C 
ATOM      4  C   UNL     1       2.418   4.336  17.672  0.00  0.00    +0.000 C 
ATOM      5  C   UNL     1       3.404   3.473  16.895  0.00  0.00    +0.000 C 
ATOM      6  N   UNL     1       4.478   4.391  16.491  0.00  0.00    +0.000 NA
ATOM      7  C   UNL     1       4.668   5.295  17.634  0.00  0.00    +0.000 C 
ATOM      8  C   UNL     1       2.629   6.870  18.162  0.00  0.00    +0.000 C 
ENDROOT
BRANCH   1   9
ATOM      9  N   UNL     1       2.152   7.795  20.413  0.00  0.00    +0.000 N 
ATOM     10  H   UNL     1       2.522   7.661  21.352  0.00  0.00    +0.000 HD
BRANCH   9  13
ATOM     11  C   UNL     1       0.022  10.665  19.658  0.00  0.00    +0.000 A 
ATOM     12  C   UNL     1       1.011   9.727  19.475  0.00  0.00    +0.000 A 
ATOM     13  C   UNL     1       1.180   8.799  20.482  0.00  0.00    +0.000 A 
ATOM     14  N   UNL     1       0.428   8.814  21.594  0.00  0.00    +0.000 NA
ATOM     15  C   UNL     1      -0.507   9.775  21.672  0.00  0.00    +0.000 A 
ATOM     16  N   UNL     1      -0.758  10.714  20.749  0.00  0.00    +0.000 NA
ENDBRANCH   9  13
ENDBRANCH   1   9
BRANCH   6  17
ATOM     17  C   UNL     1       5.706   3.627  16.185  0.00  0.00    +0.000 C 
BRANCH  17  18
ATOM     18  C   UNL     1       6.458   4.206  15.022  0.00  0.00    +0.000 A 
ATOM     19  C   UNL     1       6.317   3.895  13.646  0.00  0.00    +0.000 A 
ATOM     20  C   UNL     1       7.242   4.684  13.005  0.00  0.00    +0.000 A 
ATOM     21  N   UNL     1       7.862   5.403  13.980  0.00  0.00    +0.000 N 
ATOM     22  N   UNL     1       7.413   5.131  15.215  0.00  0.00    +0.000 NA
ATOM     23  H   UNL     1       8.600   6.093  13.879  0.00  0.00    +0.000 HD
ENDBRANCH  17  18
ENDBRANCH   6  17
TORSDOF 4
ENDMDL
MODEL 7
REMARK VINA RESULT:      -6.8      1.299      1.745
REMARK  Name = 
REMARK  4 active torsions:
REMARK  status: ('A' for Active; 'I' for Inactive)
REMARK    1  A    between atoms: C_3  and  N_4
REMARK    2  A    between atoms: N_4  and  C_5
REMARK    3  A    between atoms: N_10  and  C_11
REMARK    4  A    between atoms: C_11  and  C_12
REMARK                            x       y       z     vdW  Elec       q    Type
REMARK                         _______ _______ _______ _____ _____    ______ ____
ROOT
ATOM      1  C   UNL     1       6.479   5.829  16.543  0.00  0.00    +0.000 C 
ATOM      2  C   UNL     1       5.996   4.673  17.447  0.00  0.00    +0.000 C 
ATOM      3  C   UNL     1       4.550   5.239  17.285  0.00  0.00    +0.000 C 
ATOM      4  C   UNL     1       4.070   6.286  18.293  0.00  0.00    +0.000 C 
ATOM      5  C   UNL     1       2.801   5.680  18.880  0.00  0.00    +0.000 C 
ATOM      6  N   UNL     1       2.271   4.808  17.823  0.00  0.00    +0.000 NA
ATOM      7  C   UNL     1       3.451   4.185  17.205  0.00  0.00    +0.000 C 
ATOM      8  C   UNL     1       5.054   5.843  15.940  0.00  0.00    +0.000 C 
ENDROOT
BRANCH   1   9
ATOM      9  N   UNL     1       7.476   5.429  15.609  0.00  0.00    +0.000 N 
ATOM     10  H   UNL     1       8.291   6.035  15.532  0.00  0.00    +0.000 HD
BRANCH   9  13
ATOM     11  C   UNL     1       7.496   4.785  12.013  0.00  0.00    +0.000 A 
ATOM     12  C   UNL     1       7.817   5.399  13.201  0.00  0.00    +0.000 A 
ATOM     13  C   UNL     1       7.229   4.891  14.341  0.00  0.00    +0.000 A 
ATOM     14  N   UNL     1       6.374   3.857  14.298  0.00  0.00    +0.000 NA
ATOM     15  C   UNL     1       6.127   3.335  13.085  0.00  0.00    +0.000 A 
ATOM     16  N   UNL     1       6.652   3.745  11.923  0.00  0.00    +0.000 NA
ENDBRANCH   9  13
ENDBRANCH   1   9
BRANCH   6  17
ATOM     17  C   UNL     1       1.362   3.800  18.408  0.00  0.00    +0.000 C 
BRANCH  17  18
ATOM     18  C   UNL     1       1.811   3.352  19.768  0.00  0.00    +0.000 A 
ATOM     19  C   UNL     1       2.952   2.580  20.102  0.00  0.00    +0.000 A 
ATOM     20  C   UNL     1       2.898   2.436  21.468  0.00  0.00    +0.000 A 
ATOM     21  N   UNL     1       1.782   3.102  21.872  0.00  0.00    +0.000 N 
ATOM     22  N   UNL     1       1.098   3.664  20.864  0.00  0.00    +0.000 NA
ATOM     23  H   UNL     1       1.424   3.214  22.815  0.00  0.00    +0.000 HD
ENDBRANCH  17  18
ENDBRANCH   6  17
TORSDOF 4
ENDMDL
MODEL 8
REMARK VINA RESULT:      -6.8      2.704      4.105
REMARK  Name = 
REMARK  4 active torsions:
REMARK  status: ('A' for Active; 'I' for Inactive)
REMARK    1  A    between atoms: C_3  and  N_4
REMARK    2  A    between atoms: N_4  and  C_5
REMARK    3  A    between atoms: N_10  and  C_11
REMARK    4  A    between atoms: C_11  and  C_12
REMARK                            x       y       z     vdW  Elec       q    Type
REMARK                         _______ _______ _______ _____ _____    ______ ____
ROOT
ATOM      1  C   UNL     1       3.776   3.496  18.270  0.00  0.00    +0.000 C 
ATOM      2  C   UNL     1       2.674   4.459  17.775  0.00  0.00    +0.000 C 
ATOM      3  C   UNL     1       2.894   5.278  19.086  0.00  0.00    +0.000 C 
ATOM      4  C   UNL     1       2.070   4.899  20.318  0.00  0.00    +0.000 C 
ATOM      5  C   UNL     1       1.355   6.190  20.697  0.00  0.00    +0.000 C 
ATOM      6  N   UNL     1       2.232   7.266  20.215  0.00  0.00    +0.000 NA
ATOM      7  C   UNL     1       2.763   6.789  18.930  0.00  0.00    +0.000 C 
ATOM      8  C   UNL     1       4.336   4.687  19.084  0.00  0.00    +0.000 C 
ENDROOT
BRANCH   1   9
ATOM      9  N   UNL     1       4.652   3.068  17.233  0.00  0.00    +0.000 N 
ATOM     10  H   UNL     1       5.116   2.172  17.374  0.00  0.00    +0.000 HD
BRANCH   9  13
ATOM     11  C   UNL     1       6.251   5.062  14.623  0.00  0.00    +0.000 A 
ATOM     12  C   UNL     1       5.313   4.246  15.210  0.00  0.00    +0.000 A 
ATOM     13  C   UNL     1       5.534   3.893  16.526  0.00  0.00    +0.000 A 
ATOM     14  N   UNL     1       6.617   4.311  17.200  0.00  0.00    +0.000 NA
ATOM     15  C   UNL     1       7.472   5.101  16.529  0.00  0.00    +0.000 A 
ATOM     16  N   UNL     1       7.344   5.509  15.260  0.00  0.00    +0.000 NA
ENDBRANCH   9  13
ENDBRANCH   1   9
BRANCH   6  17
ATOM     17  C   UNL     1       1.458   8.516  20.060  0.00  0.00    +0.000 C 
BRANCH  17  18
ATOM     18  C   UNL     1       0.804   8.941  21.342  0.00  0.00    +0.000 A 
ATOM     19  C   UNL     1      -0.580   9.103  21.606  0.00  0.00    +0.000 A 
ATOM     20  C   UNL     1      -0.647   9.518  22.914  0.00  0.00    +0.000 A 
ATOM     21  N   UNL     1       0.640   9.577  23.356  0.00  0.00    +0.000 N 
ATOM     22  N   UNL     1       1.542   9.238  22.424  0.00  0.00    +0.000 NA
ATOM     23  H   UNL     1       0.976   9.841  24.277  0.00  0.00    +0.000 HD
ENDBRANCH  17  18
ENDBRANCH   6  17
TORSDOF 4
ENDMDL
MODEL 9
REMARK VINA RESULT:      -6.8      1.516      7.781
REMARK  Name = 
REMARK  4 active torsions:
REMARK  status: ('A' for Active; 'I' for Inactive)
REMARK    1  A    between atoms: C_3  and  N_4
REMARK    2  A    between atoms: N_4  and  C_5
REMARK    3  A    between atoms: N_10  and  C_11
REMARK    4  A    between atoms: C_11  and  C_12
REMARK                            x       y       z     vdW  Elec       q    Type
REMARK                         _______ _______ _______ _____ _____    ______ ____
ROOT
ATOM      1  C   UNL     1       4.338   5.612  18.373  0.00  0.00    +0.000 C 
ATOM      2  C   UNL     1       4.522   6.358  17.033  0.00  0.00    +0.000 C 
ATOM      3  C   UNL     1       5.409   5.161  16.565  0.00  0.00    +0.000 C 
ATOM      4  C   UNL     1       6.910   5.220  16.855  0.00  0.00    +0.000 C 
ATOM      5  C   UNL     1       7.558   5.068  15.485  0.00  0.00    +0.000 C 
ATOM      6  N   UNL     1       6.594   4.294  14.691  0.00  0.00    +0.000 NA
ATOM      7  C   UNL     1       5.270   4.793  15.092  0.00  0.00    +0.000 C 
ATOM      8  C   UNL     1       4.601   4.305  17.588  0.00  0.00    +0.000 C 
ENDROOT
BRANCH   1   9
ATOM      9  N   UNL     1       3.011   5.699  18.884  0.00  0.00    +0.000 N 
ATOM     10  H   UNL     1       2.729   6.603  19.256  0.00  0.00    +0.000 HD
BRANCH   9  13
ATOM     11  C   UNL     1       1.971   3.491  21.602  0.00  0.00    +0.000 A 
ATOM     12  C   UNL     1       2.671   4.490  20.966  0.00  0.00    +0.000 A 
ATOM     13  C   UNL     1       2.368   4.711  19.639  0.00  0.00    +0.000 A 
ATOM     14  N   UNL     1       1.447   3.982  18.990  0.00  0.00    +0.000 NA
ATOM     15  C   UNL     1       0.826   3.029  19.704  0.00  0.00    +0.000 A 
ATOM     16  N   UNL     1       1.037   2.742  20.995  0.00  0.00    +0.000 NA
ENDBRANCH   9  13
ENDBRANCH   1   9
BRANCH   6  17
ATOM     17  C   UNL     1       6.845   4.500  13.249  0.00  0.00    +0.000 C 
BRANCH  17  18
ATOM     18  C   UNL     1       6.143   3.481  12.400  0.00  0.00    +0.000 A 
ATOM     19  C   UNL     1       4.800   3.495  11.948  0.00  0.00    +0.000 A 
ATOM     20  C   UNL     1       4.656   2.336  11.224  0.00  0.00    +0.000 A 
ATOM     21  N   UNL     1       5.865   1.713  11.267  0.00  0.00    +0.000 N 
ATOM     22  N   UNL     1       6.787   2.380  11.978  0.00  0.00    +0.000 NA
ATOM     23  H   UNL     1       6.134   0.832  10.840  0.00  0.00    +0.000 HD
ENDBRANCH  17  18
ENDBRANCH   6  17
TORSDOF 4
ENDMDL
