MODEL 1
REMARK VINA RESULT:      -7.7      0.000      0.000
REMARK  Name = 
REMARK  5 active torsions:
REMARK  status: ('A' for Active; 'I' for Inactive)
REMARK    1  A    between atoms: C_1  and  C_2
REMARK    2  A    between atoms: C_7  and  N_8
REMARK    3  A    between atoms: N_8  and  N_9
REMARK    4  A    between atoms: C_10  and  C_12
REMARK    5  A    between atoms: C_12  and  C_13
REMARK                            x       y       z     vdW  Elec       q    Type
REMARK                         _______ _______ _______ _____ _____    ______ ____
ROOT
ATOM      1  N   UNL     1       5.320   3.823  18.746  0.00  0.00    +0.000 N 
ATOM      2  C   UNL     1       4.164   3.720  17.976  0.00  0.00    +0.000 C 
ATOM      3  O   UNL     1       4.194   3.649  16.745  0.00  0.00    +0.000 OA
ATOM      4  H   UNL     1       5.305   4.189  19.692  0.00  0.00    +0.000 HD
ENDROOT
BRANCH   2   5
ATOM      5  C   UNL     1       2.835   3.709  18.770  0.00  0.00    +0.000 C 
ATOM      6  C   UNL     1       1.694   4.127  17.824  0.00  0.00    +0.000 C 
ATOM      7  C   UNL     1       2.593   2.296  19.347  0.00  0.00    +0.000 C 
ATOM      8  C   UNL     1       1.434   2.228  20.343  0.00  0.00    +0.000 C 
ATOM      9  C   UNL     1       1.591   3.239  21.472  0.00  0.00    +0.000 C 
ATOM     10  C   UNL     1       1.783   4.652  20.938  0.00  0.00    +0.000 C 
ATOM     11  C   UNL     1       2.940   4.725  19.941  0.00  0.00    +0.000 C 
ENDBRANCH   2   5
BRANCH   1  12
ATOM     12  N   UNL     1       6.529   3.947  18.056  0.00  0.00    +0.000 N 
ATOM     13  H   UNL     1       6.565   3.374  17.213  0.00  0.00    +0.000 HD
BRANCH  12  20
ATOM     14  C   UNL     1       6.149   5.710  15.582  0.00  0.00    +0.000 C 
ATOM     15  C   UNL     1       6.920   6.096  16.814  0.00  0.00    +0.000 A 
ATOM     16  C   UNL     1       7.454   7.402  16.858  0.00  0.00    +0.000 A 
ATOM     17  C   UNL     1       8.134   7.872  17.979  0.00  0.00    +0.000 A 
ATOM     18  C   UNL     1       8.296   7.042  19.078  0.00  0.00    +0.000 A 
ATOM     19  C   UNL     1       7.778   5.746  19.047  0.00  0.00    +0.000 A 
ATOM     20  C   UNL     1       7.100   5.234  17.920  0.00  0.00    +0.000 A 
ENDBRANCH  12  20
ENDBRANCH   1  12
TORSDOF 3
ENDMDL
MODEL 2
REMARK VINA RESULT:      -7.7      1.113      1.356
REMARK  Name = 
REMARK  5 active torsions:
REMARK  status: ('A' for Active; 'I' for Inactive)
REMARK    1  A    between atoms: C_1  and  C_2
REMARK    2  A    between atoms: C_7  and  N_8
REMARK    3  A    between atoms: N_8  and  N_9
REMARK    4  A    between atoms: C_10  and  C_12
REMARK    5  A    between atoms: C_12  and  C_13
REMARK                            x       y       z     vdW  Elec       q    Type
REMARK                         _______ _______ _______ _____ _____    ______ ____
ROOT
ATOM      1  N   UNL     1       4.894   3.139  17.547  0.00  0.00    +0.000 N 
ATOM      2  C   UNL     1       3.652   3.714  17.801  0.00  0.00    +0.000 C 
ATOM      3  O   UNL     1       3.246   4.708  17.195  0.00  0.00    +0.000 OA
ATOM      4  H   UNL     1       5.360   2.544  18.225  0.00  0.00    +0.000 HD
ENDROOT
BRANCH   2   5
ATOM      5  C   UNL     1       2.813   3.024  18.905  0.00  0.00    +0.000 C 
ATOM      6  C   UNL     1       2.275   1.692  18.353  0.00  0.00    +0.000 C 
ATOM      7  C   UNL     1       3.695   2.796  20.154  0.00  0.00    +0.000 C 
ATOM      8  C   UNL     1       2.911   2.337  21.385  0.00  0.00    +0.000 C 
ATOM      9  C   UNL     1       1.764   3.283  21.716  0.00  0.00    +0.000 C 
ATOM     10  C   UNL     1       0.846   3.492  20.520  0.00  0.00    +0.000 C 
ATOM     11  C   UNL     1       1.623   3.949  19.285  0.00  0.00    +0.000 C 
ENDBRANCH   2   5
BRANCH   1  12
ATOM     12  N   UNL     1       5.722   3.801  16.636  0.00  0.00    +0.000 N 
ATOM     13  H   UNL     1       5.295   3.905  15.716  0.00  0.00    +0.000 HD
BRANCH  12  20
ATOM     14  C   UNL     1       5.331   6.616  15.500  0.00  0.00    +0.000 C 
ATOM     15  C   UNL     1       6.275   6.252  16.612  0.00  0.00    +0.000 A 
ATOM     16  C   UNL     1       6.987   7.305  17.225  0.00  0.00    +0.000 A 
ATOM     17  C   UNL     1       7.841   7.075  18.301  0.00  0.00    +0.000 A 
ATOM     18  C   UNL     1       8.001   5.785  18.783  0.00  0.00    +0.000 A 
ATOM     19  C   UNL     1       7.307   4.732  18.185  0.00  0.00    +0.000 A 
ATOM     20  C   UNL     1       6.449   4.930  17.081  0.00  0.00    +0.000 A 
ENDBRANCH  12  20
ENDBRANCH   1  12
TORSDOF 3
ENDMDL
MODEL 3
REMARK VINA RESULT:      -7.6      1.609      6.031
REMARK  Name = 
REMARK  5 active torsions:
REMARK  status: ('A' for Active; 'I' for Inactive)
REMARK    1  A    between atoms: C_1  and  C_2
REMARK    2  A    between atoms: C_7  and  N_8
REMARK    3  A    between atoms: N_8  and  N_9
REMARK    4  A    between atoms: C_10  and  C_12
REMARK    5  A    between atoms: C_12  and  C_13
REMARK                            x       y       z     vdW  Elec       q    Type
REMARK                         _______ _______ _______ _____ _____    ______ ____
ROOT
ATOM      1  N   UNL     1       5.357   3.343  18.581  0.00  0.00    +0.000 N 
ATOM      2  C   UNL     1       5.753   4.673  18.705  0.00  0.00    +0.000 C 
ATOM      3  O   UNL     1       5.724   5.274  19.781  0.00  0.00    +0.000 OA
ATOM      4  H   UNL     1       5.081   2.945  17.689  0.00  0.00    +0.000 HD
ENDROOT
BRANCH   2   5
ATOM      5  C   UNL     1       6.224   5.351  17.395  0.00  0.00    +0.000 C 
ATOM      6  C   UNL     1       7.240   6.453  17.751  0.00  0.00    +0.000 C 
ATOM      7  C   UNL     1       6.855   4.290  16.465  0.00  0.00    +0.000 C 
ATOM      8  C   UNL     1       7.141   4.803  15.052  0.00  0.00    +0.000 C 
ATOM      9  C   UNL     1       5.902   5.405  14.402  0.00  0.00    +0.000 C 
ATOM     10  C   UNL     1       5.282   6.490  15.272  0.00  0.00    +0.000 C 
ATOM     11  C   UNL     1       4.996   5.984  16.686  0.00  0.00    +0.000 C 
ENDBRANCH   2   5
BRANCH   1  12
ATOM     12  N   UNL     1       4.822   2.735  19.720  0.00  0.00    +0.000 N 
ATOM     13  H   UNL     1       5.412   2.848  20.543  0.00  0.00    +0.000 HD
BRANCH  12  20
ATOM     14  C   UNL     1       2.720   2.852  17.497  0.00  0.00    +0.000 C 
ATOM     15  C   UNL     1       2.428   2.881  18.972  0.00  0.00    +0.000 A 
ATOM     16  C   UNL     1       1.071   2.895  19.360  0.00  0.00    +0.000 A 
ATOM     17  C   UNL     1       0.699   2.865  20.703  0.00  0.00    +0.000 A 
ATOM     18  C   UNL     1       1.679   2.823  21.683  0.00  0.00    +0.000 A 
ATOM     19  C   UNL     1       3.025   2.812  21.314  0.00  0.00    +0.000 A 
ATOM     20  C   UNL     1       3.435   2.861  19.964  0.00  0.00    +0.000 A 
ENDBRANCH  12  20
ENDBRANCH   1  12
TORSDOF 3
ENDMDL
MODEL 4
REMARK VINA RESULT:      -7.4      1.140      6.088
REMARK  Name = 
REMARK  5 active torsions:
REMARK  status: ('A' for Active; 'I' for Inactive)
REMARK    1  A    between atoms: C_1  and  C_2
REMARK    2  A    between atoms: C_7  and  N_8
REMARK    3  A    between atoms: N_8  and  N_9
REMARK    4  A    between atoms: C_10  and  C_12
REMARK    5  A    between atoms: C_12  and  C_13
REMARK                            x       y       z     vdW  Elec       q    Type
REMARK                         _______ _______ _______ _____ _____    ______ ____
ROOT
ATOM      1  N   UNL     1       5.188   3.479  18.266  0.00  0.00    +0.000 N 
ATOM      2  C   UNL     1       5.194   4.701  17.598  0.00  0.00    +0.000 C 
ATOM      3  O   UNL     1       4.183   5.173  17.073  0.00  0.00    +0.000 OA
ATOM      4  H   UNL     1       6.038   2.946  18.419  0.00  0.00    +0.000 HD
ENDROOT
BRANCH   2   5
ATOM      5  C   UNL     1       6.561   5.427  17.551  0.00  0.00    +0.000 C 
ATOM      6  C   UNL     1       7.525   4.604  16.677  0.00  0.00    +0.000 C 
ATOM      7  C   UNL     1       6.368   6.851  16.982  0.00  0.00    +0.000 C 
ATOM      8  C   UNL     1       7.608   7.738  17.109  0.00  0.00    +0.000 C 
ATOM      9  C   UNL     1       8.113   7.809  18.544  0.00  0.00    +0.000 C 
ATOM     10  C   UNL     1       8.361   6.422  19.121  0.00  0.00    +0.000 C 
ATOM     11  C   UNL     1       7.126   5.530  18.995  0.00  0.00    +0.000 C 
ENDBRANCH   2   5
BRANCH   1  12
ATOM     12  N   UNL     1       3.999   2.747  18.232  0.00  0.00    +0.000 N 
ATOM     13  H   UNL     1       4.141   1.772  17.970  0.00  0.00    +0.000 HD
BRANCH  12  20
ATOM     14  C   UNL     1       1.198   3.883  17.747  0.00  0.00    +0.000 C 
ATOM     15  C   UNL     1       1.735   3.435  19.079  0.00  0.00    +0.000 A 
ATOM     16  C   UNL     1       0.853   3.481  20.179  0.00  0.00    +0.000 A 
ATOM     17  C   UNL     1       1.240   3.033  21.440  0.00  0.00    +0.000 A 
ATOM     18  C   UNL     1       2.520   2.534  21.625  0.00  0.00    +0.000 A 
ATOM     19  C   UNL     1       3.406   2.487  20.546  0.00  0.00    +0.000 A 
ATOM     20  C   UNL     1       3.051   2.950  19.262  0.00  0.00    +0.000 A 
ENDBRANCH  12  20
ENDBRANCH   1  12
TORSDOF 3
ENDMDL
MODEL 5
REMARK VINA RESULT:      -7.4      0.809      1.869
REMARK  Name = 
REMARK  5 active torsions:
REMARK  status: ('A' for Active; 'I' for Inactive)
REMARK    1  A    between atoms: C_1  and  C_2
REMARK    2  A    between atoms: C_7  and  N_8
REMARK    3  A    between atoms: N_8  and  N_9
REMARK    4  A    between atoms: C_10  and  C_12
REMARK    5  A    between atoms: C_12  and  C_13
REMARK                            x       y       z     vdW  Elec       q    Type
REMARK                         _______ _______ _______ _____ _____    ______ ____
ROOT
ATOM      1  N   UNL     1       5.665   3.612  18.658  0.00  0.00    +0.000 N 
ATOM      2  C   UNL     1       4.459   3.544  17.964  0.00  0.00    +0.000 C 
ATOM      3  O   UNL     1       4.379   3.763  16.753  0.00  0.00    +0.000 OA
ATOM      4  H   UNL     1       5.700   3.744  19.663  0.00  0.00    +0.000 HD
ENDROOT
BRANCH   2   5
ATOM      5  C   UNL     1       3.220   3.179  18.818  0.00  0.00    +0.000 C 
ATOM      6  C   UNL     1       2.408   2.105  18.072  0.00  0.00    +0.000 C 
ATOM      7  C   UNL     1       3.682   2.670  20.203  0.00  0.00    +0.000 C 
ATOM      8  C   UNL     1       2.542   2.505  21.209  0.00  0.00    +0.000 C 
ATOM      9  C   UNL     1       1.727   3.783  21.363  0.00  0.00    +0.000 C 
ATOM     10  C   UNL     1       1.214   4.286  20.021  0.00  0.00    +0.000 C 
ATOM     11  C   UNL     1       2.349   4.451  19.010  0.00  0.00    +0.000 C 
ENDBRANCH   2   5
BRANCH   1  12
ATOM     12  N   UNL     1       6.783   4.046  17.940  0.00  0.00    +0.000 N 
ATOM     13  H   UNL     1       6.846   3.625  17.013  0.00  0.00    +0.000 HD
BRANCH  12  20
ATOM     14  C   UNL     1       8.436   5.285  20.198  0.00  0.00    +0.000 C 
ATOM     15  C   UNL     1       7.921   6.023  18.993  0.00  0.00    +0.000 A 
ATOM     16  C   UNL     1       8.287   7.379  18.861  0.00  0.00    +0.000 A 
ATOM     17  C   UNL     1       7.907   8.130  17.751  0.00  0.00    +0.000 A 
ATOM     18  C   UNL     1       7.149   7.538  16.752  0.00  0.00    +0.000 A 
ATOM     19  C   UNL     1       6.775   6.198  16.871  0.00  0.00    +0.000 A 
ATOM     20  C   UNL     1       7.128   5.416  17.991  0.00  0.00    +0.000 A 
ENDBRANCH  12  20
ENDBRANCH   1  12
TORSDOF 3
ENDMDL
MODEL 6
REMARK VINA RESULT:      -7.4      1.439      6.273
REMARK  Name = 
REMARK  5 active torsions:
REMARK  status: ('A' for Active; 'I' for Inactive)
REMARK    1  A    between atoms: C_1  and  C_2
REMARK    2  A    between atoms: C_7  and  N_8
REMARK    3  A    between atoms: N_8  and  N_9
REMARK    4  A    between atoms: C_10  and  C_12
REMARK    5  A    between atoms: C_12  and  C_13
REMARK                            x       y       z     vdW  Elec       q    Type
REMARK                         _______ _______ _______ _____ _____    ______ ____
ROOT
ATOM      1  N   UNL     1       3.824   5.893  17.784  0.00  0.00    +0.000 N 
ATOM      2  C   UNL     1       4.730   5.164  17.017  0.00  0.00    +0.000 C 
ATOM      3  O   UNL     1       4.375   4.265  16.251  0.00  0.00    +0.000 OA
ATOM      4  H   UNL     1       4.108   6.394  18.619  0.00  0.00    +0.000 HD
ENDROOT
BRANCH   2   5
ATOM      5  C   UNL     1       6.218   5.553  17.197  0.00  0.00    +0.000 C 
ATOM      6  C   UNL     1       7.060   4.752  16.187  0.00  0.00    +0.000 C 
ATOM      7  C   UNL     1       6.382   7.074  16.978  0.00  0.00    +0.000 C 
ATOM      8  C   UNL     1       7.764   7.606  17.360  0.00  0.00    +0.000 C 
ATOM      9  C   UNL     1       8.143   7.236  18.789  0.00  0.00    +0.000 C 
ATOM     10  C   UNL     1       8.039   5.735  19.025  0.00  0.00    +0.000 C 
ATOM     11  C   UNL     1       6.661   5.197  18.643  0.00  0.00    +0.000 C 
ENDBRANCH   2   5
BRANCH   1  12
ATOM     12  N   UNL     1       2.486   5.494  17.729  0.00  0.00    +0.000 N 
ATOM     13  H   UNL     1       2.150   5.363  16.775  0.00  0.00    +0.000 HD
BRANCH  12  20
ATOM     14  C   UNL     1       1.849   6.119  20.656  0.00  0.00    +0.000 C 
ATOM     15  C   UNL     1       1.690   4.775  20.001  0.00  0.00    +0.000 A 
ATOM     16  C   UNL     1       1.140   3.737  20.783  0.00  0.00    +0.000 A 
ATOM     17  C   UNL     1       0.901   2.473  20.248  0.00  0.00    +0.000 A 
ATOM     18  C   UNL     1       1.211   2.223  18.920  0.00  0.00    +0.000 A 
ATOM     19  C   UNL     1       1.761   3.239  18.136  0.00  0.00    +0.000 A 
ATOM     20  C   UNL     1       2.032   4.523  18.653  0.00  0.00    +0.000 A 
ENDBRANCH  12  20
ENDBRANCH   1  12
TORSDOF 3
ENDMDL
MODEL 7
REMARK VINA RESULT:      -7.3      1.329      6.080
REMARK  Name = 
REMARK  5 active torsions:
REMARK  status: ('A' for Active; 'I' for Inactive)
REMARK    1  A    between atoms: C_1  and  C_2
REMARK    2  A    between atoms: C_7  and  N_8
REMARK    3  A    between atoms: N_8  and  N_9
REMARK    4  A    between atoms: C_10  and  C_12
REMARK    5  A    between atoms: C_12  and  C_13
REMARK                            x       y       z     vdW  Elec       q    Type
REMARK                         _______ _______ _______ _____ _____    ______ ____
ROOT
ATOM      1  N   UNL     1       3.865   5.608  17.837  0.00  0.00    +0.000 N 
ATOM      2  C   UNL     1       4.791   4.981  17.007  0.00  0.00    +0.000 C 
ATOM      3  O   UNL     1       4.471   4.097  16.209  0.00  0.00    +0.000 OA
ATOM      4  H   UNL     1       4.143   6.087  18.687  0.00  0.00    +0.000 HD
ENDROOT
BRANCH   2   5
ATOM      5  C   UNL     1       6.254   5.463  17.159  0.00  0.00    +0.000 C 
ATOM      6  C   UNL     1       7.121   4.738  16.115  0.00  0.00    +0.000 C 
ATOM      7  C   UNL     1       6.313   6.996  16.968  0.00  0.00    +0.000 C 
ATOM      8  C   UNL     1       7.667   7.609  17.328  0.00  0.00    +0.000 C 
ATOM      9  C   UNL     1       8.104   7.238  18.740  0.00  0.00    +0.000 C 
ATOM     10  C   UNL     1       8.105   5.729  18.948  0.00  0.00    +0.000 C 
ATOM     11  C   UNL     1       6.754   5.110  18.587  0.00  0.00    +0.000 C 
ENDBRANCH   2   5
BRANCH   1  12
ATOM     12  N   UNL     1       2.555   5.121  17.804  0.00  0.00    +0.000 N 
ATOM     13  H   UNL     1       2.275   4.802  16.877  0.00  0.00    +0.000 HD
BRANCH  12  20
ATOM     14  C   UNL     1       2.355   2.072  17.621  0.00  0.00    +0.000 C 
ATOM     15  C   UNL     1       2.040   2.891  18.842  0.00  0.00    +0.000 A 
ATOM     16  C   UNL     1       1.689   2.191  20.016  0.00  0.00    +0.000 A 
ATOM     17  C   UNL     1       1.436   2.859  21.212  0.00  0.00    +0.000 A 
ATOM     18  C   UNL     1       1.526   4.242  21.255  0.00  0.00    +0.000 A 
ATOM     19  C   UNL     1       1.868   4.949  20.100  0.00  0.00    +0.000 A 
ATOM     20  C   UNL     1       2.112   4.303  18.869  0.00  0.00    +0.000 A 
ENDBRANCH  12  20
ENDBRANCH   1  12
TORSDOF 3
ENDMDL
MODEL 8
REMARK VINA RESULT:      -7.3      4.599      6.644
REMARK  Name = 
REMARK  5 active torsions:
REMARK  status: ('A' for Active; 'I' for Inactive)
REMARK    1  A    between atoms: C_1  and  C_2
REMARK    2  A    between atoms: C_7  and  N_8
REMARK    3  A    between atoms: N_8  and  N_9
REMARK    4  A    between atoms: C_10  and  C_12
REMARK    5  A    between atoms: C_12  and  C_13
REMARK                            x       y       z     vdW  Elec       q    Type
REMARK                         _______ _______ _______ _____ _____    ______ ____
ROOT
ATOM      1  N   UNL     1       1.850   7.643  20.296  0.00  0.00    +0.000 N 
ATOM      2  C   UNL     1       2.339   6.941  19.197  0.00  0.00    +0.000 C 
ATOM      3  O   UNL     1       2.665   7.500  18.147  0.00  0.00    +0.000 OA
ATOM      4  H   UNL     1       1.300   7.192  21.020  0.00  0.00    +0.000 HD
ENDROOT
BRANCH   2   5
ATOM      5  C   UNL     1       2.441   5.407  19.380  0.00  0.00    +0.000 C 
ATOM      6  C   UNL     1       3.919   5.035  19.596  0.00  0.00    +0.000 C 
ATOM      7  C   UNL     1       1.573   4.973  20.583  0.00  0.00    +0.000 C 
ATOM      8  C   UNL     1       1.412   3.458  20.711  0.00  0.00    +0.000 C 
ATOM      9  C   UNL     1       0.883   2.830  19.428  0.00  0.00    +0.000 C 
ATOM     10  C   UNL     1       1.744   3.197  18.227  0.00  0.00    +0.000 C 
ATOM     11  C   UNL     1       1.911   4.711  18.095  0.00  0.00    +0.000 C 
ENDBRANCH   2   5
BRANCH   1  12
ATOM     12  N   UNL     1       1.642   9.014  20.127  0.00  0.00    +0.000 N 
ATOM     13  H   UNL     1       1.495   9.276  19.153  0.00  0.00    +0.000 HD
BRANCH  12  20
ATOM     14  C   UNL     1       0.076  11.555  19.445  0.00  0.00    +0.000 C 
ATOM     15  C   UNL     1       0.042  10.843  20.769  0.00  0.00    +0.000 A 
ATOM     16  C   UNL     1      -0.834  11.350  21.753  0.00  0.00    +0.000 A 
ATOM     17  C   UNL     1      -0.979  10.725  22.989  0.00  0.00    +0.000 A 
ATOM     18  C   UNL     1      -0.245   9.581  23.268  0.00  0.00    +0.000 A 
ATOM     19  C   UNL     1       0.629   9.070  22.306  0.00  0.00    +0.000 A 
ATOM     20  C   UNL     1       0.811   9.690  21.052  0.00  0.00    +0.000 A 
ENDBRANCH  12  20
ENDBRANCH   1  12
TORSDOF 3
ENDMDL
MODEL 9
REMARK VINA RESULT:      -7.2      1.333      6.183
REMARK  Name = 
REMARK  5 active torsions:
REMARK  status: ('A' for Active; 'I' for Inactive)
REMARK    1  A    between atoms: C_1  and  C_2
REMARK    2  A    between atoms: C_7  and  N_8
REMARK    3  A    between atoms: N_8  and  N_9
REMARK    4  A    between atoms: C_10  and  C_12
REMARK    5  A    between atoms: C_12  and  C_13
REMARK                            x       y       z     vdW  Elec       q    Type
REMARK                         _______ _______ _______ _____ _____    ______ ____
ROOT
ATOM      1  N   UNL     1       4.765   3.475  17.682  0.00  0.00    +0.000 N 
ATOM      2  C   UNL     1       4.843   4.864  17.621  0.00  0.00    +0.000 C 
ATOM      3  O   UNL     1       3.842   5.584  17.628  0.00  0.00    +0.000 OA
ATOM      4  H   UNL     1       5.524   2.879  17.368  0.00  0.00    +0.000 HD
ENDROOT
BRANCH   2   5
ATOM      5  C   UNL     1       6.276   5.446  17.537  0.00  0.00    +0.000 C 
ATOM      6  C   UNL     1       7.110   4.563  16.592  0.00  0.00    +0.000 C 
ATOM      7  C   UNL     1       6.209   6.903  17.026  0.00  0.00    +0.000 C 
ATOM      8  C   UNL     1       7.539   7.653  17.127  0.00  0.00    +0.000 C 
ATOM      9  C   UNL     1       8.108   7.615  18.540  0.00  0.00    +0.000 C 
ATOM     10  C   UNL     1       8.234   6.189  19.057  0.00  0.00    +0.000 C 
ATOM     11  C   UNL     1       6.908   5.434  18.956  0.00  0.00    +0.000 C 
ENDBRANCH   2   5
BRANCH   1  12
ATOM     12  N   UNL     1       3.486   2.912  17.647  0.00  0.00    +0.000 N 
ATOM     13  H   UNL     1       3.439   2.070  17.075  0.00  0.00    +0.000 HD
BRANCH  12  20
ATOM     14  C   UNL     1       4.662   1.990  20.319  0.00  0.00    +0.000 C 
ATOM     15  C   UNL     1       3.252   2.471  20.110  0.00  0.00    +0.000 A 
ATOM     16  C   UNL     1       2.428   2.568  21.251  0.00  0.00    +0.000 A 
ATOM     17  C   UNL     1       1.126   3.057  21.167  0.00  0.00    +0.000 A 
ATOM     18  C   UNL     1       0.623   3.456  19.938  0.00  0.00    +0.000 A 
ATOM     19  C   UNL     1       1.426   3.362  18.799  0.00  0.00    +0.000 A 
ATOM     20  C   UNL     1       2.741   2.854  18.848  0.00  0.00    +0.000 A 
ENDBRANCH  12  20
ENDBRANCH   1  12
TORSDOF 3
ENDMDL
