MODEL 1
REMARK VINA RESULT:      -7.3      0.000      0.000
REMARK  Name = 
REMARK  5 active torsions:
REMARK  status: ('A' for Active; 'I' for Inactive)
REMARK    1  A    between atoms: C_1  and  C_2
REMARK    2  A    between atoms: C_2  and  C_3
REMARK    3  A    between atoms: C_3  and  S_4
REMARK    4  A    between atoms: S_4  and  C_5
REMARK    5  A    between atoms: C_5  and  C_6
REMARK                            x       y       z     vdW  Elec       q    Type
REMARK                         _______ _______ _______ _____ _____    ______ ____
ROOT
ATOM      1  C   UNL     1       5.928   5.287  15.198  0.00  0.00    +0.000 C 
ATOM      2  O   UNL     1       5.142   6.029  14.608  0.00  0.00    +0.000 OA
ATOM      3  N   UNL     1       6.584   5.694  16.361  0.00  0.00    +0.000 N 
ATOM      4  C   UNL     1       7.543   4.865  17.099  0.00  0.00    +0.000 C 
ATOM      5  C   UNL     1       7.713   5.299  18.559  0.00  0.00    +0.000 C 
ATOM      6  C   UNL     1       8.085   6.785  18.659  0.00  0.00    +0.000 C 
ATOM      7  C   UNL     1       7.357   7.650  17.633  0.00  0.00    +0.000 C 
ATOM      8  C   UNL     1       6.142   6.932  17.037  0.00  0.00    +0.000 C 
ATOM      9  C   UNL     1       5.078   6.666  18.138  0.00  0.00    +0.000 C 
ATOM     10  N   UNL     1       5.206   5.347  18.766  0.00  0.00    +0.000 N 
ATOM     11  C   UNL     1       4.309   4.362  18.388  0.00  0.00    +0.000 A 
ATOM     12  N   UNL     1       3.395   4.642  17.444  0.00  0.00    +0.000 NA
ATOM     13  C   UNL     1       2.523   3.683  17.087  0.00  0.00    +0.000 A 
ATOM     14  C   UNL     1       2.504   2.438  17.654  0.00  0.00    +0.000 A 
ATOM     15  C   UNL     1       3.459   2.230  18.613  0.00  0.00    +0.000 A 
ATOM     16  N   UNL     1       4.366   3.157  18.980  0.00  0.00    +0.000 NA
ATOM     17  C   UNL     1       6.462   4.947  19.395  0.00  0.00    +0.000 C 
ENDROOT
BRANCH   1  18
ATOM     18  C   UNL     1       6.233   3.861  14.727  0.00  0.00    +0.000 C 
BRANCH  18  19
ATOM     19  S   UNL     1       6.353   3.677  12.923  0.00  0.00    +0.000 S 
BRANCH  19  20
ATOM     20  C   UNL     1       4.601   3.347  12.546  0.00  0.00    +0.000 C 
BRANCH  20  22
ATOM     21  C   UNL     1       3.366   3.732  10.382  0.00  0.00    +0.000 C 
ATOM     22  C   UNL     1       4.474   2.955  11.076  0.00  0.00    +0.000 C 
ENDBRANCH  20  22
ENDBRANCH  19  20
ENDBRANCH  18  19
ENDBRANCH   1  18
TORSDOF 4
ENDMDL
MODEL 2
REMARK VINA RESULT:      -7.3      0.760      1.017
REMARK  Name = 
REMARK  5 active torsions:
REMARK  status: ('A' for Active; 'I' for Inactive)
REMARK    1  A    between atoms: C_1  and  C_2
REMARK    2  A    between atoms: C_2  and  C_3
REMARK    3  A    between atoms: C_3  and  S_4
REMARK    4  A    between atoms: S_4  and  C_5
REMARK    5  A    between atoms: C_5  and  C_6
REMARK                            x       y       z     vdW  Elec       q    Type
REMARK                         _______ _______ _______ _____ _____    ______ ____
ROOT
ATOM      1  C   UNL     1       5.776   5.280  15.165  0.00  0.00    +0.000 C 
ATOM      2  O   UNL     1       4.958   6.020  14.617  0.00  0.00    +0.000 OA
ATOM      3  N   UNL     1       6.468   5.677  16.311  0.00  0.00    +0.000 N 
ATOM      4  C   UNL     1       7.464   4.850  17.000  0.00  0.00    +0.000 C 
ATOM      5  C   UNL     1       7.680   5.261  18.460  0.00  0.00    +0.000 C 
ATOM      6  C   UNL     1       8.033   6.750  18.574  0.00  0.00    +0.000 C 
ATOM      7  C   UNL     1       7.255   7.622  17.591  0.00  0.00    +0.000 C 
ATOM      8  C   UNL     1       6.031   6.896  17.025  0.00  0.00    +0.000 C 
ATOM      9  C   UNL     1       5.011   6.592  18.158  0.00  0.00    +0.000 C 
ATOM     10  N   UNL     1       5.182   5.264  18.757  0.00  0.00    +0.000 N 
ATOM     11  C   UNL     1       4.287   4.273  18.393  0.00  0.00    +0.000 A 
ATOM     12  N   UNL     1       3.336   4.554  17.488  0.00  0.00    +0.000 NA
ATOM     13  C   UNL     1       2.467   3.587  17.144  0.00  0.00    +0.000 A 
ATOM     14  C   UNL     1       2.487   2.332  17.688  0.00  0.00    +0.000 A 
ATOM     15  C   UNL     1       3.479   2.122  18.609  0.00  0.00    +0.000 A 
ATOM     16  N   UNL     1       4.384   3.058  18.960  0.00  0.00    +0.000 NA
ATOM     17  C   UNL     1       6.465   4.874  19.333  0.00  0.00    +0.000 C 
ENDROOT
BRANCH   1  18
ATOM     18  C   UNL     1       6.087   3.868  14.657  0.00  0.00    +0.000 C 
BRANCH  18  19
ATOM     19  S   UNL     1       6.783   3.811  12.979  0.00  0.00    +0.000 S 
BRANCH  19  20
ATOM     20  C   UNL     1       5.331   3.173  12.082  0.00  0.00    +0.000 C 
BRANCH  20  22
ATOM     21  C   UNL     1       7.146   1.765  11.042  0.00  0.00    +0.000 C 
ATOM     22  C   UNL     1       5.685   1.825  11.460  0.00  0.00    +0.000 C 
ENDBRANCH  20  22
ENDBRANCH  19  20
ENDBRANCH  18  19
ENDBRANCH   1  18
TORSDOF 4
ENDMDL
MODEL 3
REMARK VINA RESULT:      -7.1      3.778      7.003
REMARK  Name = 
REMARK  5 active torsions:
REMARK  status: ('A' for Active; 'I' for Inactive)
REMARK    1  A    between atoms: C_1  and  C_2
REMARK    2  A    between atoms: C_2  and  C_3
REMARK    3  A    between atoms: C_3  and  S_4
REMARK    4  A    between atoms: S_4  and  C_5
REMARK    5  A    between atoms: C_5  and  C_6
REMARK                            x       y       z     vdW  Elec       q    Type
REMARK                         _______ _______ _______ _____ _____    ______ ____
ROOT
ATOM      1  C   UNL     1       2.161   6.325  18.616  0.00  0.00    +0.000 C 
ATOM      2  O   UNL     1       1.861   6.680  17.476  0.00  0.00    +0.000 OA
ATOM      3  N   UNL     1       2.162   4.978  18.985  0.00  0.00    +0.000 N 
ATOM      4  C   UNL     1       2.493   4.493  20.329  0.00  0.00    +0.000 C 
ATOM      5  C   UNL     1       2.927   3.024  20.348  0.00  0.00    +0.000 C 
ATOM      6  C   UNL     1       1.874   2.124  19.686  0.00  0.00    +0.000 C 
ATOM      7  C   UNL     1       1.229   2.766  18.459  0.00  0.00    +0.000 C 
ATOM      8  C   UNL     1       2.050   3.947  17.932  0.00  0.00    +0.000 C 
ATOM      9  C   UNL     1       3.436   3.457  17.425  0.00  0.00    +0.000 C 
ATOM     10  N   UNL     1       4.489   3.531  18.443  0.00  0.00    +0.000 N 
ATOM     11  C   UNL     1       5.402   4.569  18.352  0.00  0.00    +0.000 A 
ATOM     12  N   UNL     1       5.261   5.476  17.372  0.00  0.00    +0.000 NA
ATOM     13  C   UNL     1       6.155   6.477  17.287  0.00  0.00    +0.000 A 
ATOM     14  C   UNL     1       7.217   6.609  18.139  0.00  0.00    +0.000 A 
ATOM     15  C   UNL     1       7.299   5.643  19.106  0.00  0.00    +0.000 A 
ATOM     16  N   UNL     1       6.409   4.638  19.239  0.00  0.00    +0.000 NA
ATOM     17  C   UNL     1       4.329   2.848  19.723  0.00  0.00    +0.000 C 
ENDROOT
BRANCH   1  18
ATOM     18  C   UNL     1       2.576   7.315  19.709  0.00  0.00    +0.000 C 
BRANCH  18  19
ATOM     19  S   UNL     1       1.475   8.750  19.879  0.00  0.00    +0.000 S 
BRANCH  19  20
ATOM     20  C   UNL     1       1.232   8.719  21.685  0.00  0.00    +0.000 C 
BRANCH  20  22
ATOM     21  C   UNL     1      -0.514   9.873  23.092  0.00  0.00    +0.000 C 
ATOM     22  C   UNL     1      -0.258   8.857  21.989  0.00  0.00    +0.000 C 
ENDBRANCH  20  22
ENDBRANCH  19  20
ENDBRANCH  18  19
ENDBRANCH   1  18
TORSDOF 4
ENDMDL
MODEL 4
REMARK VINA RESULT:      -6.9      3.684      6.572
REMARK  Name = 
REMARK  5 active torsions:
REMARK  status: ('A' for Active; 'I' for Inactive)
REMARK    1  A    between atoms: C_1  and  C_2
REMARK    2  A    between atoms: C_2  and  C_3
REMARK    3  A    between atoms: C_3  and  S_4
REMARK    4  A    between atoms: S_4  and  C_5
REMARK    5  A    between atoms: C_5  and  C_6
REMARK                            x       y       z     vdW  Elec       q    Type
REMARK                         _______ _______ _______ _____ _____    ______ ____
ROOT
ATOM      1  C   UNL     1       2.220   6.378  18.686  0.00  0.00    +0.000 C 
ATOM      2  O   UNL     1       1.888   6.765  17.565  0.00  0.00    +0.000 OA
ATOM      3  N   UNL     1       2.208   5.024  19.025  0.00  0.00    +0.000 N 
ATOM      4  C   UNL     1       2.575   4.502  20.346  0.00  0.00    +0.000 C 
ATOM      5  C   UNL     1       2.981   3.025  20.316  0.00  0.00    +0.000 C 
ATOM      6  C   UNL     1       1.890   2.160  19.670  0.00  0.00    +0.000 C 
ATOM      7  C   UNL     1       1.217   2.841  18.481  0.00  0.00    +0.000 C 
ATOM      8  C   UNL     1       2.042   4.019  17.953  0.00  0.00    +0.000 C 
ATOM      9  C   UNL     1       3.400   3.517  17.388  0.00  0.00    +0.000 C 
ATOM     10  N   UNL     1       4.489   3.549  18.371  0.00  0.00    +0.000 N 
ATOM     11  C   UNL     1       5.416   4.572  18.274  0.00  0.00    +0.000 A 
ATOM     12  N   UNL     1       5.260   5.504  17.319  0.00  0.00    +0.000 NA
ATOM     13  C   UNL     1       6.169   6.491  17.227  0.00  0.00    +0.000 A 
ATOM     14  C   UNL     1       7.261   6.583  18.045  0.00  0.00    +0.000 A 
ATOM     15  C   UNL     1       7.358   5.594  18.987  0.00  0.00    +0.000 A 
ATOM     16  N   UNL     1       6.454   4.602  19.127  0.00  0.00    +0.000 NA
ATOM     17  C   UNL     1       4.358   2.839  19.640  0.00  0.00    +0.000 C 
ENDROOT
BRANCH   1  18
ATOM     18  C   UNL     1       2.690   7.335  19.787  0.00  0.00    +0.000 C 
BRANCH  18  19
ATOM     19  S   UNL     1       1.344   8.135  20.710  0.00  0.00    +0.000 S 
BRANCH  19  20
ATOM     20  C   UNL     1       1.019   9.539  19.594  0.00  0.00    +0.000 C 
BRANCH  20  22
ATOM     21  C   UNL     1      -1.086  10.371  18.485  0.00  0.00    +0.000 C 
ATOM     22  C   UNL     1      -0.415  10.019  19.803  0.00  0.00    +0.000 C 
ENDBRANCH  20  22
ENDBRANCH  19  20
ENDBRANCH  18  19
ENDBRANCH   1  18
TORSDOF 4
ENDMDL
MODEL 5
REMARK VINA RESULT:      -6.7      1.252      1.607
REMARK  Name = 
REMARK  5 active torsions:
REMARK  status: ('A' for Active; 'I' for Inactive)
REMARK    1  A    between atoms: C_1  and  C_2
REMARK    2  A    between atoms: C_2  and  C_3
REMARK    3  A    between atoms: C_3  and  S_4
REMARK    4  A    between atoms: S_4  and  C_5
REMARK    5  A    between atoms: C_5  and  C_6
REMARK                            x       y       z     vdW  Elec       q    Type
REMARK                         _______ _______ _______ _____ _____    ______ ____
ROOT
ATOM      1  C   UNL     1       5.864   5.274  15.212  0.00  0.00    +0.000 C 
ATOM      2  O   UNL     1       5.075   6.026  14.638  0.00  0.00    +0.000 OA
ATOM      3  N   UNL     1       6.542   5.669  16.367  0.00  0.00    +0.000 N 
ATOM      4  C   UNL     1       7.504   4.827  17.085  0.00  0.00    +0.000 C 
ATOM      5  C   UNL     1       7.701   5.251  18.544  0.00  0.00    +0.000 C 
ATOM      6  C   UNL     1       8.088   6.733  18.647  0.00  0.00    +0.000 C 
ATOM      7  C   UNL     1       7.351   7.611  17.638  0.00  0.00    +0.000 C 
ATOM      8  C   UNL     1       6.121   6.907  17.056  0.00  0.00    +0.000 C 
ATOM      9  C   UNL     1       5.072   6.643  18.172  0.00  0.00    +0.000 C 
ATOM     10  N   UNL     1       5.198   5.319  18.791  0.00  0.00    +0.000 N 
ATOM     11  C   UNL     1       4.286   4.345  18.421  0.00  0.00    +0.000 A 
ATOM     12  N   UNL     1       3.361   4.638  17.493  0.00  0.00    +0.000 NA
ATOM     13  C   UNL     1       2.475   3.688  17.144  0.00  0.00    +0.000 A 
ATOM     14  C   UNL     1       2.454   2.440  17.704  0.00  0.00    +0.000 A 
ATOM     15  C   UNL     1       3.422   2.218  18.647  0.00  0.00    +0.000 A 
ATOM     16  N   UNL     1       4.343   3.136  19.005  0.00  0.00    +0.000 NA
ATOM     17  C   UNL     1       6.460   4.905  19.397  0.00  0.00    +0.000 C 
ENDROOT
BRANCH   1  18
ATOM     18  C   UNL     1       6.149   3.848  14.727  0.00  0.00    +0.000 C 
BRANCH  18  19
ATOM     19  S   UNL     1       5.594   3.508  13.031  0.00  0.00    +0.000 S 
BRANCH  19  20
ATOM     20  C   UNL     1       7.189   3.670  12.164  0.00  0.00    +0.000 C 
BRANCH  20  22
ATOM     21  C   UNL     1       8.439   5.796  12.687  0.00  0.00    +0.000 C 
ATOM     22  C   UNL     1       7.405   5.134  11.790  0.00  0.00    +0.000 C 
ENDBRANCH  20  22
ENDBRANCH  19  20
ENDBRANCH  18  19
ENDBRANCH   1  18
TORSDOF 4
ENDMDL
MODEL 6
REMARK VINA RESULT:      -6.4      3.569      6.337
REMARK  Name = 
REMARK  5 active torsions:
REMARK  status: ('A' for Active; 'I' for Inactive)
REMARK    1  A    between atoms: C_1  and  C_2
REMARK    2  A    between atoms: C_2  and  C_3
REMARK    3  A    between atoms: C_3  and  S_4
REMARK    4  A    between atoms: S_4  and  C_5
REMARK    5  A    between atoms: C_5  and  C_6
REMARK                            x       y       z     vdW  Elec       q    Type
REMARK                         _______ _______ _______ _____ _____    ______ ____
ROOT
ATOM      1  C   UNL     1       2.091   6.257  18.531  0.00  0.00    +0.000 C 
ATOM      2  O   UNL     1       1.672   6.460  17.391  0.00  0.00    +0.000 OA
ATOM      3  N   UNL     1       2.077   4.981  19.098  0.00  0.00    +0.000 N 
ATOM      4  C   UNL     1       2.546   4.678  20.455  0.00  0.00    +0.000 C 
ATOM      5  C   UNL     1       2.913   3.203  20.648  0.00  0.00    +0.000 C 
ATOM      6  C   UNL     1       1.749   2.283  20.253  0.00  0.00    +0.000 C 
ATOM      7  C   UNL     1       0.990   2.778  19.024  0.00  0.00    +0.000 C 
ATOM      8  C   UNL     1       1.793   3.816  18.234  0.00  0.00    +0.000 C 
ATOM      9  C   UNL     1       3.084   3.173  17.654  0.00  0.00    +0.000 C 
ATOM     10  N   UNL     1       4.255   3.329  18.524  0.00  0.00    +0.000 N 
ATOM     11  C   UNL     1       5.195   4.284  18.174  0.00  0.00    +0.000 A 
ATOM     12  N   UNL     1       4.977   5.045  17.089  0.00  0.00    +0.000 NA
ATOM     13  C   UNL     1       5.898   5.966  16.753  0.00  0.00    +0.000 A 
ATOM     14  C   UNL     1       7.060   6.154  17.449  0.00  0.00    +0.000 A 
ATOM     15  C   UNL     1       7.215   5.336  18.537  0.00  0.00    +0.000 A 
ATOM     16  N   UNL     1       6.304   4.419  18.921  0.00  0.00    +0.000 NA
ATOM     17  C   UNL     1       4.220   2.851  19.903  0.00  0.00    +0.000 C 
ENDROOT
BRANCH   1  18
ATOM     18  C   UNL     1       2.679   7.368  19.407  0.00  0.00    +0.000 C 
BRANCH  18  19
ATOM     19  S   UNL     1       1.449   8.285  20.380  0.00  0.00    +0.000 S 
BRANCH  19  20
ATOM     20  C   UNL     1       0.854   9.430  19.093  0.00  0.00    +0.000 C 
BRANCH  20  22
ATOM     21  C   UNL     1       2.203  11.347  18.166  0.00  0.00    +0.000 C 
ATOM     22  C   UNL     1       2.029   9.837  18.208  0.00  0.00    +0.000 C 
ENDBRANCH  20  22
ENDBRANCH  19  20
ENDBRANCH  18  19
ENDBRANCH   1  18
TORSDOF 4
ENDMDL
MODEL 7
REMARK VINA RESULT:      -6.4      3.538      6.408
REMARK  Name = 
REMARK  5 active torsions:
REMARK  status: ('A' for Active; 'I' for Inactive)
REMARK    1  A    between atoms: C_1  and  C_2
REMARK    2  A    between atoms: C_2  and  C_3
REMARK    3  A    between atoms: C_3  and  S_4
REMARK    4  A    between atoms: S_4  and  C_5
REMARK    5  A    between atoms: C_5  and  C_6
REMARK                            x       y       z     vdW  Elec       q    Type
REMARK                         _______ _______ _______ _____ _____    ______ ____
ROOT
ATOM      1  C   UNL     1       1.887   5.974  18.414  0.00  0.00    +0.000 C 
ATOM      2  O   UNL     1       1.397   5.972  17.285  0.00  0.00    +0.000 OA
ATOM      3  N   UNL     1       1.908   4.823  19.205  0.00  0.00    +0.000 N 
ATOM      4  C   UNL     1       2.460   4.766  20.562  0.00  0.00    +0.000 C 
ATOM      5  C   UNL     1       2.838   3.346  20.997  0.00  0.00    +0.000 C 
ATOM      6  C   UNL     1       1.651   2.383  20.849  0.00  0.00    +0.000 C 
ATOM      7  C   UNL     1       0.818   2.655  19.599  0.00  0.00    +0.000 C 
ATOM      8  C   UNL     1       1.571   3.523  18.586  0.00  0.00    +0.000 C 
ATOM      9  C   UNL     1       2.823   2.771  18.055  0.00  0.00    +0.000 C 
ATOM     10  N   UNL     1       4.046   3.069  18.808  0.00  0.00    +0.000 N 
ATOM     11  C   UNL     1       4.962   3.934  18.234  0.00  0.00    +0.000 A 
ATOM     12  N   UNL     1       4.678   4.488  17.044  0.00  0.00    +0.000 NA
ATOM     13  C   UNL     1       5.575   5.322  16.490  0.00  0.00    +0.000 A 
ATOM     14  C   UNL     1       6.779   5.620  17.068  0.00  0.00    +0.000 A 
ATOM     15  C   UNL     1       7.001   5.012  18.275  0.00  0.00    +0.000 A 
ATOM     16  N   UNL     1       6.116   4.190  18.874  0.00  0.00    +0.000 NA
ATOM     17  C   UNL     1       4.097   2.850  20.251  0.00  0.00    +0.000 C 
ENDROOT
BRANCH   1  18
ATOM     18  C   UNL     1       2.528   7.219  19.036  0.00  0.00    +0.000 C 
BRANCH  18  19
ATOM     19  S   UNL     1       2.309   8.740  18.066  0.00  0.00    +0.000 S 
BRANCH  19  20
ATOM     20  C   UNL     1       1.107   9.597  19.134  0.00  0.00    +0.000 C 
BRANCH  20  22
ATOM     21  C   UNL     1      -1.165  10.690  19.138  0.00  0.00    +0.000 C 
ATOM     22  C   UNL     1      -0.088  10.032  18.290  0.00  0.00    +0.000 C 
ENDBRANCH  20  22
ENDBRANCH  19  20
ENDBRANCH  18  19
ENDBRANCH   1  18
TORSDOF 4
ENDMDL
MODEL 8
REMARK VINA RESULT:      -5.8      9.019     11.914
REMARK  Name = 
REMARK  5 active torsions:
REMARK  status: ('A' for Active; 'I' for Inactive)
REMARK    1  A    between atoms: C_1  and  C_2
REMARK    2  A    between atoms: C_2  and  C_3
REMARK    3  A    between atoms: C_3  and  S_4
REMARK    4  A    between atoms: S_4  and  C_5
REMARK    5  A    between atoms: C_5  and  C_6
REMARK                            x       y       z     vdW  Elec       q    Type
REMARK                         _______ _______ _______ _____ _____    ______ ____
ROOT
ATOM      1  C   UNL     1       7.833  14.277  18.567  0.00  0.00    +0.000 C 
ATOM      2  O   UNL     1       7.352  14.292  17.433  0.00  0.00    +0.000 OA
ATOM      3  N   UNL     1       8.663  13.240  18.996  0.00  0.00    +0.000 N 
ATOM      4  C   UNL     1       9.252  13.157  20.336  0.00  0.00    +0.000 C 
ATOM      5  C   UNL     1      10.491  12.258  20.393  0.00  0.00    +0.000 C 
ATOM      6  C   UNL     1      10.190  10.858  19.841  0.00  0.00    +0.000 C 
ATOM      7  C   UNL     1       9.259  10.883  18.631  0.00  0.00    +0.000 C 
ATOM      8  C   UNL     1       9.178  12.277  18.000  0.00  0.00    +0.000 C 
ATOM      9  C   UNL     1      10.563  12.692  17.427  0.00  0.00    +0.000 C 
ATOM     10  N   UNL     1      11.376  13.465  18.371  0.00  0.00    +0.000 N 
ATOM     11  C   UNL     1      11.465  14.833  18.176  0.00  0.00    +0.000 A 
ATOM     12  N   UNL     1      10.778  15.393  17.167  0.00  0.00    +0.000 NA
ATOM     13  C   UNL     1      10.874  16.721  16.980  0.00  0.00    +0.000 A 
ATOM     14  C   UNL     1      11.656  17.533  17.755  0.00  0.00    +0.000 A 
ATOM     15  C   UNL     1      12.332  16.890  18.758  0.00  0.00    +0.000 A 
ATOM     16  N   UNL     1      12.242  15.565  18.992  0.00  0.00    +0.000 NA
ATOM     17  C   UNL     1      11.695  12.923  19.689  0.00  0.00    +0.000 C 
ENDROOT
BRANCH   1  18
ATOM     18  C   UNL     1       7.584  15.395  19.586  0.00  0.00    +0.000 C 
BRANCH  18  19
ATOM     19  S   UNL     1       5.857  15.540  20.133  0.00  0.00    +0.000 S 
BRANCH  19  20
ATOM     20  C   UNL     1       5.314  16.885  19.030  0.00  0.00    +0.000 C 
BRANCH  20  22
ATOM     21  C   UNL     1       3.925  15.357  17.584  0.00  0.00    +0.000 C 
ATOM     22  C   UNL     1       3.916  16.565  18.507  0.00  0.00    +0.000 C 
ENDBRANCH  20  22
ENDBRANCH  19  20
ENDBRANCH  18  19
ENDBRANCH   1  18
TORSDOF 4
ENDMDL
MODEL 9
REMARK VINA RESULT:      -5.7      2.564      5.652
REMARK  Name = 
REMARK  5 active torsions:
REMARK  status: ('A' for Active; 'I' for Inactive)
REMARK    1  A    between atoms: C_1  and  C_2
REMARK    2  A    between atoms: C_2  and  C_3
REMARK    3  A    between atoms: C_3  and  S_4
REMARK    4  A    between atoms: S_4  and  C_5
REMARK    5  A    between atoms: C_5  and  C_6
REMARK                            x       y       z     vdW  Elec       q    Type
REMARK                         _______ _______ _______ _____ _____    ______ ____
ROOT
ATOM      1  C   UNL     1       4.849   5.512  19.484  0.00  0.00    +0.000 C 
ATOM      2  O   UNL     1       4.401   6.655  19.390  0.00  0.00    +0.000 OA
ATOM      3  N   UNL     1       4.014   4.394  19.444  0.00  0.00    +0.000 N 
ATOM      4  C   UNL     1       4.485   3.010  19.568  0.00  0.00    +0.000 C 
ATOM      5  C   UNL     1       3.504   1.988  18.985  0.00  0.00    +0.000 C 
ATOM      6  C   UNL     1       2.105   2.146  19.596  0.00  0.00    +0.000 C 
ATOM      7  C   UNL     1       1.717   3.605  19.825  0.00  0.00    +0.000 C 
ATOM      8  C   UNL     1       2.606   4.566  19.028  0.00  0.00    +0.000 C 
ATOM      9  C   UNL     1       2.402   4.350  17.503  0.00  0.00    +0.000 C 
ATOM     10  N   UNL     1       3.360   3.408  16.913  0.00  0.00    +0.000 N 
ATOM     11  C   UNL     1       4.407   3.932  16.174  0.00  0.00    +0.000 A 
ATOM     12  N   UNL     1       4.523   5.265  16.062  0.00  0.00    +0.000 NA
ATOM     13  C   UNL     1       5.539   5.765  15.338  0.00  0.00    +0.000 A 
ATOM     14  C   UNL     1       6.453   4.982  14.687  0.00  0.00    +0.000 A 
ATOM     15  C   UNL     1       6.266   3.634  14.840  0.00  0.00    +0.000 A 
ATOM     16  N   UNL     1       5.274   3.095  15.579  0.00  0.00    +0.000 NA
ATOM     17  C   UNL     1       3.483   2.053  17.441  0.00  0.00    +0.000 C 
ENDROOT
BRANCH   1  18
ATOM     18  C   UNL     1       6.346   5.220  19.630  0.00  0.00    +0.000 C 
BRANCH  18  19
ATOM     19  S   UNL     1       7.325   5.560  18.137  0.00  0.00    +0.000 S 
BRANCH  19  20
ATOM     20  C   UNL     1       8.154   7.092  18.675  0.00  0.00    +0.000 C 
BRANCH  20  22
ATOM     21  C   UNL     1       8.442   9.532  18.110  0.00  0.00    +0.000 C 
ATOM     22  C   UNL     1       7.823   8.209  17.688  0.00  0.00    +0.000 C 
ENDBRANCH  20  22
ENDBRANCH  19  20
ENDBRANCH  18  19
ENDBRANCH   1  18
TORSDOF 4
ENDMDL
