MODEL 1
REMARK VINA RESULT:      -9.5      0.000      0.000
REMARK  Name = 
REMARK  4 active torsions:
REMARK  status: ('A' for Active; 'I' for Inactive)
REMARK    1  A    between atoms: N_2  and  C_4
REMARK    2  A    between atoms: C_8  and  C_9
REMARK    3  A    between atoms: N_13  and  C_14
REMARK    4  A    between atoms: C_17  and  C_18
REMARK                            x       y       z     vdW  Elec       q    Type
REMARK                         _______ _______ _______ _____ _____    ______ ____
ROOT
ATOM      1  C   UNL     1       3.401   7.204  17.776  0.00  0.00    +0.000 A 
ATOM      2  C   UNL     1       2.952   6.777  19.030  0.00  0.00    +0.000 A 
ATOM      3  C   UNL     1       2.051   7.574  19.747  0.00  0.00    +0.000 A 
ATOM      4  C   UNL     1       1.563   8.778  19.211  0.00  0.00    +0.000 A 
ATOM      5  C   UNL     1       2.008   9.177  17.945  0.00  0.00    +0.000 A 
ATOM      6  C   UNL     1       2.906   8.391  17.223  0.00  0.00    +0.000 A 
ENDROOT
BRANCH   4   7
ATOM      7  C   UNL     1       0.547   9.543  19.926  0.00  0.00    +0.000 A 
ATOM      8  N   UNL     1      -0.181  10.558  19.502  0.00  0.00    +0.000 NA
ATOM      9  C   UNL     1      -0.790  11.019  20.643  0.00  0.00    +0.000 A 
ATOM     10  C   UNL     1      -1.622  12.118  20.864  0.00  0.00    +0.000 A 
ATOM     11  C   UNL     1      -2.051  12.370  22.176  0.00  0.00    +0.000 A 
ATOM     12  C   UNL     1      -1.674  11.534  23.235  0.00  0.00    +0.000 A 
ATOM     13  C   UNL     1      -0.858  10.417  23.028  0.00  0.00    +0.000 A 
ATOM     14  C   UNL     1      -0.440  10.217  21.721  0.00  0.00    +0.000 A 
ATOM     15  O   UNL     1       0.400   9.248  21.261  0.00  0.00    +0.000 OA
ENDBRANCH   4   7
BRANCH   1  20
ATOM     16  C   UNL     1       4.732   5.113  17.203  0.00  0.00    +0.000 A 
ATOM     17  N   UNL     1       5.855   4.944  16.528  0.00  0.00    +0.000 NA
ATOM     18  N   UNL     1       6.094   6.118  15.864  0.00  0.00    +0.000 NA
ATOM     19  N   UNL     1       5.153   7.013  16.125  0.00  0.00    +0.000 NA
ATOM     20  N   UNL     1       4.374   6.453  17.077  0.00  0.00    +0.000 N 
BRANCH  16  25
ATOM     21  C   UNL     1       3.584   2.569  19.746  0.00  0.00    +0.000 A 
ATOM     22  C   UNL     1       2.496   1.973  19.095  0.00  0.00    +0.000 A 
ATOM     23  C   UNL     1       2.157   2.390  17.814  0.00  0.00    +0.000 A 
ATOM     24  C   UNL     1       2.906   3.388  17.188  0.00  0.00    +0.000 A 
ATOM     25  C   UNL     1       3.962   4.042  17.852  0.00  0.00    +0.000 A 
ATOM     26  C   UNL     1       4.308   3.608  19.140  0.00  0.00    +0.000 A 
BRANCH  21  28
ATOM     27  O   UNL     1       3.144   2.170  21.988  0.00  0.00    +0.000 OA
ATOM     28  N   UNL     1       3.978   2.084  21.075  0.00  0.00    +0.000 N 
ATOM     29  O   UNL     1       5.119   1.619  21.204  0.00  0.00    +0.000 OA
ENDBRANCH  21  28
ENDBRANCH  16  25
ENDBRANCH   1  20
TORSDOF 4
ENDMDL
MODEL 2
REMARK VINA RESULT:      -9.5      2.816      4.325
REMARK  Name = 
REMARK  4 active torsions:
REMARK  status: ('A' for Active; 'I' for Inactive)
REMARK    1  A    between atoms: N_2  and  C_4
REMARK    2  A    between atoms: C_8  and  C_9
REMARK    3  A    between atoms: N_13  and  C_14
REMARK    4  A    between atoms: C_17  and  C_18
REMARK                            x       y       z     vdW  Elec       q    Type
REMARK                         _______ _______ _______ _____ _____    ______ ____
ROOT
ATOM      1  C   UNL     1       2.509   5.883  19.541  0.00  0.00    +0.000 A 
ATOM      2  C   UNL     1       1.937   6.577  20.613  0.00  0.00    +0.000 A 
ATOM      3  C   UNL     1       1.550   7.911  20.442  0.00  0.00    +0.000 A 
ATOM      4  C   UNL     1       1.694   8.553  19.200  0.00  0.00    +0.000 A 
ATOM      5  C   UNL     1       2.248   7.835  18.133  0.00  0.00    +0.000 A 
ATOM      6  C   UNL     1       2.637   6.506  18.294  0.00  0.00    +0.000 A 
ENDROOT
BRANCH   4   7
ATOM      7  C   UNL     1       1.190   9.910  19.011  0.00  0.00    +0.000 A 
ATOM      8  N   UNL     1       1.774  10.941  18.430  0.00  0.00    +0.000 NA
ATOM      9  C   UNL     1       0.950  11.996  18.738  0.00  0.00    +0.000 A 
ATOM     10  C   UNL     1       1.066  13.361  18.476  0.00  0.00    +0.000 A 
ATOM     11  C   UNL     1       0.075  14.218  18.977  0.00  0.00    +0.000 A 
ATOM     12  C   UNL     1      -1.015  13.719  19.704  0.00  0.00    +0.000 A 
ATOM     13  C   UNL     1      -1.157  12.351  19.957  0.00  0.00    +0.000 A 
ATOM     14  C   UNL     1      -0.144  11.543  19.463  0.00  0.00    +0.000 A 
ATOM     15  O   UNL     1      -0.009  10.196  19.619  0.00  0.00    +0.000 OA
ENDBRANCH   4   7
BRANCH   1  20
ATOM     16  C   UNL     1       4.092   3.925  19.171  0.00  0.00    +0.000 A 
ATOM     17  N   UNL     1       3.968   2.635  19.429  0.00  0.00    +0.000 NA
ATOM     18  N   UNL     1       2.889   2.504  20.262  0.00  0.00    +0.000 NA
ATOM     19  N   UNL     1       2.334   3.680  20.513  0.00  0.00    +0.000 NA
ATOM     20  N   UNL     1       2.982   4.563  19.721  0.00  0.00    +0.000 N 
BRANCH  16  25
ATOM     21  C   UNL     1       6.626   4.941  16.563  0.00  0.00    +0.000 A 
ATOM     22  C   UNL     1       7.499   5.752  17.302  0.00  0.00    +0.000 A 
ATOM     23  C   UNL     1       7.268   5.942  18.659  0.00  0.00    +0.000 A 
ATOM     24  C   UNL     1       6.178   5.321  19.271  0.00  0.00    +0.000 A 
ATOM     25  C   UNL     1       5.255   4.556  18.531  0.00  0.00    +0.000 A 
ATOM     26  C   UNL     1       5.500   4.356  17.165  0.00  0.00    +0.000 A 
BRANCH  21  28
ATOM     27  O   UNL     1       7.716   5.442  14.578  0.00  0.00    +0.000 OA
ATOM     28  N   UNL     1       6.907   4.692  15.144  0.00  0.00    +0.000 N 
ATOM     29  O   UNL     1       6.322   3.748  14.597  0.00  0.00    +0.000 OA
ENDBRANCH  21  28
ENDBRANCH  16  25
ENDBRANCH   1  20
TORSDOF 4
ENDMDL
MODEL 3
REMARK VINA RESULT:      -9.4      2.529      3.846
REMARK  Name = 
REMARK  4 active torsions:
REMARK  status: ('A' for Active; 'I' for Inactive)
REMARK    1  A    between atoms: N_2  and  C_4
REMARK    2  A    between atoms: C_8  and  C_9
REMARK    3  A    between atoms: N_13  and  C_14
REMARK    4  A    between atoms: C_17  and  C_18
REMARK                            x       y       z     vdW  Elec       q    Type
REMARK                         _______ _______ _______ _____ _____    ______ ____
ROOT
ATOM      1  C   UNL     1       2.236   5.191  19.210  0.00  0.00    +0.000 A 
ATOM      2  C   UNL     1       1.791   5.580  20.478  0.00  0.00    +0.000 A 
ATOM      3  C   UNL     1       1.562   6.936  20.742  0.00  0.00    +0.000 A 
ATOM      4  C   UNL     1       1.737   7.907  19.742  0.00  0.00    +0.000 A 
ATOM      5  C   UNL     1       2.162   7.496  18.473  0.00  0.00    +0.000 A 
ATOM      6  C   UNL     1       2.393   6.148  18.200  0.00  0.00    +0.000 A 
ENDROOT
BRANCH   4   7
ATOM      7  C   UNL     1       1.395   9.302  20.003  0.00  0.00    +0.000 A 
ATOM      8  N   UNL     1       0.965   9.858  21.120  0.00  0.00    +0.000 NA
ATOM      9  C   UNL     1       0.594  11.122  20.731  0.00  0.00    +0.000 A 
ATOM     10  C   UNL     1      -0.006  12.164  21.439  0.00  0.00    +0.000 A 
ATOM     11  C   UNL     1      -0.322  13.341  20.743  0.00  0.00    +0.000 A 
ATOM     12  C   UNL     1      -0.026  13.478  19.380  0.00  0.00    +0.000 A 
ATOM     13  C   UNL     1       0.593  12.451  18.661  0.00  0.00    +0.000 A 
ATOM     14  C   UNL     1       0.868  11.298  19.382  0.00  0.00    +0.000 A 
ATOM     15  O   UNL     1       1.409  10.139  18.913  0.00  0.00    +0.000 OA
ENDBRANCH   4   7
BRANCH   1  20
ATOM     16  C   UNL     1       3.574   3.285  18.184  0.00  0.00    +0.000 A 
ATOM     17  N   UNL     1       3.301   2.001  18.037  0.00  0.00    +0.000 NA
ATOM     18  N   UNL     1       2.222   1.735  18.836  0.00  0.00    +0.000 NA
ATOM     19  N   UNL     1       1.811   2.828  19.462  0.00  0.00    +0.000 NA
ATOM     20  N   UNL     1       2.551   3.837  18.953  0.00  0.00    +0.000 N 
BRANCH  16  25
ATOM     21  C   UNL     1       6.818   5.216  18.188  0.00  0.00    +0.000 A 
ATOM     22  C   UNL     1       7.141   5.252  16.825  0.00  0.00    +0.000 A 
ATOM     23  C   UNL     1       6.280   4.665  15.906  0.00  0.00    +0.000 A 
ATOM     24  C   UNL     1       5.105   4.055  16.347  0.00  0.00    +0.000 A 
ATOM     25  C   UNL     1       4.798   3.953  17.718  0.00  0.00    +0.000 A 
ATOM     26  C   UNL     1       5.662   4.558  18.640  0.00  0.00    +0.000 A 
BRANCH  21  28
ATOM     27  O   UNL     1       8.262   6.931  18.782  0.00  0.00    +0.000 OA
ATOM     28  N   UNL     1       7.697   5.891  19.151  0.00  0.00    +0.000 N 
ATOM     29  O   UNL     1       7.823   5.382  20.273  0.00  0.00    +0.000 OA
ENDBRANCH  21  28
ENDBRANCH  16  25
ENDBRANCH   1  20
TORSDOF 4
ENDMDL
MODEL 4
REMARK VINA RESULT:      -9.4      2.844      4.297
REMARK  Name = 
REMARK  4 active torsions:
REMARK  status: ('A' for Active; 'I' for Inactive)
REMARK    1  A    between atoms: N_2  and  C_4
REMARK    2  A    between atoms: C_8  and  C_9
REMARK    3  A    between atoms: N_13  and  C_14
REMARK    4  A    between atoms: C_17  and  C_18
REMARK                            x       y       z     vdW  Elec       q    Type
REMARK                         _______ _______ _______ _____ _____    ______ ____
ROOT
ATOM      1  C   UNL     1       2.345   5.276  19.268  0.00  0.00    +0.000 A 
ATOM      2  C   UNL     1       1.820   5.637  20.514  0.00  0.00    +0.000 A 
ATOM      3  C   UNL     1       1.498   6.976  20.765  0.00  0.00    +0.000 A 
ATOM      4  C   UNL     1       1.660   7.958  19.771  0.00  0.00    +0.000 A 
ATOM      5  C   UNL     1       2.167   7.573  18.524  0.00  0.00    +0.000 A 
ATOM      6  C   UNL     1       2.490   6.241  18.265  0.00  0.00    +0.000 A 
ENDROOT
BRANCH   4   7
ATOM      7  C   UNL     1       1.223   9.329  20.014  0.00  0.00    +0.000 A 
ATOM      8  N   UNL     1       1.004   9.941  21.161  0.00  0.00    +0.000 NA
ATOM      9  C   UNL     1       0.403  11.119  20.791  0.00  0.00    +0.000 A 
ATOM     10  C   UNL     1      -0.136  12.158  21.551  0.00  0.00    +0.000 A 
ATOM     11  C   UNL     1      -0.746  13.225  20.876  0.00  0.00    +0.000 A 
ATOM     12  C   UNL     1      -0.799  13.262  19.476  0.00  0.00    +0.000 A 
ATOM     13  C   UNL     1      -0.246  12.239  18.698  0.00  0.00    +0.000 A 
ATOM     14  C   UNL     1       0.328  11.194  19.407  0.00  0.00    +0.000 A 
ATOM     15  O   UNL     1       0.879  10.056  18.899  0.00  0.00    +0.000 OA
ENDBRANCH   4   7
BRANCH   1  20
ATOM     16  C   UNL     1       3.830   3.455  18.293  0.00  0.00    +0.000 A 
ATOM     17  N   UNL     1       3.643   2.154  18.147  0.00  0.00    +0.000 NA
ATOM     18  N   UNL     1       2.560   1.824  18.917  0.00  0.00    +0.000 NA
ATOM     19  N   UNL     1       2.063   2.892  19.524  0.00  0.00    +0.000 NA
ATOM     20  N   UNL     1       2.753   3.944  19.029  0.00  0.00    +0.000 N 
BRANCH  16  25
ATOM     21  C   UNL     1       6.568   4.860  16.106  0.00  0.00    +0.000 A 
ATOM     22  C   UNL     1       7.321   5.606  17.022  0.00  0.00    +0.000 A 
ATOM     23  C   UNL     1       6.944   5.626  18.359  0.00  0.00    +0.000 A 
ATOM     24  C   UNL     1       5.827   4.899  18.775  0.00  0.00    +0.000 A 
ATOM     25  C   UNL     1       5.022   4.196  17.858  0.00  0.00    +0.000 A 
ATOM     26  C   UNL     1       5.415   4.169  16.513  0.00  0.00    +0.000 A 
BRANCH  21  28
ATOM     27  O   UNL     1       7.896   5.571  14.344  0.00  0.00    +0.000 OA
ATOM     28  N   UNL     1       7.004   4.791  14.706  0.00  0.00    +0.000 N 
ATOM     29  O   UNL     1       6.456   3.958  13.971  0.00  0.00    +0.000 OA
ENDBRANCH  21  28
ENDBRANCH  16  25
ENDBRANCH   1  20
TORSDOF 4
ENDMDL
MODEL 5
REMARK VINA RESULT:      -9.4      2.676      3.888
REMARK  Name = 
REMARK  4 active torsions:
REMARK  status: ('A' for Active; 'I' for Inactive)
REMARK    1  A    between atoms: N_2  and  C_4
REMARK    2  A    between atoms: C_8  and  C_9
REMARK    3  A    between atoms: N_13  and  C_14
REMARK    4  A    between atoms: C_17  and  C_18
REMARK                            x       y       z     vdW  Elec       q    Type
REMARK                         _______ _______ _______ _____ _____    ______ ____
ROOT
ATOM      1  C   UNL     1       2.207   5.479  19.084  0.00  0.00    +0.000 A 
ATOM      2  C   UNL     1       1.895   6.133  20.282  0.00  0.00    +0.000 A 
ATOM      3  C   UNL     1       1.726   7.522  20.285  0.00  0.00    +0.000 A 
ATOM      4  C   UNL     1       1.829   8.267  19.097  0.00  0.00    +0.000 A 
ATOM      5  C   UNL     1       2.120   7.592  17.905  0.00  0.00    +0.000 A 
ATOM      6  C   UNL     1       2.290   6.208  17.892  0.00  0.00    +0.000 A 
ENDROOT
BRANCH   4   7
ATOM      7  C   UNL     1       1.548   9.699  19.100  0.00  0.00    +0.000 A 
ATOM      8  N   UNL     1       1.856  10.609  18.197  0.00  0.00    +0.000 NA
ATOM      9  C   UNL     1       1.554  11.796  18.816  0.00  0.00    +0.000 A 
ATOM     10  C   UNL     1       1.728  13.119  18.407  0.00  0.00    +0.000 A 
ATOM     11  C   UNL     1       1.368  14.141  19.298  0.00  0.00    +0.000 A 
ATOM     12  C   UNL     1       0.829  13.847  20.558  0.00  0.00    +0.000 A 
ATOM     13  C   UNL     1       0.628  12.527  20.975  0.00  0.00    +0.000 A 
ATOM     14  C   UNL     1       1.018  11.549  20.072  0.00  0.00    +0.000 A 
ATOM     15  O   UNL     1       0.986  10.199  20.251  0.00  0.00    +0.000 OA
ENDBRANCH   4   7
BRANCH   1  20
ATOM     16  C   UNL     1       3.487   3.368  18.470  0.00  0.00    +0.000 A 
ATOM     17  N   UNL     1       3.155   2.090  18.532  0.00  0.00    +0.000 NA
ATOM     18  N   UNL     1       2.031   2.015  19.310  0.00  0.00    +0.000 NA
ATOM     19  N   UNL     1       1.651   3.217  19.717  0.00  0.00    +0.000 NA
ATOM     20  N   UNL     1       2.463   4.089  19.080  0.00  0.00    +0.000 N 
BRANCH  16  25
ATOM     21  C   UNL     1       6.851   5.078  18.322  0.00  0.00    +0.000 A 
ATOM     22  C   UNL     1       7.206   4.911  16.977  0.00  0.00    +0.000 A 
ATOM     23  C   UNL     1       6.329   4.261  16.116  0.00  0.00    +0.000 A 
ATOM     24  C   UNL     1       5.107   3.790  16.597  0.00  0.00    +0.000 A 
ATOM     25  C   UNL     1       4.763   3.891  17.959  0.00  0.00    +0.000 A 
ATOM     26  C   UNL     1       5.644   4.559  18.820  0.00  0.00    +0.000 A 
BRANCH  21  28
ATOM     27  O   UNL     1       8.262   6.860  18.778  0.00  0.00    +0.000 OA
ATOM     28  N   UNL     1       7.749   5.819  19.215  0.00  0.00    +0.000 N 
ATOM     29  O   UNL     1       7.943   5.362  20.349  0.00  0.00    +0.000 OA
ENDBRANCH  21  28
ENDBRANCH  16  25
ENDBRANCH   1  20
TORSDOF 4
ENDMDL
MODEL 6
REMARK VINA RESULT:      -9.3      1.268      1.466
REMARK  Name = 
REMARK  4 active torsions:
REMARK  status: ('A' for Active; 'I' for Inactive)
REMARK    1  A    between atoms: N_2  and  C_4
REMARK    2  A    between atoms: C_8  and  C_9
REMARK    3  A    between atoms: N_13  and  C_14
REMARK    4  A    between atoms: C_17  and  C_18
REMARK                            x       y       z     vdW  Elec       q    Type
REMARK                         _______ _______ _______ _____ _____    ______ ____
ROOT
ATOM      1  C   UNL     1       2.599   7.714  18.422  0.00  0.00    +0.000 A 
ATOM      2  C   UNL     1       2.207   7.552  19.755  0.00  0.00    +0.000 A 
ATOM      3  C   UNL     1       1.317   8.467  20.329  0.00  0.00    +0.000 A 
ATOM      4  C   UNL     1       0.783   9.527  19.575  0.00  0.00    +0.000 A 
ATOM      5  C   UNL     1       1.171   9.660  18.236  0.00  0.00    +0.000 A 
ATOM      6  C   UNL     1       2.056   8.753  17.656  0.00  0.00    +0.000 A 
ENDROOT
BRANCH   4   7
ATOM      7  C   UNL     1      -0.222  10.410  20.158  0.00  0.00    +0.000 A 
ATOM      8  N   UNL     1      -1.080  11.208  19.552  0.00  0.00    +0.000 NA
ATOM      9  C   UNL     1      -1.610  11.953  20.577  0.00  0.00    +0.000 A 
ATOM     10  C   UNL     1      -2.513  13.017  20.571  0.00  0.00    +0.000 A 
ATOM     11  C   UNL     1      -2.828  13.625  21.795  0.00  0.00    +0.000 A 
ATOM     12  C   UNL     1      -2.268  13.168  22.997  0.00  0.00    +0.000 A 
ATOM     13  C   UNL     1      -1.378  12.090  23.022  0.00  0.00    +0.000 A 
ATOM     14  C   UNL     1      -1.078  11.532  21.788  0.00  0.00    +0.000 A 
ATOM     15  O   UNL     1      -0.203  10.520  21.528  0.00  0.00    +0.000 OA
ENDBRANCH   4   7
BRANCH   1  20
ATOM     16  C   UNL     1       3.738   5.475  18.018  0.00  0.00    +0.000 A 
ATOM     17  N   UNL     1       4.913   5.170  17.496  0.00  0.00    +0.000 NA
ATOM     18  N   UNL     1       5.374   6.301  16.877  0.00  0.00    +0.000 NA
ATOM     19  N   UNL     1       4.519   7.303  17.017  0.00  0.00    +0.000 NA
ATOM     20  N   UNL     1       3.560   6.848  17.853  0.00  0.00    +0.000 N 
BRANCH  16  25
ATOM     21  C   UNL     1       2.002   3.068  20.351  0.00  0.00    +0.000 A 
ATOM     22  C   UNL     1       0.916   2.639  19.576  0.00  0.00    +0.000 A 
ATOM     23  C   UNL     1       0.771   3.121  18.281  0.00  0.00    +0.000 A 
ATOM     24  C   UNL     1       1.708   4.018  17.766  0.00  0.00    +0.000 A 
ATOM     25  C   UNL     1       2.768   4.509  18.553  0.00  0.00    +0.000 A 
ATOM     26  C   UNL     1       2.918   4.009  19.854  0.00  0.00    +0.000 A 
BRANCH  21  28
ATOM     27  O   UNL     1       1.200   2.472  22.444  0.00  0.00    +0.000 OA
ATOM     28  N   UNL     1       2.188   2.509  21.696  0.00  0.00    +0.000 N 
ATOM     29  O   UNL     1       3.319   2.109  22.004  0.00  0.00    +0.000 OA
ENDBRANCH  21  28
ENDBRANCH  16  25
ENDBRANCH   1  20
TORSDOF 4
ENDMDL
MODEL 7
REMARK VINA RESULT:      -9.3      1.403      1.890
REMARK  Name = 
REMARK  4 active torsions:
REMARK  status: ('A' for Active; 'I' for Inactive)
REMARK    1  A    between atoms: N_2  and  C_4
REMARK    2  A    between atoms: C_8  and  C_9
REMARK    3  A    between atoms: N_13  and  C_14
REMARK    4  A    between atoms: C_17  and  C_18
REMARK                            x       y       z     vdW  Elec       q    Type
REMARK                         _______ _______ _______ _____ _____    ______ ____
ROOT
ATOM      1  C   UNL     1       2.633   7.687  18.420  0.00  0.00    +0.000 A 
ATOM      2  C   UNL     1       2.247   7.431  19.740  0.00  0.00    +0.000 A 
ATOM      3  C   UNL     1       1.466   8.369  20.425  0.00  0.00    +0.000 A 
ATOM      4  C   UNL     1       1.031   9.547  19.794  0.00  0.00    +0.000 A 
ATOM      5  C   UNL     1       1.409   9.775  18.465  0.00  0.00    +0.000 A 
ATOM      6  C   UNL     1       2.188   8.847  17.775  0.00  0.00    +0.000 A 
ENDROOT
BRANCH   4   7
ATOM      7  C   UNL     1       0.132  10.464  20.487  0.00  0.00    +0.000 A 
ATOM      8  N   UNL     1      -0.050  10.630  21.783  0.00  0.00    +0.000 NA
ATOM      9  C   UNL     1      -1.155  11.442  21.854  0.00  0.00    +0.000 A 
ATOM     10  C   UNL     1      -1.885  11.911  22.947  0.00  0.00    +0.000 A 
ATOM     11  C   UNL     1      -3.024  12.692  22.697  0.00  0.00    +0.000 A 
ATOM     12  C   UNL     1      -3.411  13.011  21.388  0.00  0.00    +0.000 A 
ATOM     13  C   UNL     1      -2.679  12.565  20.283  0.00  0.00    +0.000 A 
ATOM     14  C   UNL     1      -1.574  11.780  20.574  0.00  0.00    +0.000 A 
ATOM     15  O   UNL     1      -0.733  11.175  19.689  0.00  0.00    +0.000 OA
ENDBRANCH   4   7
BRANCH   1  20
ATOM     16  C   UNL     1       3.618   5.407  17.866  0.00  0.00    +0.000 A 
ATOM     17  N   UNL     1       4.720   5.059  17.225  0.00  0.00    +0.000 NA
ATOM     18  N   UNL     1       5.172   6.182  16.584  0.00  0.00    +0.000 NA
ATOM     19  N   UNL     1       4.384   7.219  16.826  0.00  0.00    +0.000 NA
ATOM     20  N   UNL     1       3.491   6.790  17.744  0.00  0.00    +0.000 N 
BRANCH  16  25
ATOM     21  C   UNL     1       1.974   3.078  20.341  0.00  0.00    +0.000 A 
ATOM     22  C   UNL     1       0.829   2.670  19.645  0.00  0.00    +0.000 A 
ATOM     23  C   UNL     1       0.612   3.140  18.355  0.00  0.00    +0.000 A 
ATOM     24  C   UNL     1       1.537   4.004  17.767  0.00  0.00    +0.000 A 
ATOM     25  C   UNL     1       2.659   4.475  18.476  0.00  0.00    +0.000 A 
ATOM     26  C   UNL     1       2.881   3.987  19.771  0.00  0.00    +0.000 A 
BRANCH  21  28
ATOM     27  O   UNL     1       3.384   2.141  21.926  0.00  0.00    +0.000 OA
ATOM     28  N   UNL     1       2.233   2.531  21.679  0.00  0.00    +0.000 N 
ATOM     29  O   UNL     1       1.289   2.492  22.479  0.00  0.00    +0.000 OA
ENDBRANCH  21  28
ENDBRANCH  16  25
ENDBRANCH   1  20
TORSDOF 4
ENDMDL
MODEL 8
REMARK VINA RESULT:      -9.3      2.768      4.092
REMARK  Name = 
REMARK  4 active torsions:
REMARK  status: ('A' for Active; 'I' for Inactive)
REMARK    1  A    between atoms: N_2  and  C_4
REMARK    2  A    between atoms: C_8  and  C_9
REMARK    3  A    between atoms: N_13  and  C_14
REMARK    4  A    between atoms: C_17  and  C_18
REMARK                            x       y       z     vdW  Elec       q    Type
REMARK                         _______ _______ _______ _____ _____    ______ ____
ROOT
ATOM      1  C   UNL     1       2.282   5.849  19.306  0.00  0.00    +0.000 A 
ATOM      2  C   UNL     1       2.443   6.480  18.068  0.00  0.00    +0.000 A 
ATOM      3  C   UNL     1       2.176   7.849  17.951  0.00  0.00    +0.000 A 
ATOM      4  C   UNL     1       1.782   8.607  19.067  0.00  0.00    +0.000 A 
ATOM      5  C   UNL     1       1.646   7.962  20.303  0.00  0.00    +0.000 A 
ATOM      6  C   UNL     1       1.911   6.599  20.429  0.00  0.00    +0.000 A 
ENDROOT
BRANCH   4   7
ATOM      7  C   UNL     1       1.608  10.051  18.950  0.00  0.00    +0.000 A 
ATOM      8  N   UNL     1       2.148  10.887  18.084  0.00  0.00    +0.000 NA
ATOM      9  C   UNL     1       1.817  12.125  18.579  0.00  0.00    +0.000 A 
ATOM     10  C   UNL     1       2.160  13.409  18.153  0.00  0.00    +0.000 A 
ATOM     11  C   UNL     1       1.709  14.501  18.909  0.00  0.00    +0.000 A 
ATOM     12  C   UNL     1       0.918  14.313  20.051  0.00  0.00    +0.000 A 
ATOM     13  C   UNL     1       0.548  13.034  20.480  0.00  0.00    +0.000 A 
ATOM     14  C   UNL     1       1.033  11.984  19.715  0.00  0.00    +0.000 A 
ATOM     15  O   UNL     1       0.872  10.650  19.945  0.00  0.00    +0.000 OA
ENDBRANCH   4   7
BRANCH   1  20
ATOM     16  C   UNL     1       3.400   3.619  18.808  0.00  0.00    +0.000 A 
ATOM     17  N   UNL     1       3.011   2.374  19.024  0.00  0.00    +0.000 NA
ATOM     18  N   UNL     1       1.954   2.438  19.891  0.00  0.00    +0.000 NA
ATOM     19  N   UNL     1       1.669   3.694  20.205  0.00  0.00    +0.000 NA
ATOM     20  N   UNL     1       2.467   4.453  19.422  0.00  0.00    +0.000 N 
BRANCH  16  25
ATOM     21  C   UNL     1       6.846   5.053  18.242  0.00  0.00    +0.000 A 
ATOM     22  C   UNL     1       7.052   4.795  16.881  0.00  0.00    +0.000 A 
ATOM     23  C   UNL     1       6.049   4.175  16.146  0.00  0.00    +0.000 A 
ATOM     24  C   UNL     1       4.850   3.823  16.767  0.00  0.00    +0.000 A 
ATOM     25  C   UNL     1       4.652   4.016  18.148  0.00  0.00    +0.000 A 
ATOM     26  C   UNL     1       5.661   4.654  18.882  0.00  0.00    +0.000 A 
BRANCH  21  28
ATOM     27  O   UNL     1       8.167   6.916  18.643  0.00  0.00    +0.000 OA
ATOM     28  N   UNL     1       7.882   5.764  19.002  0.00  0.00    +0.000 N 
ATOM     29  O   UNL     1       8.408   5.173  19.954  0.00  0.00    +0.000 OA
ENDBRANCH  21  28
ENDBRANCH  16  25
ENDBRANCH   1  20
TORSDOF 4
ENDMDL
MODEL 9
REMARK VINA RESULT:      -9.3      1.306      1.910
REMARK  Name = 
REMARK  4 active torsions:
REMARK  status: ('A' for Active; 'I' for Inactive)
REMARK    1  A    between atoms: N_2  and  C_4
REMARK    2  A    between atoms: C_8  and  C_9
REMARK    3  A    between atoms: N_13  and  C_14
REMARK    4  A    between atoms: C_17  and  C_18
REMARK                            x       y       z     vdW  Elec       q    Type
REMARK                         _______ _______ _______ _____ _____    ______ ____
ROOT
ATOM      1  C   UNL     1       2.783   7.500  18.366  0.00  0.00    +0.000 A 
ATOM      2  C   UNL     1       2.247   8.610  17.704  0.00  0.00    +0.000 A 
ATOM      3  C   UNL     1       1.374   9.465  18.387  0.00  0.00    +0.000 A 
ATOM      4  C   UNL     1       1.056   9.246  19.738  0.00  0.00    +0.000 A 
ATOM      5  C   UNL     1       1.620   8.142  20.390  0.00  0.00    +0.000 A 
ATOM      6  C   UNL     1       2.490   7.285  19.717  0.00  0.00    +0.000 A 
ENDROOT
BRANCH   4   7
ATOM      7  C   UNL     1       0.228  10.204  20.464  0.00  0.00    +0.000 A 
ATOM      8  N   UNL     1       0.007  10.298  21.761  0.00  0.00    +0.000 NA
ATOM      9  C   UNL     1      -1.008  11.217  21.852  0.00  0.00    +0.000 A 
ATOM     10  C   UNL     1      -1.733  11.685  22.949  0.00  0.00    +0.000 A 
ATOM     11  C   UNL     1      -2.770  12.600  22.717  0.00  0.00    +0.000 A 
ATOM     12  C   UNL     1      -3.063  13.051  21.422  0.00  0.00    +0.000 A 
ATOM     13  C   UNL     1      -2.333  12.607  20.313  0.00  0.00    +0.000 A 
ATOM     14  C   UNL     1      -1.331  11.688  20.586  0.00  0.00    +0.000 A 
ATOM     15  O   UNL     1      -0.520  11.059  19.690  0.00  0.00    +0.000 OA
ENDBRANCH   4   7
BRANCH   1  20
ATOM     16  C   UNL     1       3.693   5.197  17.783  0.00  0.00    +0.000 A 
ATOM     17  N   UNL     1       4.768   4.821  17.112  0.00  0.00    +0.000 NA
ATOM     18  N   UNL     1       5.231   5.933  16.460  0.00  0.00    +0.000 NA
ATOM     19  N   UNL     1       4.478   6.990  16.724  0.00  0.00    +0.000 NA
ATOM     20  N   UNL     1       3.599   6.582  17.666  0.00  0.00    +0.000 N 
BRANCH  16  25
ATOM     21  C   UNL     1       2.016   2.971  20.331  0.00  0.00    +0.000 A 
ATOM     22  C   UNL     1       0.883   2.530  19.635  0.00  0.00    +0.000 A 
ATOM     23  C   UNL     1       0.685   2.944  18.323  0.00  0.00    +0.000 A 
ATOM     24  C   UNL     1       1.617   3.784  17.713  0.00  0.00    +0.000 A 
ATOM     25  C   UNL     1       2.727   4.289  18.418  0.00  0.00    +0.000 A 
ATOM     26  C   UNL     1       2.929   3.858  19.736  0.00  0.00    +0.000 A 
BRANCH  21  28
ATOM     27  O   UNL     1       1.297   2.489  22.482  0.00  0.00    +0.000 OA
ATOM     28  N   UNL     1       2.255   2.484  21.695  0.00  0.00    +0.000 N 
ATOM     29  O   UNL     1       3.397   2.098  21.978  0.00  0.00    +0.000 OA
ENDBRANCH  21  28
ENDBRANCH  16  25
ENDBRANCH   1  20
TORSDOF 4
ENDMDL
