MODEL 1
REMARK VINA RESULT:      -8.2      0.000      0.000
REMARK  Name = 
REMARK  2 active torsions:
REMARK  status: ('A' for Active; 'I' for Inactive)
REMARK    1  A    between atoms: C_4  and  N_5
REMARK    2  A    between atoms: C_12  and  C_13
REMARK                            x       y       z     vdW  Elec       q    Type
REMARK                         _______ _______ _______ _____ _____    ______ ____
ROOT
ATOM      1  N   UNL     1       4.158   5.553  18.008  0.00  0.00    +0.000 NA
ATOM      2  C   UNL     1       4.728   6.654  17.215  0.00  0.00    +0.000 C 
ATOM      3  C   UNL     1       6.216   6.904  17.466  0.00  0.00    +0.000 C 
ATOM      4  C   UNL     1       7.198   5.773  17.187  0.00  0.00    +0.000 C 
ATOM      5  N   UNL     1       6.630   4.684  16.413  0.00  0.00    +0.000 N 
ATOM      6  C   UNL     1       6.780   4.608  15.071  0.00  0.00    +0.000 A 
ATOM      7  N   UNL     1       6.279   3.742  14.213  0.00  0.00    +0.000 NA
ATOM      8  C   UNL     1       6.836   4.152  13.024  0.00  0.00    +0.000 A 
ATOM      9  N   UNL     1       7.626   5.229  13.113  0.00  0.00    +0.000 NA
ATOM     10  O   UNL     1       7.583   5.537  14.465  0.00  0.00    +0.000 OA
ATOM     11  C   UNL     1       5.776   3.745  17.129  0.00  0.00    +0.000 C 
ATOM     12  C   UNL     1       4.331   4.256  17.292  0.00  0.00    +0.000 C 
ENDROOT
BRANCH   1  16
ATOM     13  C   UNL     1       1.993   5.119  20.585  0.00  0.00    +0.000 C 
ATOM     14  C   UNL     1       1.172   4.297  19.607  0.00  0.00    +0.000 C 
ATOM     15  C   UNL     1       1.877   4.451  18.259  0.00  0.00    +0.000 C 
ATOM     16  C   UNL     1       2.724   5.745  18.352  0.00  0.00    +0.000 C 
ATOM     17  C   UNL     1       2.417   6.313  19.753  0.00  0.00    +0.000 C 
ENDBRANCH   1  16
BRANCH   8  18
ATOM     18  C   UNL     1       6.586   3.496  11.676  0.00  0.00    +0.000 C 
ATOM     19  C   UNL     1       7.116   2.110  11.383  0.00  0.00    +0.000 C 
ATOM     20  C   UNL     1       5.659   2.304  11.620  0.00  0.00    +0.000 C 
ENDBRANCH   8  18
TORSDOF 2
ENDMDL
MODEL 2
REMARK VINA RESULT:      -7.6      1.181      1.547
REMARK  Name = 
REMARK  2 active torsions:
REMARK  status: ('A' for Active; 'I' for Inactive)
REMARK    1  A    between atoms: C_4  and  N_5
REMARK    2  A    between atoms: C_12  and  C_13
REMARK                            x       y       z     vdW  Elec       q    Type
REMARK                         _______ _______ _______ _____ _____    ______ ____
ROOT
ATOM      1  N   UNL     1       3.204   5.113  18.874  0.00  0.00    +0.000 NA
ATOM      2  C   UNL     1       3.357   6.203  17.897  0.00  0.00    +0.000 C 
ATOM      3  C   UNL     1       4.631   7.030  18.072  0.00  0.00    +0.000 C 
ATOM      4  C   UNL     1       5.975   6.320  17.966  0.00  0.00    +0.000 C 
ATOM      5  N   UNL     1       5.889   4.987  17.397  0.00  0.00    +0.000 N 
ATOM      6  C   UNL     1       6.115   4.756  16.084  0.00  0.00    +0.000 A 
ATOM      7  N   UNL     1       6.012   3.638  15.392  0.00  0.00    +0.000 NA
ATOM      8  C   UNL     1       6.427   4.028  14.141  0.00  0.00    +0.000 A 
ATOM      9  N   UNL     1       6.755   5.322  14.032  0.00  0.00    +0.000 NA
ATOM     10  O   UNL     1       6.541   5.807  15.315  0.00  0.00    +0.000 OA
ATOM     11  C   UNL     1       5.416   3.926  18.277  0.00  0.00    +0.000 C 
ATOM     12  C   UNL     1       3.879   3.877  18.381  0.00  0.00    +0.000 C 
ENDROOT
BRANCH   1  16
ATOM     13  C   UNL     1       1.355   3.053  20.838  0.00  0.00    +0.000 C 
ATOM     14  C   UNL     1       0.656   2.643  19.554  0.00  0.00    +0.000 C 
ATOM     15  C   UNL     1       1.221   3.567  18.474  0.00  0.00    +0.000 C 
ATOM     16  C   UNL     1       1.788   4.807  19.211  0.00  0.00    +0.000 C 
ATOM     17  C   UNL     1       1.467   4.559  20.699  0.00  0.00    +0.000 C 
ENDBRANCH   1  16
BRANCH   8  18
ATOM     18  C   UNL     1       6.500   3.117  12.926  0.00  0.00    +0.000 C 
ATOM     19  C   UNL     1       5.452   3.201  11.838  0.00  0.00    +0.000 C 
ATOM     20  C   UNL     1       6.819   3.737  11.585  0.00  0.00    +0.000 C 
ENDBRANCH   8  18
TORSDOF 2
ENDMDL
MODEL 3
REMARK VINA RESULT:      -7.6      0.762      1.335
REMARK  Name = 
REMARK  2 active torsions:
REMARK  status: ('A' for Active; 'I' for Inactive)
REMARK    1  A    between atoms: C_4  and  N_5
REMARK    2  A    between atoms: C_12  and  C_13
REMARK                            x       y       z     vdW  Elec       q    Type
REMARK                         _______ _______ _______ _____ _____    ______ ____
ROOT
ATOM      1  N   UNL     1       4.156   5.885  17.989  0.00  0.00    +0.000 NA
ATOM      2  C   UNL     1       4.800   6.927  17.174  0.00  0.00    +0.000 C 
ATOM      3  C   UNL     1       6.297   7.094  17.436  0.00  0.00    +0.000 C 
ATOM      4  C   UNL     1       7.211   5.898  17.199  0.00  0.00    +0.000 C 
ATOM      5  N   UNL     1       6.586   4.824  16.448  0.00  0.00    +0.000 N 
ATOM      6  C   UNL     1       6.745   4.702  15.110  0.00  0.00    +0.000 A 
ATOM      7  N   UNL     1       6.202   3.845  14.270  0.00  0.00    +0.000 NA
ATOM      8  C   UNL     1       6.794   4.187  13.077  0.00  0.00    +0.000 A 
ATOM      9  N   UNL     1       7.648   5.218  13.146  0.00  0.00    +0.000 NA
ATOM     10  O   UNL     1       7.610   5.564  14.489  0.00  0.00    +0.000 OA
ATOM     11  C   UNL     1       5.670   3.959  17.179  0.00  0.00    +0.000 C 
ATOM     12  C   UNL     1       4.257   4.560  17.310  0.00  0.00    +0.000 C 
ENDROOT
BRANCH   1  16
ATOM     13  C   UNL     1       2.162   8.416  19.054  0.00  0.00    +0.000 C 
ATOM     14  C   UNL     1       1.741   7.466  20.161  0.00  0.00    +0.000 C 
ATOM     15  C   UNL     1       2.412   6.133  19.827  0.00  0.00    +0.000 C 
ATOM     16  C   UNL     1       2.733   6.172  18.312  0.00  0.00    +0.000 C 
ATOM     17  C   UNL     1       2.171   7.524  17.827  0.00  0.00    +0.000 C 
ENDBRANCH   1  16
BRANCH   8  18
ATOM     18  C   UNL     1       6.519   3.512  11.744  0.00  0.00    +0.000 C 
ATOM     19  C   UNL     1       6.817   2.041  11.550  0.00  0.00    +0.000 C 
ATOM     20  C   UNL     1       5.403   2.494  11.674  0.00  0.00    +0.000 C 
ENDBRANCH   8  18
TORSDOF 2
ENDMDL
MODEL 4
REMARK VINA RESULT:      -7.2      1.597      2.390
REMARK  Name = 
REMARK  2 active torsions:
REMARK  status: ('A' for Active; 'I' for Inactive)
REMARK    1  A    between atoms: C_4  and  N_5
REMARK    2  A    between atoms: C_12  and  C_13
REMARK                            x       y       z     vdW  Elec       q    Type
REMARK                         _______ _______ _______ _____ _____    ______ ____
ROOT
ATOM      1  N   UNL     1       3.509   4.972  19.664  0.00  0.00    +0.000 NA
ATOM      2  C   UNL     1       2.824   5.593  18.518  0.00  0.00    +0.000 C 
ATOM      3  C   UNL     1       3.295   7.012  18.198  0.00  0.00    +0.000 C 
ATOM      4  C   UNL     1       4.761   7.225  17.843  0.00  0.00    +0.000 C 
ATOM      5  N   UNL     1       5.476   5.997  17.546  0.00  0.00    +0.000 N 
ATOM      6  C   UNL     1       5.647   5.561  16.277  0.00  0.00    +0.000 A 
ATOM      7  N   UNL     1       6.198   4.449  15.834  0.00  0.00    +0.000 NA
ATOM      8  C   UNL     1       6.128   4.610  14.470  0.00  0.00    +0.000 A 
ATOM      9  N   UNL     1       5.545   5.746  14.065  0.00  0.00    +0.000 NA
ATOM     10  O   UNL     1       5.220   6.372  15.260  0.00  0.00    +0.000 OA
ATOM     11  C   UNL     1       5.886   5.184  18.683  0.00  0.00    +0.000 C 
ATOM     12  C   UNL     1       4.753   4.283  19.213  0.00  0.00    +0.000 C 
ENDROOT
BRANCH   1  16
ATOM     13  C   UNL     1       1.782   2.082  19.243  0.00  0.00    +0.000 C 
ATOM     14  C   UNL     1       0.585   2.853  19.770  0.00  0.00    +0.000 C 
ATOM     15  C   UNL     1       1.137   4.214  20.196  0.00  0.00    +0.000 C 
ATOM     16  C   UNL     1       2.658   4.018  20.423  0.00  0.00    +0.000 C 
ATOM     17  C   UNL     1       2.901   2.516  20.168  0.00  0.00    +0.000 C 
ENDBRANCH   1  16
BRANCH   8  18
ATOM     18  C   UNL     1       6.623   3.599  13.448  0.00  0.00    +0.000 C 
ATOM     19  C   UNL     1       5.765   3.221  12.261  0.00  0.00    +0.000 C 
ATOM     20  C   UNL     1       6.957   4.092  12.059  0.00  0.00    +0.000 C 
ENDBRANCH   8  18
TORSDOF 2
ENDMDL
MODEL 5
REMARK VINA RESULT:      -7.1      2.238      6.713
REMARK  Name = 
REMARK  2 active torsions:
REMARK  status: ('A' for Active; 'I' for Inactive)
REMARK    1  A    between atoms: C_4  and  N_5
REMARK    2  A    between atoms: C_12  and  C_13
REMARK                            x       y       z     vdW  Elec       q    Type
REMARK                         _______ _______ _______ _____ _____    ______ ____
ROOT
ATOM      1  N   UNL     1       6.338   5.468  15.348  0.00  0.00    +0.000 NA
ATOM      2  C   UNL     1       6.892   4.245  15.952  0.00  0.00    +0.000 C 
ATOM      3  C   UNL     1       7.736   4.489  17.203  0.00  0.00    +0.000 C 
ATOM      4  C   UNL     1       7.079   5.163  18.401  0.00  0.00    +0.000 C 
ATOM      5  N   UNL     1       5.630   5.212  18.322  0.00  0.00    +0.000 N 
ATOM      6  C   UNL     1       4.851   4.284  18.923  0.00  0.00    +0.000 A 
ATOM      7  N   UNL     1       3.541   4.134  18.896  0.00  0.00    +0.000 NA
ATOM      8  C   UNL     1       3.351   3.065  19.738  0.00  0.00    +0.000 A 
ATOM      9  N   UNL     1       4.472   2.546  20.255  0.00  0.00    +0.000 NA
ATOM     10  O   UNL     1       5.466   3.347  19.710  0.00  0.00    +0.000 OA
ATOM     11  C   UNL     1       5.054   6.230  17.453  0.00  0.00    +0.000 C 
ATOM     12  C   UNL     1       5.025   5.804  15.972  0.00  0.00    +0.000 C 
ENDROOT
BRANCH   1  16
ATOM     13  C   UNL     1       6.120   3.183  12.849  0.00  0.00    +0.000 C 
ATOM     14  C   UNL     1       7.288   3.925  12.224  0.00  0.00    +0.000 C 
ATOM     15  C   UNL     1       7.512   5.149  13.112  0.00  0.00    +0.000 C 
ATOM     16  C   UNL     1       6.182   5.388  13.872  0.00  0.00    +0.000 C 
ATOM     17  C   UNL     1       5.224   4.306  13.332  0.00  0.00    +0.000 C 
ENDBRANCH   1  16
BRANCH   8  18
ATOM     18  C   UNL     1       2.001   2.450  20.071  0.00  0.00    +0.000 C 
ATOM     19  C   UNL     1       1.289   2.806  21.358  0.00  0.00    +0.000 C 
ATOM     20  C   UNL     1       0.785   3.348  20.066  0.00  0.00    +0.000 C 
ENDBRANCH   8  18
TORSDOF 2
ENDMDL
MODEL 6
REMARK VINA RESULT:      -7.0      1.623      2.405
REMARK  Name = 
REMARK  2 active torsions:
REMARK  status: ('A' for Active; 'I' for Inactive)
REMARK    1  A    between atoms: C_4  and  N_5
REMARK    2  A    between atoms: C_12  and  C_13
REMARK                            x       y       z     vdW  Elec       q    Type
REMARK                         _______ _______ _______ _____ _____    ______ ____
ROOT
ATOM      1  N   UNL     1       3.597   4.007  19.205  0.00  0.00    +0.000 NA
ATOM      2  C   UNL     1       2.939   4.750  18.118  0.00  0.00    +0.000 C 
ATOM      3  C   UNL     1       3.280   6.240  18.079  0.00  0.00    +0.000 C 
ATOM      4  C   UNL     1       4.737   6.645  17.900  0.00  0.00    +0.000 C 
ATOM      5  N   UNL     1       5.599   5.557  17.472  0.00  0.00    +0.000 N 
ATOM      6  C   UNL     1       5.910   5.363  16.170  0.00  0.00    +0.000 A 
ATOM      7  N   UNL     1       6.607   4.399  15.603  0.00  0.00    +0.000 NA
ATOM      8  C   UNL     1       6.622   4.785  14.284  0.00  0.00    +0.000 A 
ATOM      9  N   UNL     1       5.955   5.915  14.019  0.00  0.00    +0.000 NA
ATOM     10  O   UNL     1       5.476   6.294  15.264  0.00  0.00    +0.000 OA
ATOM     11  C   UNL     1       6.005   4.601  18.494  0.00  0.00    +0.000 C 
ATOM     12  C   UNL     1       4.938   3.523  18.763  0.00  0.00    +0.000 C 
ENDROOT
BRANCH   1  16
ATOM     13  C   UNL     1       0.531   3.303  20.476  0.00  0.00    +0.000 C 
ATOM     14  C   UNL     1       1.282   2.709  21.654  0.00  0.00    +0.000 C 
ATOM     15  C   UNL     1       2.759   2.765  21.262  0.00  0.00    +0.000 C 
ATOM     16  C   UNL     1       2.798   2.862  19.716  0.00  0.00    +0.000 C 
ATOM     17  C   UNL     1       1.319   2.800  19.283  0.00  0.00    +0.000 C 
ENDBRANCH   1  16
BRANCH   8  18
ATOM     18  C   UNL     1       7.297   4.015  13.161  0.00  0.00    +0.000 C 
ATOM     19  C   UNL     1       6.472   3.325  12.096  0.00  0.00    +0.000 C 
ATOM     20  C   UNL     1       7.211   4.573  11.758  0.00  0.00    +0.000 C 
ENDBRANCH   8  18
TORSDOF 2
ENDMDL
MODEL 7
REMARK VINA RESULT:      -7.0      3.250      5.416
REMARK  Name = 
REMARK  2 active torsions:
REMARK  status: ('A' for Active; 'I' for Inactive)
REMARK    1  A    between atoms: C_4  and  N_5
REMARK    2  A    between atoms: C_12  and  C_13
REMARK                            x       y       z     vdW  Elec       q    Type
REMARK                         _______ _______ _______ _____ _____    ______ ____
ROOT
ATOM      1  N   UNL     1       3.915   5.333  18.053  0.00  0.00    +0.000 NA
ATOM      2  C   UNL     1       4.803   5.347  19.228  0.00  0.00    +0.000 C 
ATOM      3  C   UNL     1       6.087   4.535  19.054  0.00  0.00    +0.000 C 
ATOM      4  C   UNL     1       7.042   4.922  17.931  0.00  0.00    +0.000 C 
ATOM      5  N   UNL     1       6.765   6.223  17.349  0.00  0.00    +0.000 N 
ATOM      6  C   UNL     1       7.420   7.337  17.749  0.00  0.00    +0.000 A 
ATOM      7  N   UNL     1       7.249   8.593  17.387  0.00  0.00    +0.000 NA
ATOM      8  C   UNL     1       8.242   9.237  18.085  0.00  0.00    +0.000 A 
ATOM      9  N   UNL     1       8.990   8.445  18.865  0.00  0.00    +0.000 NA
ATOM     10  O   UNL     1       8.441   7.189  18.649  0.00  0.00    +0.000 OA
ATOM     11  C   UNL     1       5.654   6.299  16.410  0.00  0.00    +0.000 C 
ATOM     12  C   UNL     1       4.287   6.428  17.110  0.00  0.00    +0.000 C 
ENDROOT
BRANCH   1  16
ATOM     13  C   UNL     1       1.770   4.741  20.615  0.00  0.00    +0.000 C 
ATOM     14  C   UNL     1       1.001   3.887  19.624  0.00  0.00    +0.000 C 
ATOM     15  C   UNL     1       1.700   4.099  18.280  0.00  0.00    +0.000 C 
ATOM     16  C   UNL     1       2.471   5.438  18.395  0.00  0.00    +0.000 C 
ATOM     17  C   UNL     1       2.128   5.969  19.802  0.00  0.00    +0.000 C 
ENDBRANCH   1  16
BRANCH   8  18
ATOM     18  C   UNL     1       8.503  10.734  18.045  0.00  0.00    +0.000 C 
ATOM     19  C   UNL     1       9.195  11.427  19.198  0.00  0.00    +0.000 C 
ATOM     20  C   UNL     1       9.933  11.208  17.923  0.00  0.00    +0.000 C 
ENDBRANCH   8  18
TORSDOF 2
ENDMDL
MODEL 8
REMARK VINA RESULT:      -6.9      1.948      6.662
REMARK  Name = 
REMARK  2 active torsions:
REMARK  status: ('A' for Active; 'I' for Inactive)
REMARK    1  A    between atoms: C_4  and  N_5
REMARK    2  A    between atoms: C_12  and  C_13
REMARK                            x       y       z     vdW  Elec       q    Type
REMARK                         _______ _______ _______ _____ _____    ______ ____
ROOT
ATOM      1  N   UNL     1       6.970   5.317  15.299  0.00  0.00    +0.000 NA
ATOM      2  C   UNL     1       7.282   4.788  16.637  0.00  0.00    +0.000 C 
ATOM      3  C   UNL     1       7.498   5.862  17.703  0.00  0.00    +0.000 C 
ATOM      4  C   UNL     1       6.356   6.825  18.003  0.00  0.00    +0.000 C 
ATOM      5  N   UNL     1       5.079   6.406  17.455  0.00  0.00    +0.000 N 
ATOM      6  C   UNL     1       4.172   5.730  18.196  0.00  0.00    +0.000 A 
ATOM      7  N   UNL     1       3.010   5.216  17.847  0.00  0.00    +0.000 NA
ATOM      8  C   UNL     1       2.539   4.717  19.038  0.00  0.00    +0.000 A 
ATOM      9  N   UNL     1       3.361   4.880  20.083  0.00  0.00    +0.000 NA
ATOM     10  O   UNL     1       4.445   5.543  19.525  0.00  0.00    +0.000 OA
ATOM     11  C   UNL     1       4.871   6.628  16.030  0.00  0.00    +0.000 C 
ATOM     12  C   UNL     1       5.500   5.526  15.155  0.00  0.00    +0.000 C 
ENDROOT
BRANCH   1  16
ATOM     13  C   UNL     1       7.270   5.313  11.919  0.00  0.00    +0.000 C 
ATOM     14  C   UNL     1       6.495   4.008  11.966  0.00  0.00    +0.000 C 
ATOM     15  C   UNL     1       6.344   3.681  13.452  0.00  0.00    +0.000 C 
ATOM     16  C   UNL     1       7.463   4.461  14.188  0.00  0.00    +0.000 C 
ATOM     17  C   UNL     1       8.252   5.166  13.066  0.00  0.00    +0.000 C 
ENDBRANCH   1  16
BRANCH   8  18
ATOM     18  C   UNL     1       1.213   3.995  19.215  0.00  0.00    +0.000 C 
ATOM     19  C   UNL     1       1.095   2.516  18.918  0.00  0.00    +0.000 C 
ATOM     20  C   UNL     1       1.093   2.983  20.332  0.00  0.00    +0.000 C 
ENDBRANCH   8  18
TORSDOF 2
ENDMDL
MODEL 9
REMARK VINA RESULT:      -6.9      5.699      8.478
REMARK  Name = 
REMARK  2 active torsions:
REMARK  status: ('A' for Active; 'I' for Inactive)
REMARK    1  A    between atoms: C_4  and  N_5
REMARK    2  A    between atoms: C_12  and  C_13
REMARK                            x       y       z     vdW  Elec       q    Type
REMARK                         _______ _______ _______ _____ _____    ______ ____
ROOT
ATOM      1  N   UNL     1       2.339   7.435  19.741  0.00  0.00    +0.000 NA
ATOM      2  C   UNL     1       1.186   7.696  20.618  0.00  0.00    +0.000 C 
ATOM      3  C   UNL     1       1.171   9.095  21.235  0.00  0.00    +0.000 C 
ATOM      4  C   UNL     1       1.135  10.298  20.301  0.00  0.00    +0.000 C 
ATOM      5  N   UNL     1       0.804   9.963  18.928  0.00  0.00    +0.000 N 
ATOM      6  C   UNL     1      -0.458  10.063  18.453  0.00  0.00    +0.000 A 
ATOM      7  N   UNL     1      -0.946   9.738  17.273  0.00  0.00    +0.000 NA
ATOM      8  C   UNL     1      -2.260  10.127  17.380  0.00  0.00    +0.000 A 
ATOM      9  N   UNL     1      -2.599  10.649  18.566  0.00  0.00    +0.000 NA
ATOM     10  O   UNL     1      -1.410  10.600  19.280  0.00  0.00    +0.000 OA
ATOM     11  C   UNL     1       1.869   9.385  18.118  0.00  0.00    +0.000 C 
ATOM     12  C   UNL     1       2.038   7.871  18.346  0.00  0.00    +0.000 C 
ENDROOT
BRANCH   1  16
ATOM     13  C   UNL     1       1.555   4.449  18.332  0.00  0.00    +0.000 C 
ATOM     14  C   UNL     1       1.455   3.933  19.757  0.00  0.00    +0.000 C 
ATOM     15  C   UNL     1       1.921   5.091  20.640  0.00  0.00    +0.000 C 
ATOM     16  C   UNL     1       2.777   6.014  19.736  0.00  0.00    +0.000 C 
ATOM     17  C   UNL     1       2.808   5.302  18.368  0.00  0.00    +0.000 C 
ENDBRANCH   1  16
BRANCH   8  18
ATOM     18  C   UNL     1      -3.304   9.974  16.287  0.00  0.00    +0.000 C 
ATOM     19  C   UNL     1      -3.652  11.137  15.384  0.00  0.00    +0.000 C 
ATOM     20  C   UNL     1      -2.844  10.007  14.847  0.00  0.00    +0.000 C 
ENDBRANCH   8  18
TORSDOF 2
ENDMDL
