MODEL 1
REMARK VINA RESULT:      -7.2      0.000      0.000
REMARK  Name = 
REMARK  7 active torsions:
REMARK  status: ('A' for Active; 'I' for Inactive)
REMARK    1  A    between atoms: C_1  and  N_2
REMARK    2  A    between atoms: N_2  and  C_3
REMARK    3  A    between atoms: N_6  and  C_7
REMARK    4  A    between atoms: C_9  and  O_10
REMARK    5  A    between atoms: O_10  and  C_11
REMARK    6  A    between atoms: C_12  and  C_13
REMARK    7  A    between atoms: C_17  and  O_18
REMARK                            x       y       z     vdW  Elec       q    Type
REMARK                         _______ _______ _______ _____ _____    ______ ____
ROOT
ATOM      1  C   UNL     1       1.444   8.986  19.771  0.00  0.00    +0.000 A 
ATOM      2  C   UNL     1       1.502   7.774  20.478  0.00  0.00    +0.000 A 
ATOM      3  C   UNL     1       2.039   6.577  19.963  0.00  0.00    +0.000 A 
ATOM      4  C   UNL     1       2.600   6.613  18.686  0.00  0.00    +0.000 A 
ATOM      5  C   UNL     1       2.661   7.854  18.009  0.00  0.00    +0.000 A 
ATOM      6  C   UNL     1       2.078   9.014  18.531  0.00  0.00    +0.000 A 
ATOM      7 CL   UNL     1       2.145  10.465  17.597  0.00  0.00    +0.000 Cl
ENDROOT
BRANCH   1  11
ATOM      8  C   UNL     1      -2.250  10.370  18.184  0.00  0.00    +0.000 A 
ATOM      9  N   UNL     1      -1.057   9.970  18.655  0.00  0.00    +0.000 NA
ATOM     10  C   UNL     1      -0.516  10.564  19.731  0.00  0.00    +0.000 A 
ATOM     11  N   UNL     1       0.681  10.067  20.249  0.00  0.00    +0.000 N 
ATOM     12  N   UNL     1      -1.072  11.619  20.333  0.00  0.00    +0.000 NA
ATOM     13  C   UNL     1      -2.256  12.035  19.827  0.00  0.00    +0.000 A 
ATOM     14  C   UNL     1      -2.905  11.438  18.766  0.00  0.00    +0.000 A 
ATOM     15 CL   UNL     1      -4.437  12.007  18.240  0.00  0.00    +0.000 Cl
ATOM     16  H   UNL     1       1.135  10.735  20.852  0.00  0.00    +0.000 HD
BRANCH   8  18
ATOM     17  C   UNL     1      -2.602  10.376  15.790  0.00  0.00    +0.000 C 
ATOM     18  N   UNL     1      -2.790   9.698  17.068  0.00  0.00    +0.000 N 
ATOM     19  H   UNL     1      -2.444   8.742  17.054  0.00  0.00    +0.000 HD
ENDBRANCH   8  18
ENDBRANCH   1  11
BRANCH   4  20
ATOM     20  C   UNL     1       3.221   5.466  17.961  0.00  0.00    +0.000 C 
ATOM     21  O   UNL     1       2.541   4.612  17.406  0.00  0.00    +0.000 OA
ATOM     22  N   UNL     1       4.588   5.343  18.079  0.00  0.00    +0.000 N 
ATOM     23  C   UNL     1       5.415   4.279  17.510  0.00  0.00    +0.000 C 
ATOM     24  C   UNL     1       6.611   5.160  17.947  0.00  0.00    +0.000 C 
ATOM     25  C   UNL     1       5.626   6.350  17.837  0.00  0.00    +0.000 C 
BRANCH  24  26
ATOM     26  O   UNL     1       7.155   4.905  19.265  0.00  0.00    +0.000 OA
ATOM     27  H   UNL     1       8.122   4.927  19.138  0.00  0.00    +0.000 HD
ENDBRANCH  24  26
ENDBRANCH   4  20
BRANCH   3  28
ATOM     28  O   UNL     1       1.828   5.577  20.863  0.00  0.00    +0.000 OA
ATOM     29  C   UNL     1       1.095   4.410  20.546  0.00  0.00    +0.000 C 
ENDBRANCH   3  28
TORSDOF 5
ENDMDL
MODEL 2
REMARK VINA RESULT:      -7.0      2.567      3.674
REMARK  Name = 
REMARK  7 active torsions:
REMARK  status: ('A' for Active; 'I' for Inactive)
REMARK    1  A    between atoms: C_1  and  N_2
REMARK    2  A    between atoms: N_2  and  C_3
REMARK    3  A    between atoms: N_6  and  C_7
REMARK    4  A    between atoms: C_9  and  O_10
REMARK    5  A    between atoms: O_10  and  C_11
REMARK    6  A    between atoms: C_12  and  C_13
REMARK    7  A    between atoms: C_17  and  O_18
REMARK                            x       y       z     vdW  Elec       q    Type
REMARK                         _______ _______ _______ _____ _____    ______ ____
ROOT
ATOM      1  C   UNL     1       2.583   6.361  19.717  0.00  0.00    +0.000 A 
ATOM      2  C   UNL     1       3.693   6.815  18.986  0.00  0.00    +0.000 A 
ATOM      3  C   UNL     1       4.419   6.026  18.071  0.00  0.00    +0.000 A 
ATOM      4  C   UNL     1       3.973   4.725  17.836  0.00  0.00    +0.000 A 
ATOM      5  C   UNL     1       2.785   4.294  18.471  0.00  0.00    +0.000 A 
ATOM      6  C   UNL     1       2.113   5.087  19.407  0.00  0.00    +0.000 A 
ATOM      7 CL   UNL     1       0.709   4.443  20.180  0.00  0.00    +0.000 Cl
ENDROOT
BRANCH   1  11
ATOM      8  C   UNL     1       0.329   9.952  19.402  0.00  0.00    +0.000 A 
ATOM      9  N   UNL     1       1.086   8.848  19.508  0.00  0.00    +0.000 NA
ATOM     10  C   UNL     1       1.346   8.313  20.712  0.00  0.00    +0.000 A 
ATOM     11  N   UNL     1       2.060   7.116  20.782  0.00  0.00    +0.000 N 
ATOM     12  N   UNL     1       0.950   8.878  21.857  0.00  0.00    +0.000 NA
ATOM     13  C   UNL     1       0.218  10.009  21.738  0.00  0.00    +0.000 A 
ATOM     14  C   UNL     1      -0.141  10.584  20.537  0.00  0.00    +0.000 A 
ATOM     15 CL   UNL     1      -1.127  11.990  20.495  0.00  0.00    +0.000 Cl
ATOM     16  H   UNL     1       2.438   6.958  21.703  0.00  0.00    +0.000 HD
BRANCH   8  18
ATOM     17  C   UNL     1      -1.190  10.006  17.519  0.00  0.00    +0.000 C 
ATOM     18  N   UNL     1       0.062  10.462  18.114  0.00  0.00    +0.000 N 
ATOM     19  H   UNL     1       0.134  11.476  18.134  0.00  0.00    +0.000 HD
ENDBRANCH   8  18
ENDBRANCH   1  11
BRANCH   4  20
ATOM     20  C   UNL     1       4.592   3.732  16.910  0.00  0.00    +0.000 C 
ATOM     21  O   UNL     1       4.455   2.526  17.075  0.00  0.00    +0.000 OA
ATOM     22  N   UNL     1       5.445   4.243  15.956  0.00  0.00    +0.000 N 
ATOM     23  C   UNL     1       6.209   3.472  14.975  0.00  0.00    +0.000 C 
ATOM     24  C   UNL     1       6.529   4.850  14.343  0.00  0.00    +0.000 C 
ATOM     25  C   UNL     1       5.208   5.327  14.997  0.00  0.00    +0.000 C 
BRANCH  24  26
ATOM     26  O   UNL     1       7.737   5.506  14.798  0.00  0.00    +0.000 OA
ATOM     27  H   UNL     1       8.459   4.917  14.506  0.00  0.00    +0.000 HD
ENDBRANCH  24  26
ENDBRANCH   4  20
BRANCH   3  28
ATOM     28  O   UNL     1       5.496   6.738  17.635  0.00  0.00    +0.000 OA
ATOM     29  C   UNL     1       6.802   6.528  18.135  0.00  0.00    +0.000 C 
ENDBRANCH   3  28
TORSDOF 5
ENDMDL
MODEL 3
REMARK VINA RESULT:      -6.9      3.421      7.742
REMARK  Name = 
REMARK  7 active torsions:
REMARK  status: ('A' for Active; 'I' for Inactive)
REMARK    1  A    between atoms: C_1  and  N_2
REMARK    2  A    between atoms: N_2  and  C_3
REMARK    3  A    between atoms: N_6  and  C_7
REMARK    4  A    between atoms: C_9  and  O_10
REMARK    5  A    between atoms: O_10  and  C_11
REMARK    6  A    between atoms: C_12  and  C_13
REMARK    7  A    between atoms: C_17  and  O_18
REMARK                            x       y       z     vdW  Elec       q    Type
REMARK                         _______ _______ _______ _____ _____    ______ ____
ROOT
ATOM      1  C   UNL     1       2.171   7.684  19.904  0.00  0.00    +0.000 A 
ATOM      2  C   UNL     1       1.232   7.834  20.936  0.00  0.00    +0.000 A 
ATOM      3  C   UNL     1       0.251   8.845  20.979  0.00  0.00    +0.000 A 
ATOM      4  C   UNL     1       0.174   9.723  19.898  0.00  0.00    +0.000 A 
ATOM      5  C   UNL     1       1.031   9.510  18.792  0.00  0.00    +0.000 A 
ATOM      6  C   UNL     1       2.023   8.523  18.802  0.00  0.00    +0.000 A 
ATOM      7 CL   UNL     1       3.067   8.388  17.432  0.00  0.00    +0.000 Cl
ENDROOT
BRANCH   1  11
ATOM      8  C   UNL     1       2.343   3.625  18.652  0.00  0.00    +0.000 A 
ATOM      9  N   UNL     1       2.275   4.890  19.098  0.00  0.00    +0.000 NA
ATOM     10  C   UNL     1       3.342   5.469  19.671  0.00  0.00    +0.000 A 
ATOM     11  N   UNL     1       3.266   6.813  20.042  0.00  0.00    +0.000 N 
ATOM     12  N   UNL     1       4.482   4.814  19.908  0.00  0.00    +0.000 NA
ATOM     13  C   UNL     1       4.527   3.529  19.486  0.00  0.00    +0.000 A 
ATOM     14  C   UNL     1       3.496   2.885  18.835  0.00  0.00    +0.000 A 
ATOM     15 CL   UNL     1       3.677   1.268  18.285  0.00  0.00    +0.000 Cl
ATOM     16  H   UNL     1       3.988   7.061  20.701  0.00  0.00    +0.000 HD
BRANCH   8  18
ATOM     17  C   UNL     1       0.384   2.225  18.895  0.00  0.00    +0.000 C 
ATOM     18  N   UNL     1       1.204   3.069  18.032  0.00  0.00    +0.000 N 
ATOM     19  H   UNL     1       0.667   3.812  17.593  0.00  0.00    +0.000 HD
ENDBRANCH   8  18
ENDBRANCH   1  11
BRANCH   4  20
ATOM     20  C   UNL     1      -0.787  10.853  19.744  0.00  0.00    +0.000 C 
ATOM     21  O   UNL     1      -0.727  11.850  20.453  0.00  0.00    +0.000 OA
ATOM     22  N   UNL     1      -1.831  10.648  18.867  0.00  0.00    +0.000 N 
ATOM     23  C   UNL     1      -2.924  11.578  18.587  0.00  0.00    +0.000 C 
ATOM     24  C   UNL     1      -3.279  10.603  17.437  0.00  0.00    +0.000 C 
ATOM     25  C   UNL     1      -1.783  10.201  17.471  0.00  0.00    +0.000 C 
BRANCH  24  26
ATOM     26  O   UNL     1      -4.227   9.553  17.749  0.00  0.00    +0.000 OA
ATOM     27  H   UNL     1      -3.690   8.859  18.176  0.00  0.00    +0.000 HD
ENDBRANCH  24  26
ENDBRANCH   4  20
BRANCH   3  28
ATOM     28  O   UNL     1      -0.409   8.768  22.169  0.00  0.00    +0.000 OA
ATOM     29  C   UNL     1      -0.166   9.667  23.234  0.00  0.00    +0.000 C 
ENDBRANCH   3  28
TORSDOF 5
ENDMDL
MODEL 4
REMARK VINA RESULT:      -6.9      0.981      1.015
REMARK  Name = 
REMARK  7 active torsions:
REMARK  status: ('A' for Active; 'I' for Inactive)
REMARK    1  A    between atoms: C_1  and  N_2
REMARK    2  A    between atoms: N_2  and  C_3
REMARK    3  A    between atoms: N_6  and  C_7
REMARK    4  A    between atoms: C_9  and  O_10
REMARK    5  A    between atoms: O_10  and  C_11
REMARK    6  A    between atoms: C_12  and  C_13
REMARK    7  A    between atoms: C_17  and  O_18
REMARK                            x       y       z     vdW  Elec       q    Type
REMARK                         _______ _______ _______ _____ _____    ______ ____
ROOT
ATOM      1  C   UNL     1       1.678   8.355  20.060  0.00  0.00    +0.000 A 
ATOM      2  C   UNL     1       1.762   7.082  20.647  0.00  0.00    +0.000 A 
ATOM      3  C   UNL     1       2.111   5.906  19.952  0.00  0.00    +0.000 A 
ATOM      4  C   UNL     1       2.448   6.025  18.603  0.00  0.00    +0.000 A 
ATOM      5  C   UNL     1       2.489   7.316  18.027  0.00  0.00    +0.000 A 
ATOM      6  C   UNL     1       2.094   8.457  18.734  0.00  0.00    +0.000 A 
ATOM      7 CL   UNL     1       2.112   9.981  17.922  0.00  0.00    +0.000 Cl
ENDROOT
BRANCH   1  11
ATOM      8  C   UNL     1      -1.678  10.639  18.796  0.00  0.00    +0.000 A 
ATOM      9  N   UNL     1      -0.585   9.955  19.173  0.00  0.00    +0.000 NA
ATOM     10  C   UNL     1       0.014  10.220  20.345  0.00  0.00    +0.000 A 
ATOM     11  N   UNL     1       1.093   9.432  20.749  0.00  0.00    +0.000 N 
ATOM     12  N   UNL     1      -0.377  11.213  21.150  0.00  0.00    +0.000 NA
ATOM     13  C   UNL     1      -1.457  11.917  20.742  0.00  0.00    +0.000 A 
ATOM     14  C   UNL     1      -2.162  11.665  19.583  0.00  0.00    +0.000 A 
ATOM     15 CL   UNL     1      -3.559  12.581  19.187  0.00  0.00    +0.000 Cl
ATOM     16  H   UNL     1       1.632   9.879  21.474  0.00  0.00    +0.000 HD
BRANCH   8  18
ATOM     17  C   UNL     1      -3.481   9.475  17.678  0.00  0.00    +0.000 C 
ATOM     18  N   UNL     1      -2.287  10.306  17.567  0.00  0.00    +0.000 N 
ATOM     19  H   UNL     1      -2.455  11.156  17.036  0.00  0.00    +0.000 HD
ENDBRANCH   8  18
ENDBRANCH   1  11
BRANCH   4  20
ATOM     20  C   UNL     1       2.847   4.913  17.692  0.00  0.00    +0.000 C 
ATOM     21  O   UNL     1       2.024   4.129  17.234  0.00  0.00    +0.000 OA
ATOM     22  N   UNL     1       4.201   4.728  17.517  0.00  0.00    +0.000 N 
ATOM     23  C   UNL     1       4.838   3.680  16.720  0.00  0.00    +0.000 C 
ATOM     24  C   UNL     1       6.143   4.479  16.959  0.00  0.00    +0.000 C 
ATOM     25  C   UNL     1       5.221   5.710  17.133  0.00  0.00    +0.000 C 
BRANCH  24  26
ATOM     26  O   UNL     1       6.929   4.104  18.116  0.00  0.00    +0.000 OA
ATOM     27  H   UNL     1       6.561   4.638  18.845  0.00  0.00    +0.000 HD
ENDBRANCH  24  26
ENDBRANCH   4  20
BRANCH   3  28
ATOM     28  O   UNL     1       1.979   4.842  20.793  0.00  0.00    +0.000 OA
ATOM     29  C   UNL     1       1.013   3.830  20.594  0.00  0.00    +0.000 C 
ENDBRANCH   3  28
TORSDOF 5
ENDMDL
MODEL 5
REMARK VINA RESULT:      -6.8      3.354      5.336
REMARK  Name = 
REMARK  7 active torsions:
REMARK  status: ('A' for Active; 'I' for Inactive)
REMARK    1  A    between atoms: C_1  and  N_2
REMARK    2  A    between atoms: N_2  and  C_3
REMARK    3  A    between atoms: N_6  and  C_7
REMARK    4  A    between atoms: C_9  and  O_10
REMARK    5  A    between atoms: O_10  and  C_11
REMARK    6  A    between atoms: C_12  and  C_13
REMARK    7  A    between atoms: C_17  and  O_18
REMARK                            x       y       z     vdW  Elec       q    Type
REMARK                         _______ _______ _______ _____ _____    ______ ____
ROOT
ATOM      1  C   UNL     1       3.901   5.907  18.006  0.00  0.00    +0.000 A 
ATOM      2  C   UNL     1       4.919   6.810  17.659  0.00  0.00    +0.000 A 
ATOM      3  C   UNL     1       5.876   6.580  16.650  0.00  0.00    +0.000 A 
ATOM      4  C   UNL     1       5.773   5.401  15.912  0.00  0.00    +0.000 A 
ATOM      5  C   UNL     1       4.680   4.539  16.165  0.00  0.00    +0.000 A 
ATOM      6  C   UNL     1       3.773   4.776  17.204  0.00  0.00    +0.000 A 
ATOM      7 CL   UNL     1       2.513   3.627  17.478  0.00  0.00    +0.000 Cl
ENDROOT
BRANCH   1  11
ATOM      8  C   UNL     1       1.412   9.235  18.903  0.00  0.00    +0.000 A 
ATOM      9  N   UNL     1       2.239   8.208  18.648  0.00  0.00    +0.000 NA
ATOM     10  C   UNL     1       2.339   7.184  19.510  0.00  0.00    +0.000 A 
ATOM     11  N   UNL     1       3.138   6.090  19.174  0.00  0.00    +0.000 N 
ATOM     12  N   UNL     1       1.705   7.162  20.687  0.00  0.00    +0.000 NA
ATOM     13  C   UNL     1       0.903   8.219  20.948  0.00  0.00    +0.000 A 
ATOM     14  C   UNL     1       0.700   9.277  20.086  0.00  0.00    +0.000 A 
ATOM     15 CL   UNL     1      -0.389  10.542  20.489  0.00  0.00    +0.000 Cl
ATOM     16  H   UNL     1       3.368   5.531  19.981  0.00  0.00    +0.000 HD
BRANCH   8  18
ATOM     17  C   UNL     1       2.220  11.400  18.186  0.00  0.00    +0.000 C 
ATOM     18  N   UNL     1       1.321  10.275  17.954  0.00  0.00    +0.000 N 
ATOM     19  H   UNL     1       1.421   9.885  17.021  0.00  0.00    +0.000 HD
ENDBRANCH   8  18
ENDBRANCH   1  11
BRANCH   4  20
ATOM     20  C   UNL     1       6.676   4.970  14.805  0.00  0.00    +0.000 C 
ATOM     21  O   UNL     1       7.859   5.284  14.781  0.00  0.00    +0.000 OA
ATOM     22  N   UNL     1       6.072   4.330  13.744  0.00  0.00    +0.000 N 
ATOM     23  C   UNL     1       6.731   3.863  12.525  0.00  0.00    +0.000 C 
ATOM     24  C   UNL     1       5.383   3.162  12.226  0.00  0.00    +0.000 C 
ATOM     25  C   UNL     1       5.168   3.176  13.760  0.00  0.00    +0.000 C 
BRANCH  24  26
ATOM     26  O   UNL     1       4.422   3.912  11.443  0.00  0.00    +0.000 OA
ATOM     27  H   UNL     1       4.910   4.705  11.154  0.00  0.00    +0.000 HD
ENDBRANCH  24  26
ENDBRANCH   4  20
BRANCH   3  28
ATOM     28  O   UNL     1       6.779   7.601  16.661  0.00  0.00    +0.000 OA
ATOM     29  C   UNL     1       7.785   7.718  17.647  0.00  0.00    +0.000 C 
ENDBRANCH   3  28
TORSDOF 5
ENDMDL
MODEL 6
REMARK VINA RESULT:      -6.8      3.593      7.670
REMARK  Name = 
REMARK  7 active torsions:
REMARK  status: ('A' for Active; 'I' for Inactive)
REMARK    1  A    between atoms: C_1  and  N_2
REMARK    2  A    between atoms: N_2  and  C_3
REMARK    3  A    between atoms: N_6  and  C_7
REMARK    4  A    between atoms: C_9  and  O_10
REMARK    5  A    between atoms: O_10  and  C_11
REMARK    6  A    between atoms: C_12  and  C_13
REMARK    7  A    between atoms: C_17  and  O_18
REMARK                            x       y       z     vdW  Elec       q    Type
REMARK                         _______ _______ _______ _____ _____    ______ ____
ROOT
ATOM      1  C   UNL     1       2.246   7.645  19.803  0.00  0.00    +0.000 A 
ATOM      2  C   UNL     1       1.305   7.840  20.827  0.00  0.00    +0.000 A 
ATOM      3  C   UNL     1       0.318   8.846  20.821  0.00  0.00    +0.000 A 
ATOM      4  C   UNL     1       0.237   9.669  19.697  0.00  0.00    +0.000 A 
ATOM      5  C   UNL     1       1.095   9.407  18.604  0.00  0.00    +0.000 A 
ATOM      6  C   UNL     1       2.093   8.428  18.661  0.00  0.00    +0.000 A 
ATOM      7 CL   UNL     1       3.137   8.232  17.300  0.00  0.00    +0.000 Cl
ENDROOT
BRANCH   1  11
ATOM      8  C   UNL     1       2.481   3.560  18.649  0.00  0.00    +0.000 A 
ATOM      9  N   UNL     1       2.392   4.834  19.064  0.00  0.00    +0.000 NA
ATOM     10  C   UNL     1       3.441   5.436  19.646  0.00  0.00    +0.000 A 
ATOM     11  N   UNL     1       3.346   6.788  19.984  0.00  0.00    +0.000 N 
ATOM     12  N   UNL     1       4.583   4.798  19.920  0.00  0.00    +0.000 NA
ATOM     13  C   UNL     1       4.647   3.505  19.529  0.00  0.00    +0.000 A 
ATOM     14  C   UNL     1       3.636   2.836  18.872  0.00  0.00    +0.000 A 
ATOM     15 CL   UNL     1       3.843   1.209  18.364  0.00  0.00    +0.000 Cl
ATOM     16  H   UNL     1       4.051   7.057  20.651  0.00  0.00    +0.000 HD
BRANCH   8  18
ATOM     17  C   UNL     1       0.459   2.256  18.910  0.00  0.00    +0.000 C 
ATOM     18  N   UNL     1       1.360   2.979  18.019  0.00  0.00    +0.000 N 
ATOM     19  H   UNL     1       0.878   3.689  17.474  0.00  0.00    +0.000 HD
ENDBRANCH   8  18
ENDBRANCH   1  11
BRANCH   4  20
ATOM     20  C   UNL     1      -0.731  10.786  19.489  0.00  0.00    +0.000 C 
ATOM     21  O   UNL     1      -1.857  10.588  19.048  0.00  0.00    +0.000 OA
ATOM     22  N   UNL     1      -0.238  12.059  19.675  0.00  0.00    +0.000 N 
ATOM     23  C   UNL     1      -0.971  13.310  19.480  0.00  0.00    +0.000 C 
ATOM     24  C   UNL     1       0.258  13.976  20.147  0.00  0.00    +0.000 C 
ATOM     25  C   UNL     1       0.489  12.603  20.827  0.00  0.00    +0.000 C 
BRANCH  24  26
ATOM     26  O   UNL     1       1.309  14.430  19.260  0.00  0.00    +0.000 OA
ATOM     27  H   UNL     1       0.864  15.048  18.650  0.00  0.00    +0.000 HD
ENDBRANCH  24  26
ENDBRANCH   4  20
BRANCH   3  28
ATOM     28  O   UNL     1      -0.341   8.824  22.013  0.00  0.00    +0.000 OA
ATOM     29  C   UNL     1       0.124   9.520  23.153  0.00  0.00    +0.000 C 
ENDBRANCH   3  28
TORSDOF 5
ENDMDL
MODEL 7
REMARK VINA RESULT:      -6.7      1.831      2.117
REMARK  Name = 
REMARK  7 active torsions:
REMARK  status: ('A' for Active; 'I' for Inactive)
REMARK    1  A    between atoms: C_1  and  N_2
REMARK    2  A    between atoms: N_2  and  C_3
REMARK    3  A    between atoms: N_6  and  C_7
REMARK    4  A    between atoms: C_9  and  O_10
REMARK    5  A    between atoms: O_10  and  C_11
REMARK    6  A    between atoms: C_12  and  C_13
REMARK    7  A    between atoms: C_17  and  O_18
REMARK                            x       y       z     vdW  Elec       q    Type
REMARK                         _______ _______ _______ _____ _____    ______ ____
ROOT
ATOM      1  C   UNL     1       1.859   7.988  20.230  0.00  0.00    +0.000 A 
ATOM      2  C   UNL     1       1.664   6.749  20.861  0.00  0.00    +0.000 A 
ATOM      3  C   UNL     1       1.640   5.510  20.191  0.00  0.00    +0.000 A 
ATOM      4  C   UNL     1       1.879   5.509  18.816  0.00  0.00    +0.000 A 
ATOM      5  C   UNL     1       2.200   6.734  18.186  0.00  0.00    +0.000 A 
ATOM      6  C   UNL     1       2.172   7.952  18.873  0.00  0.00    +0.000 A 
ATOM      7 CL   UNL     1       2.511   9.402  17.998  0.00  0.00    +0.000 Cl
ENDROOT
BRANCH   1  11
ATOM      8  C   UNL     1      -1.304  10.739  19.520  0.00  0.00    +0.000 A 
ATOM      9  N   UNL     1      -0.273   9.899  19.712  0.00  0.00    +0.000 NA
ATOM     10  C   UNL     1       0.622  10.132  20.685  0.00  0.00    +0.000 A 
ATOM     11  N   UNL     1       1.631   9.194  20.916  0.00  0.00    +0.000 N 
ATOM     12  N   UNL     1       0.594  11.227  21.449  0.00  0.00    +0.000 NA
ATOM     13  C   UNL     1      -0.429  12.082  21.223  0.00  0.00    +0.000 A 
ATOM     14  C   UNL     1      -1.421  11.883  20.285  0.00  0.00    +0.000 A 
ATOM     15 CL   UNL     1      -2.712  13.002  20.120  0.00  0.00    +0.000 Cl
ATOM     16  H   UNL     1       2.390   9.585  21.451  0.00  0.00    +0.000 HD
BRANCH   8  18
ATOM     17  C   UNL     1      -1.647   9.973  17.250  0.00  0.00    +0.000 C 
ATOM     18  N   UNL     1      -2.234  10.438  18.502  0.00  0.00    +0.000 N 
ATOM     19  H   UNL     1      -2.931   9.794  18.866  0.00  0.00    +0.000 HD
ENDBRANCH   8  18
ENDBRANCH   1  11
BRANCH   4  20
ATOM     20  C   UNL     1       1.902   4.313  17.924  0.00  0.00    +0.000 C 
ATOM     21  O   UNL     1       1.003   4.093  17.121  0.00  0.00    +0.000 OA
ATOM     22  N   UNL     1       2.905   3.399  18.159  0.00  0.00    +0.000 N 
ATOM     23  C   UNL     1       3.105   2.131  17.459  0.00  0.00    +0.000 C 
ATOM     24  C   UNL     1       4.458   2.083  18.211  0.00  0.00    +0.000 C 
ATOM     25  C   UNL     1       4.350   3.627  18.265  0.00  0.00    +0.000 C 
BRANCH  24  26
ATOM     26  O   UNL     1       4.464   1.401  19.489  0.00  0.00    +0.000 OA
ATOM     27  H   UNL     1       4.478   2.119  20.149  0.00  0.00    +0.000 HD
ENDBRANCH  24  26
ENDBRANCH   4  20
BRANCH   3  28
ATOM     28  O   UNL     1       1.313   4.533  21.083  0.00  0.00    +0.000 OA
ATOM     29  C   UNL     1       2.261   3.617  21.592  0.00  0.00    +0.000 C 
ENDBRANCH   3  28
TORSDOF 5
ENDMDL
MODEL 8
REMARK VINA RESULT:      -6.7      4.066      8.519
REMARK  Name = 
REMARK  7 active torsions:
REMARK  status: ('A' for Active; 'I' for Inactive)
REMARK    1  A    between atoms: C_1  and  N_2
REMARK    2  A    between atoms: N_2  and  C_3
REMARK    3  A    between atoms: N_6  and  C_7
REMARK    4  A    between atoms: C_9  and  O_10
REMARK    5  A    between atoms: O_10  and  C_11
REMARK    6  A    between atoms: C_12  and  C_13
REMARK    7  A    between atoms: C_17  and  O_18
REMARK                            x       y       z     vdW  Elec       q    Type
REMARK                         _______ _______ _______ _____ _____    ______ ____
ROOT
ATOM      1  C   UNL     1       0.080  11.397  19.719  0.00  0.00    +0.000 A 
ATOM      2  C   UNL     1       0.025  10.767  20.972  0.00  0.00    +0.000 A 
ATOM      3  C   UNL     1      -0.447  11.379  22.150  0.00  0.00    +0.000 A 
ATOM      4  C   UNL     1      -0.943  12.680  22.053  0.00  0.00    +0.000 A 
ATOM      5  C   UNL     1      -1.010  13.284  20.776  0.00  0.00    +0.000 A 
ATOM      6  C   UNL     1      -0.492  12.664  19.634  0.00  0.00    +0.000 A 
ATOM      7 CL   UNL     1      -0.557  13.513  18.131  0.00  0.00    +0.000 Cl
ENDROOT
BRANCH   1  11
ATOM      8  C   UNL     1       2.050   7.628  19.733  0.00  0.00    +0.000 A 
ATOM      9  N   UNL     1       1.475   8.843  19.741  0.00  0.00    +0.000 NA
ATOM     10  C   UNL     1       1.465   9.599  18.631  0.00  0.00    +0.000 A 
ATOM     11  N   UNL     1       0.783  10.816  18.647  0.00  0.00    +0.000 N 
ATOM     12  N   UNL     1       2.085   9.239  17.503  0.00  0.00    +0.000 NA
ATOM     13  C   UNL     1       2.690   8.029  17.519  0.00  0.00    +0.000 A 
ATOM     14  C   UNL     1       2.690   7.170  18.598  0.00  0.00    +0.000 A 
ATOM     15 CL   UNL     1       3.437   5.627  18.493  0.00  0.00    +0.000 Cl
ATOM     16  H   UNL     1       1.070  11.417  17.890  0.00  0.00    +0.000 HD
BRANCH   8  18
ATOM     17  C   UNL     1       1.438   5.527  20.765  0.00  0.00    +0.000 C 
ATOM     18  N   UNL     1       2.011   6.860  20.915  0.00  0.00    +0.000 N 
ATOM     19  H   UNL     1       2.940   6.837  21.330  0.00  0.00    +0.000 HD
ENDBRANCH   8  18
ENDBRANCH   1  11
BRANCH   4  20
ATOM     20  C   UNL     1      -1.490  13.502  23.171  0.00  0.00    +0.000 C 
ATOM     21  O   UNL     1      -0.795  14.311  23.775  0.00  0.00    +0.000 OA
ATOM     22  N   UNL     1      -2.769  13.195  23.582  0.00  0.00    +0.000 N 
ATOM     23  C   UNL     1      -3.499  13.818  24.685  0.00  0.00    +0.000 C 
ATOM     24  C   UNL     1      -4.720  13.036  24.141  0.00  0.00    +0.000 C 
ATOM     25  C   UNL     1      -3.988  13.072  22.776  0.00  0.00    +0.000 C 
BRANCH  24  26
ATOM     26  O   UNL     1      -4.951  11.722  24.705  0.00  0.00    +0.000 OA
ATOM     27  H   UNL     1      -5.916  11.683  24.846  0.00  0.00    +0.000 HD
ENDBRANCH  24  26
ENDBRANCH   4  20
BRANCH   3  28
ATOM     28  O   UNL     1      -0.250  10.530  23.198  0.00  0.00    +0.000 OA
ATOM     29  C   UNL     1       0.376   9.271  23.049  0.00  0.00    +0.000 C 
ENDBRANCH   3  28
TORSDOF 5
ENDMDL
MODEL 9
REMARK VINA RESULT:      -6.7      1.826      3.149
REMARK  Name = 
REMARK  7 active torsions:
REMARK  status: ('A' for Active; 'I' for Inactive)
REMARK    1  A    between atoms: C_1  and  N_2
REMARK    2  A    between atoms: N_2  and  C_3
REMARK    3  A    between atoms: N_6  and  C_7
REMARK    4  A    between atoms: C_9  and  O_10
REMARK    5  A    between atoms: O_10  and  C_11
REMARK    6  A    between atoms: C_12  and  C_13
REMARK    7  A    between atoms: C_17  and  O_18
REMARK                            x       y       z     vdW  Elec       q    Type
REMARK                         _______ _______ _______ _____ _____    ______ ____
ROOT
ATOM      1  C   UNL     1       1.546   8.881  19.427  0.00  0.00    +0.000 A 
ATOM      2  C   UNL     1       2.243   8.419  18.300  0.00  0.00    +0.000 A 
ATOM      3  C   UNL     1       2.933   7.192  18.238  0.00  0.00    +0.000 A 
ATOM      4  C   UNL     1       2.875   6.356  19.354  0.00  0.00    +0.000 A 
ATOM      5  C   UNL     1       2.074   6.751  20.452  0.00  0.00    +0.000 A 
ATOM      6  C   UNL     1       1.438   7.995  20.497  0.00  0.00    +0.000 A 
ATOM      7 CL   UNL     1       0.540   8.413  21.913  0.00  0.00    +0.000 Cl
ENDROOT
BRANCH   1  11
ATOM      8  C   UNL     1      -2.239  10.330  18.142  0.00  0.00    +0.000 A 
ATOM      9  N   UNL     1      -1.023   9.887  18.500  0.00  0.00    +0.000 NA
ATOM     10  C   UNL     1      -0.132  10.720  19.061  0.00  0.00    +0.000 A 
ATOM     11  N   UNL     1       1.090  10.209  19.503  0.00  0.00    +0.000 N 
ATOM     12  N   UNL     1      -0.361  12.027  19.217  0.00  0.00    +0.000 NA
ATOM     13  C   UNL     1      -1.577  12.468  18.820  0.00  0.00    +0.000 A 
ATOM     14  C   UNL     1      -2.565  11.663  18.293  0.00  0.00    +0.000 A 
ATOM     15 CL   UNL     1      -4.099  12.313  17.877  0.00  0.00    +0.000 Cl
ATOM     16  H   UNL     1       1.774  10.937  19.637  0.00  0.00    +0.000 HD
BRANCH   8  18
ATOM     17  C   UNL     1      -3.263   9.465  16.127  0.00  0.00    +0.000 C 
ATOM     18  N   UNL     1      -3.150   9.410  17.580  0.00  0.00    +0.000 N 
ATOM     19  H   UNL     1      -2.932   8.476  17.916  0.00  0.00    +0.000 HD
ENDBRANCH   8  18
ENDBRANCH   1  11
BRANCH   4  20
ATOM     20  C   UNL     1       3.528   5.022  19.494  0.00  0.00    +0.000 C 
ATOM     21  O   UNL     1       4.745   4.905  19.561  0.00  0.00    +0.000 OA
ATOM     22  N   UNL     1       2.698   3.926  19.392  0.00  0.00    +0.000 N 
ATOM     23  C   UNL     1       3.105   2.523  19.441  0.00  0.00    +0.000 C 
ATOM     24  C   UNL     1       1.587   2.225  19.512  0.00  0.00    +0.000 C 
ATOM     25  C   UNL     1       1.454   3.645  20.116  0.00  0.00    +0.000 C 
BRANCH  24  26
ATOM     26  O   UNL     1       0.910   2.005  18.250  0.00  0.00    +0.000 OA
ATOM     27  H   UNL     1       1.439   1.314  17.808  0.00  0.00    +0.000 HD
ENDBRANCH  24  26
ENDBRANCH   4  20
BRANCH   3  28
ATOM     28  O   UNL     1       3.591   7.116  17.047  0.00  0.00    +0.000 OA
ATOM     29  C   UNL     1       5.000   7.030  16.959  0.00  0.00    +0.000 C 
ENDBRANCH   3  28
TORSDOF 5
ENDMDL
