MODEL 1
REMARK VINA RESULT:      -6.6      0.000      0.000
REMARK  Name = 
REMARK  16 active torsions:
REMARK  status: ('A' for Active; 'I' for Inactive)
REMARK    1  A    between atoms: C_1  and  C_2
REMARK    2  A    between atoms: C_2  and  C_3
REMARK    3  A    between atoms: C_3  and  C_4
REMARK    4  A    between atoms: C_4  and  C_5
REMARK    5  A    between atoms: C_5  and  C_6
REMARK    6  A    between atoms: C_6  and  C_7
REMARK    7  A    between atoms: C_7  and  N_8
REMARK    8  A    between atoms: C_9  and  C_11
REMARK    9  A    between atoms: C_11  and  N_12
REMARK   10  A    between atoms: C_13  and  C_15
REMARK   11  A    between atoms: C_15  and  O_16
REMARK   12  A    between atoms: C_15  and  C_17
REMARK   13  A    between atoms: C_17  and  C_18
REMARK   14  A    between atoms: C_17  and  C_19
REMARK   15  A    between atoms: C_17  and  C_20
REMARK   16  A    between atoms: C_20  and  O_21
REMARK                            x       y       z     vdW  Elec       q    Type
REMARK                         _______ _______ _______ _____ _____    ______ ____
ROOT
ATOM      1  N   UNL     1       5.365   4.206  19.219  0.00  0.00    +0.000 N 
ATOM      2  C   UNL     1       4.102   4.700  19.468  0.00  0.00    +0.000 C 
ATOM      3  O   UNL     1       3.826   5.896  19.364  0.00  0.00    +0.000 OA
ATOM      4  H   UNL     1       5.598   3.254  19.477  0.00  0.00    +0.000 HD
ENDROOT
BRANCH   1   5
ATOM      5  C   UNL     1       6.469   5.081  18.861  0.00  0.00    +0.000 C 
BRANCH   5   7
ATOM      6  N   UNL     1       5.697   5.542  16.588  0.00  0.00    +0.000 N 
ATOM      7  C   UNL     1       6.723   5.022  17.353  0.00  0.00    +0.000 C 
ATOM      8  O   UNL     1       7.788   4.633  16.885  0.00  0.00    +0.000 OA
ATOM      9  H   UNL     1       4.873   5.895  17.062  0.00  0.00    +0.000 HD
BRANCH   6  10
ATOM     10  C   UNL     1       5.760   5.600  15.142  0.00  0.00    +0.000 C 
BRANCH  10  11
ATOM     11  C   UNL     1       5.384   4.272  14.489  0.00  0.00    +0.000 C 
BRANCH  11  12
ATOM     12  C   UNL     1       6.481   3.763  13.552  0.00  0.00    +0.000 C 
BRANCH  12  13
ATOM     13  C   UNL     1       5.916   3.379  12.186  0.00  0.00    +0.000 C 
BRANCH  13  14
ATOM     14  C   UNL     1       4.398   3.543  12.157  0.00  0.00    +0.000 C 
BRANCH  14  16
ATOM     15  C   UNL     1       3.198   4.058  10.007  0.00  0.00    +0.000 C 
ATOM     16  C   UNL     1       3.804   2.958  10.877  0.00  0.00    +0.000 C 
ENDBRANCH  14  16
ENDBRANCH  13  14
ENDBRANCH  12  13
ENDBRANCH  11  12
ENDBRANCH  10  11
ENDBRANCH   6  10
ENDBRANCH   5   7
ENDBRANCH   1   5
BRANCH   2  17
ATOM     17  C   UNL     1       3.030   3.644  19.849  0.00  0.00    +0.000 C 
BRANCH  17  18
ATOM     18  C   UNL     1       2.329   2.943  18.649  0.00  0.00    +0.000 C 
ATOM     19  C   UNL     1       0.850   2.673  18.983  0.00  0.00    +0.000 C 
ATOM     20  C   UNL     1       2.372   3.799  17.367  0.00  0.00    +0.000 C 
BRANCH  18  21
ATOM     21  C   UNL     1       3.069   1.618  18.320  0.00  0.00    +0.000 C 
BRANCH  21  22
ATOM     22  O   UNL     1       4.323   1.854  17.695  0.00  0.00    +0.000 OA
ATOM     23  H   UNL     1       4.402   2.818  17.571  0.00  0.00    +0.000 HD
ENDBRANCH  21  22
ENDBRANCH  18  21
ENDBRANCH  17  18
BRANCH  17  24
ATOM     24  O   UNL     1       3.604   2.651  20.705  0.00  0.00    +0.000 OA
ATOM     25  H   UNL     1       2.870   2.287  21.238  0.00  0.00    +0.000 HD
ENDBRANCH  17  24
ENDBRANCH   2  17
TORSDOF 13
ENDMDL
MODEL 2
REMARK VINA RESULT:      -6.1      1.406      1.882
REMARK  Name = 
REMARK  16 active torsions:
REMARK  status: ('A' for Active; 'I' for Inactive)
REMARK    1  A    between atoms: C_1  and  C_2
REMARK    2  A    between atoms: C_2  and  C_3
REMARK    3  A    between atoms: C_3  and  C_4
REMARK    4  A    between atoms: C_4  and  C_5
REMARK    5  A    between atoms: C_5  and  C_6
REMARK    6  A    between atoms: C_6  and  C_7
REMARK    7  A    between atoms: C_7  and  N_8
REMARK    8  A    between atoms: C_9  and  C_11
REMARK    9  A    between atoms: C_11  and  N_12
REMARK   10  A    between atoms: C_13  and  C_15
REMARK   11  A    between atoms: C_15  and  O_16
REMARK   12  A    between atoms: C_15  and  C_17
REMARK   13  A    between atoms: C_17  and  C_18
REMARK   14  A    between atoms: C_17  and  C_19
REMARK   15  A    between atoms: C_17  and  C_20
REMARK   16  A    between atoms: C_20  and  O_21
REMARK                            x       y       z     vdW  Elec       q    Type
REMARK                         _______ _______ _______ _____ _____    ______ ____
ROOT
ATOM      1  N   UNL     1       6.313   3.897  18.206  0.00  0.00    +0.000 N 
ATOM      2  C   UNL     1       5.398   4.341  19.136  0.00  0.00    +0.000 C 
ATOM      3  O   UNL     1       5.408   5.490  19.580  0.00  0.00    +0.000 OA
ATOM      4  H   UNL     1       6.381   2.908  17.993  0.00  0.00    +0.000 HD
ENDROOT
BRANCH   1   5
ATOM      5  C   UNL     1       7.384   4.751  17.721  0.00  0.00    +0.000 C 
BRANCH   5   7
ATOM      6  N   UNL     1       7.294   4.694  15.280  0.00  0.00    +0.000 N 
ATOM      7  C   UNL     1       6.974   5.421  16.409  0.00  0.00    +0.000 C 
ATOM      8  O   UNL     1       6.332   6.467  16.382  0.00  0.00    +0.000 OA
ATOM      9  H   UNL     1       7.777   3.809  15.397  0.00  0.00    +0.000 HD
BRANCH   6  10
ATOM     10  C   UNL     1       6.967   5.148  13.944  0.00  0.00    +0.000 C 
BRANCH  10  11
ATOM     11  C   UNL     1       6.936   4.007  12.931  0.00  0.00    +0.000 C 
BRANCH  11  12
ATOM     12  C   UNL     1       5.507   3.632  12.531  0.00  0.00    +0.000 C 
BRANCH  12  13
ATOM     13  C   UNL     1       5.465   2.298  11.789  0.00  0.00    +0.000 C 
BRANCH  13  14
ATOM     14  C   UNL     1       4.392   2.311  10.703  0.00  0.00    +0.000 C 
BRANCH  14  16
ATOM     15  C   UNL     1       3.045   4.174   9.682  0.00  0.00    +0.000 C 
ATOM     16  C   UNL     1       3.355   3.402  10.963  0.00  0.00    +0.000 C 
ENDBRANCH  14  16
ENDBRANCH  13  14
ENDBRANCH  12  13
ENDBRANCH  11  12
ENDBRANCH  10  11
ENDBRANCH   6  10
ENDBRANCH   5   7
ENDBRANCH   1   5
BRANCH   2  17
ATOM     17  C   UNL     1       4.319   3.310  19.564  0.00  0.00    +0.000 C 
BRANCH  17  18
ATOM     18  C   UNL     1       3.113   3.165  18.591  0.00  0.00    +0.000 C 
ATOM     19  C   UNL     1       2.977   4.428  17.721  0.00  0.00    +0.000 C 
ATOM     20  C   UNL     1       3.271   1.958  17.643  0.00  0.00    +0.000 C 
BRANCH  18  21
ATOM     21  C   UNL     1       1.816   2.917  19.408  0.00  0.00    +0.000 C 
BRANCH  21  22
ATOM     22  O   UNL     1       2.100   2.465  20.726  0.00  0.00    +0.000 OA
ATOM     23  H   UNL     1       1.279   2.074  21.076  0.00  0.00    +0.000 HD
ENDBRANCH  21  22
ENDBRANCH  18  21
ENDBRANCH  17  18
BRANCH  17  24
ATOM     24  O   UNL     1       4.921   2.026  19.764  0.00  0.00    +0.000 OA
ATOM     25  H   UNL     1       5.542   2.125  20.512  0.00  0.00    +0.000 HD
ENDBRANCH  17  24
ENDBRANCH   2  17
TORSDOF 13
ENDMDL
MODEL 3
REMARK VINA RESULT:      -6.1      3.976      6.406
REMARK  Name = 
REMARK  16 active torsions:
REMARK  status: ('A' for Active; 'I' for Inactive)
REMARK    1  A    between atoms: C_1  and  C_2
REMARK    2  A    between atoms: C_2  and  C_3
REMARK    3  A    between atoms: C_3  and  C_4
REMARK    4  A    between atoms: C_4  and  C_5
REMARK    5  A    between atoms: C_5  and  C_6
REMARK    6  A    between atoms: C_6  and  C_7
REMARK    7  A    between atoms: C_7  and  N_8
REMARK    8  A    between atoms: C_9  and  C_11
REMARK    9  A    between atoms: C_11  and  N_12
REMARK   10  A    between atoms: C_13  and  C_15
REMARK   11  A    between atoms: C_15  and  O_16
REMARK   12  A    between atoms: C_15  and  C_17
REMARK   13  A    between atoms: C_17  and  C_18
REMARK   14  A    between atoms: C_17  and  C_19
REMARK   15  A    between atoms: C_17  and  C_20
REMARK   16  A    between atoms: C_20  and  O_21
REMARK                            x       y       z     vdW  Elec       q    Type
REMARK                         _______ _______ _______ _____ _____    ______ ____
ROOT
ATOM      1  N   UNL     1       4.556   5.273  17.639  0.00  0.00    +0.000 N 
ATOM      2  C   UNL     1       4.209   4.001  18.039  0.00  0.00    +0.000 C 
ATOM      3  O   UNL     1       4.453   3.003  17.358  0.00  0.00    +0.000 OA
ATOM      4  H   UNL     1       4.192   6.078  18.136  0.00  0.00    +0.000 HD
ENDROOT
BRANCH   1   5
ATOM      5  C   UNL     1       5.196   5.523  16.358  0.00  0.00    +0.000 C 
BRANCH   5   7
ATOM      6  N   UNL     1       6.708   6.867  17.729  0.00  0.00    +0.000 N 
ATOM      7  C   UNL     1       6.585   6.128  16.569  0.00  0.00    +0.000 C 
ATOM      8  O   UNL     1       7.523   5.890  15.815  0.00  0.00    +0.000 OA
ATOM      9  H   UNL     1       5.894   6.967  18.326  0.00  0.00    +0.000 HD
BRANCH   6  10
ATOM     10  C   UNL     1       7.952   7.499  18.119  0.00  0.00    +0.000 C 
BRANCH  10  11
ATOM     11  C   UNL     1       8.018   8.964  17.698  0.00  0.00    +0.000 C 
BRANCH  11  12
ATOM     12  C   UNL     1       8.917   9.787  18.623  0.00  0.00    +0.000 C 
BRANCH  12  13
ATOM     13  C   UNL     1       9.079  11.219  18.117  0.00  0.00    +0.000 C 
BRANCH  13  14
ATOM     14  C   UNL     1      10.553  11.564  17.918  0.00  0.00    +0.000 C 
BRANCH  14  16
ATOM     15  C   UNL     1      11.050  12.485  20.205  0.00  0.00    +0.000 C 
ATOM     16  C   UNL     1      11.347  11.366  19.209  0.00  0.00    +0.000 C 
ENDBRANCH  14  16
ENDBRANCH  13  14
ENDBRANCH  12  13
ENDBRANCH  11  12
ENDBRANCH  10  11
ENDBRANCH   6  10
ENDBRANCH   5   7
ENDBRANCH   1   5
BRANCH   2  17
ATOM     17  C   UNL     1       3.525   3.895  19.427  0.00  0.00    +0.000 C 
BRANCH  17  18
ATOM     18  C   UNL     1       1.969   3.863  19.403  0.00  0.00    +0.000 C 
ATOM     19  C   UNL     1       1.401   4.939  20.346  0.00  0.00    +0.000 C 
ATOM     20  C   UNL     1       1.402   4.128  17.994  0.00  0.00    +0.000 C 
BRANCH  18  21
ATOM     21  C   UNL     1       1.474   2.451  19.819  0.00  0.00    +0.000 C 
BRANCH  21  22
ATOM     22  O   UNL     1       1.671   1.496  18.784  0.00  0.00    +0.000 OA
ATOM     23  H   UNL     1       1.586   1.972  17.938  0.00  0.00    +0.000 HD
ENDBRANCH  21  22
ENDBRANCH  18  21
ENDBRANCH  17  18
BRANCH  17  24
ATOM     24  O   UNL     1       4.009   2.742  20.125  0.00  0.00    +0.000 OA
ATOM     25  H   UNL     1       4.981   2.830  20.165  0.00  0.00    +0.000 HD
ENDBRANCH  17  24
ENDBRANCH   2  17
TORSDOF 13
ENDMDL
MODEL 4
REMARK VINA RESULT:      -6.0      1.118      1.437
REMARK  Name = 
REMARK  16 active torsions:
REMARK  status: ('A' for Active; 'I' for Inactive)
REMARK    1  A    between atoms: C_1  and  C_2
REMARK    2  A    between atoms: C_2  and  C_3
REMARK    3  A    between atoms: C_3  and  C_4
REMARK    4  A    between atoms: C_4  and  C_5
REMARK    5  A    between atoms: C_5  and  C_6
REMARK    6  A    between atoms: C_6  and  C_7
REMARK    7  A    between atoms: C_7  and  N_8
REMARK    8  A    between atoms: C_9  and  C_11
REMARK    9  A    between atoms: C_11  and  N_12
REMARK   10  A    between atoms: C_13  and  C_15
REMARK   11  A    between atoms: C_15  and  O_16
REMARK   12  A    between atoms: C_15  and  C_17
REMARK   13  A    between atoms: C_17  and  C_18
REMARK   14  A    between atoms: C_17  and  C_19
REMARK   15  A    between atoms: C_17  and  C_20
REMARK   16  A    between atoms: C_20  and  O_21
REMARK                            x       y       z     vdW  Elec       q    Type
REMARK                         _______ _______ _______ _____ _____    ______ ____
ROOT
ATOM      1  N   UNL     1       6.084   3.986  18.842  0.00  0.00    +0.000 N 
ATOM      2  C   UNL     1       4.861   4.325  19.381  0.00  0.00    +0.000 C 
ATOM      3  O   UNL     1       4.542   5.491  19.617  0.00  0.00    +0.000 OA
ATOM      4  H   UNL     1       6.378   3.016  18.820  0.00  0.00    +0.000 HD
ENDROOT
BRANCH   1   5
ATOM      5  C   UNL     1       7.098   4.989  18.559  0.00  0.00    +0.000 C 
BRANCH   5   7
ATOM      6  N   UNL     1       5.924   4.958  16.416  0.00  0.00    +0.000 N 
ATOM      7  C   UNL     1       6.835   5.639  17.200  0.00  0.00    +0.000 C 
ATOM      8  O   UNL     1       7.324   6.720  16.887  0.00  0.00    +0.000 OA
ATOM      9  H   UNL     1       5.525   4.098  16.777  0.00  0.00    +0.000 HD
BRANCH   6  10
ATOM     10  C   UNL     1       5.524   5.428  15.105  0.00  0.00    +0.000 C 
BRANCH  10  11
ATOM     11  C   UNL     1       6.439   4.912  13.997  0.00  0.00    +0.000 C 
BRANCH  11  12
ATOM     12  C   UNL     1       6.100   3.475  13.596  0.00  0.00    +0.000 C 
BRANCH  12  13
ATOM     13  C   UNL     1       6.249   3.264  12.091  0.00  0.00    +0.000 C 
BRANCH  13  14
ATOM     14  C   UNL     1       4.954   2.729  11.484  0.00  0.00    +0.000 C 
BRANCH  14  16
ATOM     15  C   UNL     1       3.074   3.429   9.965  0.00  0.00    +0.000 C 
ATOM     16  C   UNL     1       4.021   3.870  11.079  0.00  0.00    +0.000 C 
ENDBRANCH  14  16
ENDBRANCH  13  14
ENDBRANCH  12  13
ENDBRANCH  11  12
ENDBRANCH  10  11
ENDBRANCH   6  10
ENDBRANCH   5   7
ENDBRANCH   1   5
BRANCH   2  17
ATOM     17  C   UNL     1       3.888   3.144  19.635  0.00  0.00    +0.000 C 
BRANCH  17  18
ATOM     18  C   UNL     1       2.388   3.442  19.345  0.00  0.00    +0.000 C 
ATOM     19  C   UNL     1       1.571   2.136  19.378  0.00  0.00    +0.000 C 
ATOM     20  C   UNL     1       1.774   4.404  20.381  0.00  0.00    +0.000 C 
BRANCH  18  21
ATOM     21  C   UNL     1       2.256   4.138  17.963  0.00  0.00    +0.000 C 
BRANCH  21  22
ATOM     22  O   UNL     1       2.346   3.208  16.892  0.00  0.00    +0.000 OA
ATOM     23  H   UNL     1       1.437   2.929  16.681  0.00  0.00    +0.000 HD
ENDBRANCH  21  22
ENDBRANCH  18  21
ENDBRANCH  17  18
BRANCH  17  24
ATOM     24  O   UNL     1       4.296   2.000  18.877  0.00  0.00    +0.000 OA
ATOM     25  H   UNL     1       4.606   1.336  19.523  0.00  0.00    +0.000 HD
ENDBRANCH  17  24
ENDBRANCH   2  17
TORSDOF 13
ENDMDL
MODEL 5
REMARK VINA RESULT:      -6.0      2.410      6.324
REMARK  Name = 
REMARK  16 active torsions:
REMARK  status: ('A' for Active; 'I' for Inactive)
REMARK    1  A    between atoms: C_1  and  C_2
REMARK    2  A    between atoms: C_2  and  C_3
REMARK    3  A    between atoms: C_3  and  C_4
REMARK    4  A    between atoms: C_4  and  C_5
REMARK    5  A    between atoms: C_5  and  C_6
REMARK    6  A    between atoms: C_6  and  C_7
REMARK    7  A    between atoms: C_7  and  N_8
REMARK    8  A    between atoms: C_9  and  C_11
REMARK    9  A    between atoms: C_11  and  N_12
REMARK   10  A    between atoms: C_13  and  C_15
REMARK   11  A    between atoms: C_15  and  O_16
REMARK   12  A    between atoms: C_15  and  C_17
REMARK   13  A    between atoms: C_17  and  C_18
REMARK   14  A    between atoms: C_17  and  C_19
REMARK   15  A    between atoms: C_17  and  C_20
REMARK   16  A    between atoms: C_20  and  O_21
REMARK                            x       y       z     vdW  Elec       q    Type
REMARK                         _______ _______ _______ _____ _____    ______ ____
ROOT
ATOM      1  N   UNL     1       5.854   5.090  18.176  0.00  0.00    +0.000 N 
ATOM      2  C   UNL     1       7.140   4.870  17.730  0.00  0.00    +0.000 C 
ATOM      3  O   UNL     1       7.979   4.268  18.402  0.00  0.00    +0.000 OA
ATOM      4  H   UNL     1       5.247   5.730  17.677  0.00  0.00    +0.000 HD
ENDROOT
BRANCH   1   5
ATOM      5  C   UNL     1       5.419   4.661  19.494  0.00  0.00    +0.000 C 
BRANCH   5   7
ATOM      6  N   UNL     1       3.843   3.199  18.332  0.00  0.00    +0.000 N 
ATOM      7  C   UNL     1       4.708   3.310  19.403  0.00  0.00    +0.000 C 
ATOM      8  O   UNL     1       4.965   2.383  20.165  0.00  0.00    +0.000 OA
ATOM      9  H   UNL     1       3.732   3.998  17.717  0.00  0.00    +0.000 HD
BRANCH   6  10
ATOM     10  C   UNL     1       3.095   1.988  18.060  0.00  0.00    +0.000 C 
BRANCH  10  11
ATOM     11  C   UNL     1       1.744   1.966  18.770  0.00  0.00    +0.000 C 
BRANCH  11  12
ATOM     12  C   UNL     1       1.138   3.366  18.893  0.00  0.00    +0.000 C 
BRANCH  12  13
ATOM     13  C   UNL     1       0.943   3.765  20.355  0.00  0.00    +0.000 C 
BRANCH  13  14
ATOM     14  C   UNL     1       1.628   5.097  20.653  0.00  0.00    +0.000 C 
BRANCH  14  16
ATOM     15  C   UNL     1       2.306   7.303  19.652  0.00  0.00    +0.000 C 
ATOM     16  C   UNL     1       1.979   5.838  19.364  0.00  0.00    +0.000 C 
ENDBRANCH  14  16
ENDBRANCH  13  14
ENDBRANCH  12  13
ENDBRANCH  11  12
ENDBRANCH  10  11
ENDBRANCH   6  10
ENDBRANCH   5   7
ENDBRANCH   1   5
BRANCH   2  17
ATOM     17  C   UNL     1       7.458   5.395  16.305  0.00  0.00    +0.000 C 
BRANCH  17  18
ATOM     18  C   UNL     1       6.446   4.975  15.199  0.00  0.00    +0.000 C 
ATOM     19  C   UNL     1       5.868   3.582  15.509  0.00  0.00    +0.000 C 
ATOM     20  C   UNL     1       5.264   5.958  15.087  0.00  0.00    +0.000 C 
BRANCH  18  21
ATOM     21  C   UNL     1       7.157   4.981  13.818  0.00  0.00    +0.000 C 
BRANCH  21  22
ATOM     22  O   UNL     1       8.356   5.745  13.845  0.00  0.00    +0.000 OA
ATOM     23  H   UNL     1       8.575   5.897  14.782  0.00  0.00    +0.000 HD
ENDBRANCH  21  22
ENDBRANCH  18  21
ENDBRANCH  17  18
BRANCH  17  24
ATOM     24  O   UNL     1       7.571   6.822  16.322  0.00  0.00    +0.000 OA
ATOM     25  H   UNL     1       7.992   7.077  15.478  0.00  0.00    +0.000 HD
ENDBRANCH  17  24
ENDBRANCH   2  17
TORSDOF 13
ENDMDL
MODEL 6
REMARK VINA RESULT:      -5.9      1.735      1.968
REMARK  Name = 
REMARK  16 active torsions:
REMARK  status: ('A' for Active; 'I' for Inactive)
REMARK    1  A    between atoms: C_1  and  C_2
REMARK    2  A    between atoms: C_2  and  C_3
REMARK    3  A    between atoms: C_3  and  C_4
REMARK    4  A    between atoms: C_4  and  C_5
REMARK    5  A    between atoms: C_5  and  C_6
REMARK    6  A    between atoms: C_6  and  C_7
REMARK    7  A    between atoms: C_7  and  N_8
REMARK    8  A    between atoms: C_9  and  C_11
REMARK    9  A    between atoms: C_11  and  N_12
REMARK   10  A    between atoms: C_13  and  C_15
REMARK   11  A    between atoms: C_15  and  O_16
REMARK   12  A    between atoms: C_15  and  C_17
REMARK   13  A    between atoms: C_17  and  C_18
REMARK   14  A    between atoms: C_17  and  C_19
REMARK   15  A    between atoms: C_17  and  C_20
REMARK   16  A    between atoms: C_20  and  O_21
REMARK                            x       y       z     vdW  Elec       q    Type
REMARK                         _______ _______ _______ _____ _____    ______ ____
ROOT
ATOM      1  N   UNL     1       3.548   5.914  18.288  0.00  0.00    +0.000 N 
ATOM      2  C   UNL     1       3.695   5.075  19.371  0.00  0.00    +0.000 C 
ATOM      3  O   UNL     1       4.787   4.617  19.711  0.00  0.00    +0.000 OA
ATOM      4  H   UNL     1       2.622   6.133  17.937  0.00  0.00    +0.000 HD
ENDROOT
BRANCH   1   5
ATOM      5  C   UNL     1       4.675   6.278  17.445  0.00  0.00    +0.000 C 
BRANCH   5   7
ATOM      6  N   UNL     1       6.192   5.269  15.817  0.00  0.00    +0.000 N 
ATOM      7  C   UNL     1       4.961   5.166  16.435  0.00  0.00    +0.000 C 
ATOM      8  O   UNL     1       4.198   4.220  16.270  0.00  0.00    +0.000 OA
ATOM      9  H   UNL     1       6.787   6.056  16.055  0.00  0.00    +0.000 HD
BRANCH   6  10
ATOM     10  C   UNL     1       6.659   4.299  14.847  0.00  0.00    +0.000 C 
BRANCH  10  11
ATOM     11  C   UNL     1       5.765   4.234  13.612  0.00  0.00    +0.000 C 
BRANCH  11  12
ATOM     12  C   UNL     1       6.420   3.453  12.470  0.00  0.00    +0.000 C 
BRANCH  12  13
ATOM     13  C   UNL     1       5.387   2.665  11.668  0.00  0.00    +0.000 C 
BRANCH  13  14
ATOM     14  C   UNL     1       4.068   3.428  11.576  0.00  0.00    +0.000 C 
BRANCH  14  16
ATOM     15  C   UNL     1       2.872   4.404   9.590  0.00  0.00    +0.000 C 
ATOM     16  C   UNL     1       3.340   3.118  10.268  0.00  0.00    +0.000 C 
ENDBRANCH  14  16
ENDBRANCH  13  14
ENDBRANCH  12  13
ENDBRANCH  11  12
ENDBRANCH  10  11
ENDBRANCH   6  10
ENDBRANCH   5   7
ENDBRANCH   1   5
BRANCH   2  17
ATOM     17  C   UNL     1       2.398   4.771  20.168  0.00  0.00    +0.000 C 
BRANCH  17  18
ATOM     18  C   UNL     1       2.017   3.266  20.274  0.00  0.00    +0.000 C 
ATOM     19  C   UNL     1       2.117   2.795  21.737  0.00  0.00    +0.000 C 
ATOM     20  C   UNL     1       0.579   2.994  19.791  0.00  0.00    +0.000 C 
BRANCH  18  21
ATOM     21  C   UNL     1       2.955   2.429  19.362  0.00  0.00    +0.000 C 
BRANCH  21  22
ATOM     22  O   UNL     1       2.247   1.828  18.286  0.00  0.00    +0.000 OA
ATOM     23  H   UNL     1       2.880   1.261  17.810  0.00  0.00    +0.000 HD
ENDBRANCH  21  22
ENDBRANCH  18  21
ENDBRANCH  17  18
BRANCH  17  24
ATOM     24  O   UNL     1       2.491   5.328  21.484  0.00  0.00    +0.000 OA
ATOM     25  H   UNL     1       2.796   4.607  22.069  0.00  0.00    +0.000 HD
ENDBRANCH  17  24
ENDBRANCH   2  17
TORSDOF 13
ENDMDL
MODEL 7
REMARK VINA RESULT:      -5.8      1.384      1.773
REMARK  Name = 
REMARK  16 active torsions:
REMARK  status: ('A' for Active; 'I' for Inactive)
REMARK    1  A    between atoms: C_1  and  C_2
REMARK    2  A    between atoms: C_2  and  C_3
REMARK    3  A    between atoms: C_3  and  C_4
REMARK    4  A    between atoms: C_4  and  C_5
REMARK    5  A    between atoms: C_5  and  C_6
REMARK    6  A    between atoms: C_6  and  C_7
REMARK    7  A    between atoms: C_7  and  N_8
REMARK    8  A    between atoms: C_9  and  C_11
REMARK    9  A    between atoms: C_11  and  N_12
REMARK   10  A    between atoms: C_13  and  C_15
REMARK   11  A    between atoms: C_15  and  O_16
REMARK   12  A    between atoms: C_15  and  C_17
REMARK   13  A    between atoms: C_17  and  C_18
REMARK   14  A    between atoms: C_17  and  C_19
REMARK   15  A    between atoms: C_17  and  C_20
REMARK   16  A    between atoms: C_20  and  O_21
REMARK                            x       y       z     vdW  Elec       q    Type
REMARK                         _______ _______ _______ _____ _____    ______ ____
ROOT
ATOM      1  N   UNL     1       5.259   5.494  19.469  0.00  0.00    +0.000 N 
ATOM      2  C   UNL     1       4.545   4.319  19.571  0.00  0.00    +0.000 C 
ATOM      3  O   UNL     1       5.087   3.213  19.578  0.00  0.00    +0.000 OA
ATOM      4  H   UNL     1       4.776   6.368  19.296  0.00  0.00    +0.000 HD
ENDROOT
BRANCH   1   5
ATOM      5  C   UNL     1       6.704   5.498  19.318  0.00  0.00    +0.000 C 
BRANCH   5   7
ATOM      6  N   UNL     1       6.865   4.342  17.171  0.00  0.00    +0.000 N 
ATOM      7  C   UNL     1       7.082   5.533  17.837  0.00  0.00    +0.000 C 
ATOM      8  O   UNL     1       7.453   6.562  17.281  0.00  0.00    +0.000 OA
ATOM      9  H   UNL     1       6.502   3.555  17.698  0.00  0.00    +0.000 HD
BRANCH   6  10
ATOM     10  C   UNL     1       7.136   4.182  15.757  0.00  0.00    +0.000 C 
BRANCH  10  11
ATOM     11  C   UNL     1       5.909   3.718  14.977  0.00  0.00    +0.000 C 
BRANCH  11  12
ATOM     12  C   UNL     1       5.914   4.237  13.538  0.00  0.00    +0.000 C 
BRANCH  12  13
ATOM     13  C   UNL     1       5.863   3.091  12.530  0.00  0.00    +0.000 C 
BRANCH  13  14
ATOM     14  C   UNL     1       5.255   3.552  11.208  0.00  0.00    +0.000 C 
BRANCH  14  16
ATOM     15  C   UNL     1       3.109   3.880   9.937  0.00  0.00    +0.000 C 
ATOM     16  C   UNL     1       3.773   3.186  11.124  0.00  0.00    +0.000 C 
ENDBRANCH  14  16
ENDBRANCH  13  14
ENDBRANCH  12  13
ENDBRANCH  11  12
ENDBRANCH  10  11
ENDBRANCH   6  10
ENDBRANCH   5   7
ENDBRANCH   1   5
BRANCH   2  17
ATOM     17  C   UNL     1       3.008   4.477  19.717  0.00  0.00    +0.000 C 
BRANCH  17  18
ATOM     18  C   UNL     1       2.236   3.174  20.078  0.00  0.00    +0.000 C 
ATOM     19  C   UNL     1       2.598   2.720  21.505  0.00  0.00    +0.000 C 
ATOM     20  C   UNL     1       0.707   3.369  20.023  0.00  0.00    +0.000 C 
BRANCH  18  21
ATOM     21  C   UNL     1       2.578   2.067  19.045  0.00  0.00    +0.000 C 
BRANCH  21  22
ATOM     22  O   UNL     1       1.657   2.053  17.962  0.00  0.00    +0.000 OA
ATOM     23  H   UNL     1       1.965   1.371  17.336  0.00  0.00    +0.000 HD
ENDBRANCH  21  22
ENDBRANCH  18  21
ENDBRANCH  17  18
BRANCH  17  24
ATOM     24  O   UNL     1       2.710   5.486  20.688  0.00  0.00    +0.000 OA
ATOM     25  H   UNL     1       2.610   6.324  20.195  0.00  0.00    +0.000 HD
ENDBRANCH  17  24
ENDBRANCH   2  17
TORSDOF 13
ENDMDL
MODEL 8
REMARK VINA RESULT:      -5.8      1.585      1.879
REMARK  Name = 
REMARK  16 active torsions:
REMARK  status: ('A' for Active; 'I' for Inactive)
REMARK    1  A    between atoms: C_1  and  C_2
REMARK    2  A    between atoms: C_2  and  C_3
REMARK    3  A    between atoms: C_3  and  C_4
REMARK    4  A    between atoms: C_4  and  C_5
REMARK    5  A    between atoms: C_5  and  C_6
REMARK    6  A    between atoms: C_6  and  C_7
REMARK    7  A    between atoms: C_7  and  N_8
REMARK    8  A    between atoms: C_9  and  C_11
REMARK    9  A    between atoms: C_11  and  N_12
REMARK   10  A    between atoms: C_13  and  C_15
REMARK   11  A    between atoms: C_15  and  O_16
REMARK   12  A    between atoms: C_15  and  C_17
REMARK   13  A    between atoms: C_17  and  C_18
REMARK   14  A    between atoms: C_17  and  C_19
REMARK   15  A    between atoms: C_17  and  C_20
REMARK   16  A    between atoms: C_20  and  O_21
REMARK                            x       y       z     vdW  Elec       q    Type
REMARK                         _______ _______ _______ _____ _____    ______ ____
ROOT
ATOM      1  N   UNL     1       3.676   5.784  18.625  0.00  0.00    +0.000 N 
ATOM      2  C   UNL     1       2.519   5.037  18.567  0.00  0.00    +0.000 C 
ATOM      3  O   UNL     1       1.955   4.769  17.505  0.00  0.00    +0.000 OA
ATOM      4  H   UNL     1       4.015   6.126  19.516  0.00  0.00    +0.000 HD
ENDROOT
BRANCH   1   5
ATOM      5  C   UNL     1       4.283   6.345  17.429  0.00  0.00    +0.000 C 
BRANCH   5   7
ATOM      6  N   UNL     1       5.104   4.844  15.684  0.00  0.00    +0.000 N 
ATOM      7  C   UNL     1       5.383   5.418  16.909  0.00  0.00    +0.000 C 
ATOM      8  O   UNL     1       6.453   5.281  17.493  0.00  0.00    +0.000 OA
ATOM      9  H   UNL     1       4.215   5.056  15.243  0.00  0.00    +0.000 HD
BRANCH   6  10
ATOM     10  C   UNL     1       6.031   3.956  15.013  0.00  0.00    +0.000 C 
BRANCH  10  11
ATOM     11  C   UNL     1       6.841   4.668  13.932  0.00  0.00    +0.000 C 
BRANCH  11  12
ATOM     12  C   UNL     1       6.506   4.153  12.531  0.00  0.00    +0.000 C 
BRANCH  12  13
ATOM     13  C   UNL     1       5.444   3.057  12.577  0.00  0.00    +0.000 C 
BRANCH  13  14
ATOM     14  C   UNL     1       4.846   2.817  11.193  0.00  0.00    +0.000 C 
BRANCH  14  16
ATOM     15  C   UNL     1       3.161   4.044   9.785  0.00  0.00    +0.000 C 
ATOM     16  C   UNL     1       3.410   3.334  11.114  0.00  0.00    +0.000 C 
ENDBRANCH  14  16
ENDBRANCH  13  14
ENDBRANCH  12  13
ENDBRANCH  11  12
ENDBRANCH  10  11
ENDBRANCH   6  10
ENDBRANCH   5   7
ENDBRANCH   1   5
BRANCH   2  17
ATOM     17  C   UNL     1       1.987   4.514  19.928  0.00  0.00    +0.000 C 
BRANCH  17  18
ATOM     18  C   UNL     1       2.217   2.998  20.196  0.00  0.00    +0.000 C 
ATOM     19  C   UNL     1       1.671   2.616  21.584  0.00  0.00    +0.000 C 
ATOM     20  C   UNL     1       1.511   2.108  19.153  0.00  0.00    +0.000 C 
BRANCH  18  21
ATOM     21  C   UNL     1       3.733   2.679  20.095  0.00  0.00    +0.000 C 
BRANCH  21  22
ATOM     22  O   UNL     1       4.159   2.559  18.744  0.00  0.00    +0.000 OA
ATOM     23  H   UNL     1       3.457   2.079  18.267  0.00  0.00    +0.000 HD
ENDBRANCH  21  22
ENDBRANCH  18  21
ENDBRANCH  17  18
BRANCH  17  24
ATOM     24  O   UNL     1       2.556   5.274  21.000  0.00  0.00    +0.000 OA
ATOM     25  H   UNL     1       2.510   4.707  21.795  0.00  0.00    +0.000 HD
ENDBRANCH  17  24
ENDBRANCH   2  17
TORSDOF 13
ENDMDL
MODEL 9
REMARK VINA RESULT:      -5.8      1.432      2.285
REMARK  Name = 
REMARK  16 active torsions:
REMARK  status: ('A' for Active; 'I' for Inactive)
REMARK    1  A    between atoms: C_1  and  C_2
REMARK    2  A    between atoms: C_2  and  C_3
REMARK    3  A    between atoms: C_3  and  C_4
REMARK    4  A    between atoms: C_4  and  C_5
REMARK    5  A    between atoms: C_5  and  C_6
REMARK    6  A    between atoms: C_6  and  C_7
REMARK    7  A    between atoms: C_7  and  N_8
REMARK    8  A    between atoms: C_9  and  C_11
REMARK    9  A    between atoms: C_11  and  N_12
REMARK   10  A    between atoms: C_13  and  C_15
REMARK   11  A    between atoms: C_15  and  O_16
REMARK   12  A    between atoms: C_15  and  C_17
REMARK   13  A    between atoms: C_17  and  C_18
REMARK   14  A    between atoms: C_17  and  C_19
REMARK   15  A    between atoms: C_17  and  C_20
REMARK   16  A    between atoms: C_20  and  O_21
REMARK                            x       y       z     vdW  Elec       q    Type
REMARK                         _______ _______ _______ _____ _____    ______ ____
ROOT
ATOM      1  N   UNL     1       4.970   3.928  17.880  0.00  0.00    +0.000 N 
ATOM      2  C   UNL     1       4.584   3.141  18.944  0.00  0.00    +0.000 C 
ATOM      3  O   UNL     1       5.319   2.923  19.908  0.00  0.00    +0.000 OA
ATOM      4  H   UNL     1       4.412   3.947  17.034  0.00  0.00    +0.000 HD
ENDROOT
BRANCH   1   5
ATOM      5  C   UNL     1       6.296   4.518  17.809  0.00  0.00    +0.000 C 
BRANCH   5   7
ATOM      6  N   UNL     1       6.111   3.849  15.465  0.00  0.00    +0.000 N 
ATOM      7  C   UNL     1       6.704   4.729  16.350  0.00  0.00    +0.000 C 
ATOM      8  O   UNL     1       7.420   5.662  16.000  0.00  0.00    +0.000 OA
ATOM      9  H   UNL     1       5.486   3.141  15.836  0.00  0.00    +0.000 HD
BRANCH   6  10
ATOM     10  C   UNL     1       6.351   3.903  14.038  0.00  0.00    +0.000 C 
BRANCH  10  11
ATOM     11  C   UNL     1       5.065   4.092  13.238  0.00  0.00    +0.000 C 
BRANCH  11  12
ATOM     12  C   UNL     1       5.249   3.733  11.762  0.00  0.00    +0.000 C 
BRANCH  12  13
ATOM     13  C   UNL     1       4.329   2.588  11.346  0.00  0.00    +0.000 C 
BRANCH  13  14
ATOM     14  C   UNL     1       3.095   3.116  10.617  0.00  0.00    +0.000 C 
BRANCH  14  16
ATOM     15  C   UNL     1       2.227   4.906   9.077  0.00  0.00    +0.000 C 
ATOM     16  C   UNL     1       3.472   4.191   9.598  0.00  0.00    +0.000 C 
ENDBRANCH  14  16
ENDBRANCH  13  14
ENDBRANCH  12  13
ENDBRANCH  11  12
ENDBRANCH  10  11
ENDBRANCH   6  10
ENDBRANCH   5   7
ENDBRANCH   1   5
BRANCH   2  17
ATOM     17  C   UNL     1       3.141   2.574  18.873  0.00  0.00    +0.000 C 
BRANCH  17  18
ATOM     18  C   UNL     1       2.004   3.636  18.912  0.00  0.00    +0.000 C 
ATOM     19  C   UNL     1       2.446   4.855  19.743  0.00  0.00    +0.000 C 
ATOM     20  C   UNL     1       1.629   4.140  17.504  0.00  0.00    +0.000 C 
BRANCH  18  21
ATOM     21  C   UNL     1       0.721   2.999  19.510  0.00  0.00    +0.000 C 
BRANCH  21  22
ATOM     22  O   UNL     1       0.129   3.831  20.499  0.00  0.00    +0.000 OA
ATOM     23  H   UNL     1       0.818   4.453  20.796  0.00  0.00    +0.000 HD
ENDBRANCH  21  22
ENDBRANCH  18  21
ENDBRANCH  17  18
BRANCH  17  24
ATOM     24  O   UNL     1       2.990   1.765  17.701  0.00  0.00    +0.000 OA
ATOM     25  H   UNL     1       3.536   0.967  17.843  0.00  0.00    +0.000 HD
ENDBRANCH  17  24
ENDBRANCH   2  17
TORSDOF 13
ENDMDL
