MODEL 1
REMARK VINA RESULT:      -8.2      0.000      0.000
REMARK  Name = 
REMARK  8 active torsions:
REMARK  status: ('A' for Active; 'I' for Inactive)
REMARK    1  A    between atoms: C_1  and  C_2
REMARK    2  A    between atoms: N_4  and  C_5
REMARK    3  A    between atoms: C_6  and  C_7
REMARK    4  A    between atoms: N_9  and  C_10
REMARK    5  A    between atoms: C_15  and  N_16
REMARK    6  A    between atoms: C_17  and  C_19
REMARK    7  A    between atoms: C_24  and  C_25
REMARK    8  A    between atoms: C_35  and  N_36
REMARK                            x       y       z     vdW  Elec       q    Type
REMARK                         _______ _______ _______ _____ _____    ______ ____
ROOT
ATOM      1  C   UNL     1      -0.226  13.299  21.739  0.00  0.00    +0.000 A 
ATOM      2  C   UNL     1      -0.946  14.078  22.679  0.00  0.00    +0.000 A 
ATOM      3  C   UNL     1      -1.912  13.518  23.497  0.00  0.00    +0.000 A 
ATOM      4  N   UNL     1      -2.237  12.228  23.463  0.00  0.00    +0.000 NA
ATOM      5  C   UNL     1      -1.530  11.467  22.594  0.00  0.00    +0.000 A 
ATOM      6  C   UNL     1      -0.509  11.911  21.732  0.00  0.00    +0.000 A 
ENDROOT
BRANCH   1  11
ATOM      7  C   UNL     1       2.999  15.088  19.628  0.00  0.00    +0.000 C 
ATOM      8  C   UNL     1       1.975  14.208  18.856  0.00  0.00    +0.000 C 
ATOM      9  C   UNL     1       2.407  12.752  18.622  0.00  0.00    +0.000 C 
ATOM     10  C   UNL     1       0.580  14.255  19.528  0.00  0.00    +0.000 C 
ATOM     11  N   UNL     1       0.699  14.002  20.964  0.00  0.00    +0.000 N 
ATOM     12  C   UNL     1       1.534  14.996  21.672  0.00  0.00    +0.000 C 
ATOM     13  C   UNL     1       2.989  14.889  21.166  0.00  0.00    +0.000 C 
BRANCH   7  17
ATOM     14  C   UNL     1       6.525  15.612  18.272  0.00  0.00    +0.000 C 
ATOM     15  C   UNL     1       5.159  16.007  18.762  0.00  0.00    +0.000 C 
ATOM     16  O   UNL     1       4.794  17.177  18.831  0.00  0.00    +0.000 OA
ATOM     17  N   UNL     1       4.367  14.944  19.119  0.00  0.00    +0.000 N 
ATOM     18  H   UNL     1       4.699  13.991  19.010  0.00  0.00    +0.000 HD
ENDBRANCH   7  17
BRANCH  13  19
ATOM     19  N   UNL     1       3.643  13.615  21.560  0.00  0.00    +0.000 NA
ATOM     20  H   UNL     1       4.281  13.840  22.329  0.00  0.00    +0.000 HD
ATOM     21  H   UNL     1       4.261  13.322  20.803  0.00  0.00    +0.000 HD
ENDBRANCH  13  19
ENDBRANCH   1  11
BRANCH   6  22
ATOM     22  N   UNL     1       0.137  10.984  20.865  0.00  0.00    +0.000 N 
ATOM     23  C   UNL     1       0.865   9.871  21.277  0.00  0.00    +0.000 C 
ATOM     24  O   UNL     1       1.093   9.538  22.436  0.00  0.00    +0.000 OA
ATOM     25  H   UNL     1       0.138  11.171  19.870  0.00  0.00    +0.000 HD
BRANCH  23  26
ATOM     26  C   UNL     1       1.466   9.041  20.186  0.00  0.00    +0.000 A 
ATOM     27  C   UNL     1       1.619   9.586  18.915  0.00  0.00    +0.000 A 
ATOM     28  C   UNL     1       2.090   8.768  17.898  0.00  0.00    +0.000 A 
ATOM     29  C   UNL     1       2.379   7.440  18.181  0.00  0.00    +0.000 A 
ATOM     30  F   UNL     1       2.748   6.645  17.168  0.00  0.00    +0.000 F 
ATOM     31  C   UNL     1       2.239   6.956  19.490  0.00  0.00    +0.000 A 
ATOM     32  N   UNL     1       1.788   7.759  20.498  0.00  0.00    +0.000 NA
BRANCH  31  33
ATOM     33  C   UNL     1       2.535   5.572  19.889  0.00  0.00    +0.000 A 
ATOM     34  C   UNL     1       1.577   4.717  20.456  0.00  0.00    +0.000 A 
ATOM     35  F   UNL     1       0.314   5.130  20.640  0.00  0.00    +0.000 F 
ATOM     36  C   UNL     1       1.875   3.402  20.818  0.00  0.00    +0.000 A 
ATOM     37  C   UNL     1       3.147   2.885  20.589  0.00  0.00    +0.000 A 
ATOM     38  C   UNL     1       4.117   3.697  20.013  0.00  0.00    +0.000 A 
ATOM     39  C   UNL     1       3.811   5.020  19.689  0.00  0.00    +0.000 A 
ATOM     40  F   UNL     1       4.804   5.768  19.186  0.00  0.00    +0.000 F 
ENDBRANCH  31  33
ENDBRANCH  23  26
ENDBRANCH   6  22
TORSDOF 6
ENDMDL
MODEL 2
REMARK VINA RESULT:      -8.0      2.208      2.828
REMARK  Name = 
REMARK  8 active torsions:
REMARK  status: ('A' for Active; 'I' for Inactive)
REMARK    1  A    between atoms: C_1  and  C_2
REMARK    2  A    between atoms: N_4  and  C_5
REMARK    3  A    between atoms: C_6  and  C_7
REMARK    4  A    between atoms: N_9  and  C_10
REMARK    5  A    between atoms: C_15  and  N_16
REMARK    6  A    between atoms: C_17  and  C_19
REMARK    7  A    between atoms: C_24  and  C_25
REMARK    8  A    between atoms: C_35  and  N_36
REMARK                            x       y       z     vdW  Elec       q    Type
REMARK                         _______ _______ _______ _____ _____    ______ ____
ROOT
ATOM      1  C   UNL     1      -0.146  11.972  19.007  0.00  0.00    +0.000 A 
ATOM      2  C   UNL     1      -1.289  12.753  19.310  0.00  0.00    +0.000 A 
ATOM      3  C   UNL     1      -2.568  12.305  19.031  0.00  0.00    +0.000 A 
ATOM      4  N   UNL     1      -2.820  11.128  18.464  0.00  0.00    +0.000 NA
ATOM      5  C   UNL     1      -1.737  10.357  18.204  0.00  0.00    +0.000 A 
ATOM      6  C   UNL     1      -0.393  10.688  18.463  0.00  0.00    +0.000 A 
ENDROOT
BRANCH   1  11
ATOM      7  C   UNL     1       3.337  14.280  19.789  0.00  0.00    +0.000 C 
ATOM      8  C   UNL     1       2.529  13.688  20.979  0.00  0.00    +0.000 C 
ATOM      9  C   UNL     1       1.534  14.654  21.642  0.00  0.00    +0.000 C 
ATOM     10  C   UNL     1       1.815  12.375  20.571  0.00  0.00    +0.000 C 
ATOM     11  N   UNL     1       1.081  12.563  19.319  0.00  0.00    +0.000 N 
ATOM     12  C   UNL     1       1.943  12.938  18.179  0.00  0.00    +0.000 C 
ATOM     13  C   UNL     1       2.563  14.327  18.445  0.00  0.00    +0.000 C 
BRANCH   7  17
ATOM     14  C   UNL     1       5.473  17.427  20.059  0.00  0.00    +0.000 C 
ATOM     15  C   UNL     1       5.115  16.032  19.629  0.00  0.00    +0.000 C 
ATOM     16  O   UNL     1       5.857  15.344  18.933  0.00  0.00    +0.000 OA
ATOM     17  N   UNL     1       3.894  15.603  20.086  0.00  0.00    +0.000 N 
ATOM     18  H   UNL     1       3.332  16.195  20.690  0.00  0.00    +0.000 HD
ENDBRANCH   7  17
BRANCH  13  19
ATOM     19  N   UNL     1       1.555  15.419  18.429  0.00  0.00    +0.000 NA
ATOM     20  H   UNL     1       0.717  15.047  18.883  0.00  0.00    +0.000 HD
ATOM     21  H   UNL     1       1.266  15.575  17.463  0.00  0.00    +0.000 HD
ENDBRANCH  13  19
ENDBRANCH   1  11
BRANCH   6  22
ATOM     22  N   UNL     1       0.640   9.769  18.121  0.00  0.00    +0.000 N 
ATOM     23  C   UNL     1       1.301   8.932  19.017  0.00  0.00    +0.000 C 
ATOM     24  O   UNL     1       1.125   8.880  20.230  0.00  0.00    +0.000 OA
ATOM     25  H   UNL     1       0.984   9.760  17.169  0.00  0.00    +0.000 HD
BRANCH  23  26
ATOM     26  C   UNL     1       2.362   8.054  18.431  0.00  0.00    +0.000 A 
ATOM     27  C   UNL     1       3.329   8.610  17.600  0.00  0.00    +0.000 A 
ATOM     28  C   UNL     1       4.246   7.762  16.994  0.00  0.00    +0.000 A 
ATOM     29  C   UNL     1       4.157   6.396  17.229  0.00  0.00    +0.000 A 
ATOM     30  F   UNL     1       4.994   5.587  16.566  0.00  0.00    +0.000 F 
ATOM     31  C   UNL     1       3.183   5.898  18.105  0.00  0.00    +0.000 A 
ATOM     32  N   UNL     1       2.286   6.729  18.715  0.00  0.00    +0.000 NA
BRANCH  31  33
ATOM     33  C   UNL     1       3.021   4.472  18.428  0.00  0.00    +0.000 A 
ATOM     34  C   UNL     1       1.901   3.722  18.040  0.00  0.00    +0.000 A 
ATOM     35  F   UNL     1       0.918   4.281  17.319  0.00  0.00    +0.000 F 
ATOM     36  C   UNL     1       1.772   2.366  18.347  0.00  0.00    +0.000 A 
ATOM     37  C   UNL     1       2.788   1.704  19.030  0.00  0.00    +0.000 A 
ATOM     38  C   UNL     1       3.920   2.411  19.416  0.00  0.00    +0.000 A 
ATOM     39  C   UNL     1       4.017   3.774  19.130  0.00  0.00    +0.000 A 
ATOM     40  F   UNL     1       5.110   4.413  19.576  0.00  0.00    +0.000 F 
ENDBRANCH  31  33
ENDBRANCH  23  26
ENDBRANCH   6  22
TORSDOF 6
ENDMDL
MODEL 3
REMARK VINA RESULT:      -7.9      2.307      3.180
REMARK  Name = 
REMARK  8 active torsions:
REMARK  status: ('A' for Active; 'I' for Inactive)
REMARK    1  A    between atoms: C_1  and  C_2
REMARK    2  A    between atoms: N_4  and  C_5
REMARK    3  A    between atoms: C_6  and  C_7
REMARK    4  A    between atoms: N_9  and  C_10
REMARK    5  A    between atoms: C_15  and  N_16
REMARK    6  A    between atoms: C_17  and  C_19
REMARK    7  A    between atoms: C_24  and  C_25
REMARK    8  A    between atoms: C_35  and  N_36
REMARK                            x       y       z     vdW  Elec       q    Type
REMARK                         _______ _______ _______ _____ _____    ______ ____
ROOT
ATOM      1  C   UNL     1      -0.194  11.823  18.933  0.00  0.00    +0.000 A 
ATOM      2  C   UNL     1      -1.351  12.592  19.213  0.00  0.00    +0.000 A 
ATOM      3  C   UNL     1      -2.618  12.139  18.892  0.00  0.00    +0.000 A 
ATOM      4  N   UNL     1      -2.845  10.968  18.303  0.00  0.00    +0.000 NA
ATOM      5  C   UNL     1      -1.750  10.208  18.063  0.00  0.00    +0.000 A 
ATOM      6  C   UNL     1      -0.416  10.545  18.366  0.00  0.00    +0.000 A 
ENDROOT
BRANCH   1  11
ATOM      7  C   UNL     1       3.258  14.140  19.820  0.00  0.00    +0.000 C 
ATOM      8  C   UNL     1       2.389  13.586  20.985  0.00  0.00    +0.000 C 
ATOM      9  C   UNL     1       1.368  14.574  21.569  0.00  0.00    +0.000 C 
ATOM     10  C   UNL     1       1.689  12.264  20.581  0.00  0.00    +0.000 C 
ATOM     11  N   UNL     1       1.019  12.418  19.289  0.00  0.00    +0.000 N 
ATOM     12  C   UNL     1       1.939  12.756  18.183  0.00  0.00    +0.000 C 
ATOM     13  C   UNL     1       2.552  14.150  18.439  0.00  0.00    +0.000 C 
BRANCH   7  17
ATOM     14  C   UNL     1       5.386  17.123  20.874  0.00  0.00    +0.000 C 
ATOM     15  C   UNL     1       5.035  15.673  20.684  0.00  0.00    +0.000 C 
ATOM     16  O   UNL     1       5.785  14.762  21.021  0.00  0.00    +0.000 OA
ATOM     17  N   UNL     1       3.807  15.469  20.106  0.00  0.00    +0.000 N 
ATOM     18  H   UNL     1       3.206  16.254  19.877  0.00  0.00    +0.000 HD
ENDBRANCH   7  17
BRANCH  13  19
ATOM     19  N   UNL     1       1.552  15.245  18.340  0.00  0.00    +0.000 NA
ATOM     20  H   UNL     1       1.504  15.507  17.352  0.00  0.00    +0.000 HD
ATOM     21  H   UNL     1       1.935  16.072  18.798  0.00  0.00    +0.000 HD
ENDBRANCH  13  19
ENDBRANCH   1  11
BRANCH   6  22
ATOM     22  N   UNL     1       0.633   9.638  18.042  0.00  0.00    +0.000 N 
ATOM     23  C   UNL     1       1.337   8.861  18.959  0.00  0.00    +0.000 C 
ATOM     24  O   UNL     1       1.191   8.862  20.177  0.00  0.00    +0.000 OA
ATOM     25  H   UNL     1       0.955   9.593  17.083  0.00  0.00    +0.000 HD
BRANCH  23  26
ATOM     26  C   UNL     1       2.407   7.984  18.389  0.00  0.00    +0.000 A 
ATOM     27  C   UNL     1       3.390   8.542  17.577  0.00  0.00    +0.000 A 
ATOM     28  C   UNL     1       4.317   7.696  16.984  0.00  0.00    +0.000 A 
ATOM     29  C   UNL     1       4.222   6.329  17.212  0.00  0.00    +0.000 A 
ATOM     30  F   UNL     1       5.069   5.521  16.561  0.00  0.00    +0.000 F 
ATOM     31  C   UNL     1       3.231   5.829  18.069  0.00  0.00    +0.000 A 
ATOM     32  N   UNL     1       2.325   6.658  18.666  0.00  0.00    +0.000 NA
BRANCH  31  33
ATOM     33  C   UNL     1       3.062   4.402  18.383  0.00  0.00    +0.000 A 
ATOM     34  C   UNL     1       4.016   3.654  19.089  0.00  0.00    +0.000 A 
ATOM     35  F   UNL     1       5.139   4.231  19.542  0.00  0.00    +0.000 F 
ATOM     36  C   UNL     1       3.831   2.303  19.387  0.00  0.00    +0.000 A 
ATOM     37  C   UNL     1       2.656   1.659  19.010  0.00  0.00    +0.000 A 
ATOM     38  C   UNL     1       1.680   2.372  18.323  0.00  0.00    +0.000 A 
ATOM     39  C   UNL     1       1.897   3.713  18.006  0.00  0.00    +0.000 A 
ATOM     40  F   UNL     1       0.942   4.331  17.294  0.00  0.00    +0.000 F 
ENDBRANCH  31  33
ENDBRANCH  23  26
ENDBRANCH   6  22
TORSDOF 6
ENDMDL
MODEL 4
REMARK VINA RESULT:      -7.9      2.051      2.841
REMARK  Name = 
REMARK  8 active torsions:
REMARK  status: ('A' for Active; 'I' for Inactive)
REMARK    1  A    between atoms: C_1  and  C_2
REMARK    2  A    between atoms: N_4  and  C_5
REMARK    3  A    between atoms: C_6  and  C_7
REMARK    4  A    between atoms: N_9  and  C_10
REMARK    5  A    between atoms: C_15  and  N_16
REMARK    6  A    between atoms: C_17  and  C_19
REMARK    7  A    between atoms: C_24  and  C_25
REMARK    8  A    between atoms: C_35  and  N_36
REMARK                            x       y       z     vdW  Elec       q    Type
REMARK                         _______ _______ _______ _____ _____    ______ ____
ROOT
ATOM      1  C   UNL     1      -0.060  11.925  21.425  0.00  0.00    +0.000 A 
ATOM      2  C   UNL     1      -0.880  12.486  22.436  0.00  0.00    +0.000 A 
ATOM      3  C   UNL     1      -1.524  11.695  23.371  0.00  0.00    +0.000 A 
ATOM      4  N   UNL     1      -1.427  10.368  23.392  0.00  0.00    +0.000 NA
ATOM      5  C   UNL     1      -0.616   9.822  22.454  0.00  0.00    +0.000 A 
ATOM      6  C   UNL     1       0.110  10.519  21.469  0.00  0.00    +0.000 A 
ENDROOT
BRANCH   1  11
ATOM      7  C   UNL     1       1.152  15.023  18.780  0.00  0.00    +0.000 C 
ATOM      8  C   UNL     1       1.841  14.890  20.169  0.00  0.00    +0.000 C 
ATOM      9  C   UNL     1       1.288  15.812  21.267  0.00  0.00    +0.000 C 
ATOM     10  C   UNL     1       1.844  13.418  20.652  0.00  0.00    +0.000 C 
ATOM     11  N   UNL     1       0.504  12.842  20.536  0.00  0.00    +0.000 N 
ATOM     12  C   UNL     1      -0.013  12.823  19.151  0.00  0.00    +0.000 C 
ATOM     13  C   UNL     1      -0.201  14.275  18.659  0.00  0.00    +0.000 C 
BRANCH   7  17
ATOM     14  C   UNL     1       1.527  18.524  17.316  0.00  0.00    +0.000 C 
ATOM     15  C   UNL     1       1.920  17.107  17.630  0.00  0.00    +0.000 C 
ATOM     16  O   UNL     1       2.985  16.620  17.261  0.00  0.00    +0.000 OA
ATOM     17  N   UNL     1       0.986  16.419  18.363  0.00  0.00    +0.000 N 
ATOM     18  H   UNL     1       0.136  16.876  18.677  0.00  0.00    +0.000 HD
ENDBRANCH   7  17
BRANCH  13  19
ATOM     19  N   UNL     1      -1.290  14.989  19.375  0.00  0.00    +0.000 NA
ATOM     20  H   UNL     1      -0.848  15.497  20.145  0.00  0.00    +0.000 HD
ATOM     21  H   UNL     1      -1.878  14.296  19.839  0.00  0.00    +0.000 HD
ENDBRANCH  13  19
ENDBRANCH   1  11
BRANCH   6  22
ATOM     22  N   UNL     1       0.915   9.799  20.542  0.00  0.00    +0.000 N 
ATOM     23  C   UNL     1       1.144   8.425  20.573  0.00  0.00    +0.000 C 
ATOM     24  O   UNL     1       0.724   7.636  21.414  0.00  0.00    +0.000 OA
ATOM     25  H   UNL     1       1.428  10.317  19.839  0.00  0.00    +0.000 HD
BRANCH  23  26
ATOM     26  C   UNL     1       2.035   7.885  19.499  0.00  0.00    +0.000 A 
ATOM     27  C   UNL     1       2.552   8.749  18.539  0.00  0.00    +0.000 A 
ATOM     28  C   UNL     1       3.298   8.211  17.499  0.00  0.00    +0.000 A 
ATOM     29  C   UNL     1       3.491   6.836  17.450  0.00  0.00    +0.000 A 
ATOM     30  F   UNL     1       4.137   6.328  16.392  0.00  0.00    +0.000 F 
ATOM     31  C   UNL     1       2.976   6.020  18.467  0.00  0.00    +0.000 A 
ATOM     32  N   UNL     1       2.252   6.544  19.499  0.00  0.00    +0.000 NA
BRANCH  31  33
ATOM     33  C   UNL     1       3.141   4.559  18.509  0.00  0.00    +0.000 A 
ATOM     34  C   UNL     1       4.240   3.929  19.112  0.00  0.00    +0.000 A 
ATOM     35  F   UNL     1       5.198   4.651  19.713  0.00  0.00    +0.000 F 
ATOM     36  C   UNL     1       4.372   2.540  19.151  0.00  0.00    +0.000 A 
ATOM     37  C   UNL     1       3.379   1.728  18.610  0.00  0.00    +0.000 A 
ATOM     38  C   UNL     1       2.267   2.316  18.019  0.00  0.00    +0.000 A 
ATOM     39  C   UNL     1       2.168   3.707  17.960  0.00  0.00    +0.000 A 
ATOM     40  F   UNL     1       1.098   4.214  17.329  0.00  0.00    +0.000 F 
ENDBRANCH  31  33
ENDBRANCH  23  26
ENDBRANCH   6  22
TORSDOF 6
ENDMDL
MODEL 5
REMARK VINA RESULT:      -7.9      1.927      2.506
REMARK  Name = 
REMARK  8 active torsions:
REMARK  status: ('A' for Active; 'I' for Inactive)
REMARK    1  A    between atoms: C_1  and  C_2
REMARK    2  A    between atoms: N_4  and  C_5
REMARK    3  A    between atoms: C_6  and  C_7
REMARK    4  A    between atoms: N_9  and  C_10
REMARK    5  A    between atoms: C_15  and  N_16
REMARK    6  A    between atoms: C_17  and  C_19
REMARK    7  A    between atoms: C_24  and  C_25
REMARK    8  A    between atoms: C_35  and  N_36
REMARK                            x       y       z     vdW  Elec       q    Type
REMARK                         _______ _______ _______ _____ _____    ______ ____
ROOT
ATOM      1  C   UNL     1      -0.015  12.646  19.471  0.00  0.00    +0.000 A 
ATOM      2  C   UNL     1      -0.993  13.609  19.824  0.00  0.00    +0.000 A 
ATOM      3  C   UNL     1      -2.346  13.320  19.775  0.00  0.00    +0.000 A 
ATOM      4  N   UNL     1      -2.825  12.137  19.399  0.00  0.00    +0.000 NA
ATOM      5  C   UNL     1      -1.899  11.197  19.095  0.00  0.00    +0.000 A 
ATOM      6  C   UNL     1      -0.500  11.359  19.130  0.00  0.00    +0.000 A 
ENDROOT
BRANCH   1  11
ATOM      7  C   UNL     1       3.802  14.514  19.522  0.00  0.00    +0.000 C 
ATOM      8  C   UNL     1       3.137  14.096  20.865  0.00  0.00    +0.000 C 
ATOM      9  C   UNL     1       2.391  15.217  21.605  0.00  0.00    +0.000 C 
ATOM     10  C   UNL     1       2.212  12.868  20.672  0.00  0.00    +0.000 C 
ATOM     11  N   UNL     1       1.309  13.086  19.542  0.00  0.00    +0.000 N 
ATOM     12  C   UNL     1       2.008  13.284  18.255  0.00  0.00    +0.000 C 
ATOM     13  C   UNL     1       2.827  14.592  18.318  0.00  0.00    +0.000 C 
BRANCH   7  17
ATOM     14  C   UNL     1       6.352  17.339  19.274  0.00  0.00    +0.000 C 
ATOM     15  C   UNL     1       5.771  15.975  19.024  0.00  0.00    +0.000 C 
ATOM     16  O   UNL     1       6.339  15.129  18.339  0.00  0.00    +0.000 OA
ATOM     17  N   UNL     1       4.557  15.767  19.630  0.00  0.00    +0.000 N 
ATOM     18  H   UNL     1       4.143  16.483  20.217  0.00  0.00    +0.000 HD
ENDBRANCH   7  17
BRANCH  13  19
ATOM     19  N   UNL     1       1.970  15.804  18.382  0.00  0.00    +0.000 NA
ATOM     20  H   UNL     1       2.090  16.292  17.490  0.00  0.00    +0.000 HD
ATOM     21  H   UNL     1       2.368  16.444  19.070  0.00  0.00    +0.000 HD
ENDBRANCH  13  19
ENDBRANCH   1  11
BRANCH   6  22
ATOM     22  N   UNL     1       0.347  10.272  18.770  0.00  0.00    +0.000 N 
ATOM     23  C   UNL     1       1.032   9.456  19.667  0.00  0.00    +0.000 C 
ATOM     24  O   UNL     1       1.042   9.565  20.890  0.00  0.00    +0.000 OA
ATOM     25  H   UNL     1       0.535  10.109  17.789  0.00  0.00    +0.000 HD
BRANCH  23  26
ATOM     26  C   UNL     1       1.873   8.378  19.060  0.00  0.00    +0.000 A 
ATOM     27  C   UNL     1       2.802   8.706  18.077  0.00  0.00    +0.000 A 
ATOM     28  C   UNL     1       3.505   7.678  17.462  0.00  0.00    +0.000 A 
ATOM     29  C   UNL     1       3.246   6.367  17.840  0.00  0.00    +0.000 A 
ATOM     30  F   UNL     1       3.868   5.385  17.173  0.00  0.00    +0.000 F 
ATOM     31  C   UNL     1       2.324   6.101  18.862  0.00  0.00    +0.000 A 
ATOM     32  N   UNL     1       1.640   7.108  19.480  0.00  0.00    +0.000 NA
BRANCH  31  33
ATOM     33  C   UNL     1       1.997   4.749  19.340  0.00  0.00    +0.000 A 
ATOM     34  C   UNL     1       2.176   4.342  20.670  0.00  0.00    +0.000 A 
ATOM     35  F   UNL     1       2.641   5.199  21.591  0.00  0.00    +0.000 F 
ATOM     36  C   UNL     1       1.847   3.057  21.106  0.00  0.00    +0.000 A 
ATOM     37  C   UNL     1       1.292   2.139  20.220  0.00  0.00    +0.000 A 
ATOM     38  C   UNL     1       1.085   2.511  18.897  0.00  0.00    +0.000 A 
ATOM     39  C   UNL     1       1.450   3.789  18.472  0.00  0.00    +0.000 A 
ATOM     40  F   UNL     1       1.275   4.070  17.171  0.00  0.00    +0.000 F 
ENDBRANCH  31  33
ENDBRANCH  23  26
ENDBRANCH   6  22
TORSDOF 6
ENDMDL
MODEL 6
REMARK VINA RESULT:      -7.8      2.986      4.264
REMARK  Name = 
REMARK  8 active torsions:
REMARK  status: ('A' for Active; 'I' for Inactive)
REMARK    1  A    between atoms: C_1  and  C_2
REMARK    2  A    between atoms: N_4  and  C_5
REMARK    3  A    between atoms: C_6  and  C_7
REMARK    4  A    between atoms: N_9  and  C_10
REMARK    5  A    between atoms: C_15  and  N_16
REMARK    6  A    between atoms: C_17  and  C_19
REMARK    7  A    between atoms: C_24  and  C_25
REMARK    8  A    between atoms: C_35  and  N_36
REMARK                            x       y       z     vdW  Elec       q    Type
REMARK                         _______ _______ _______ _____ _____    ______ ____
ROOT
ATOM      1  C   UNL     1      -0.329  11.408  18.544  0.00  0.00    +0.000 A 
ATOM      2  C   UNL     1      -1.319  12.334  18.131  0.00  0.00    +0.000 A 
ATOM      3  C   UNL     1      -2.384  11.950  17.335  0.00  0.00    +0.000 A 
ATOM      4  N   UNL     1      -2.558  10.704  16.902  0.00  0.00    +0.000 NA
ATOM      5  C   UNL     1      -1.637   9.802  17.321  0.00  0.00    +0.000 A 
ATOM      6  C   UNL     1      -0.528  10.062  18.149  0.00  0.00    +0.000 A 
ENDROOT
BRANCH   1  11
ATOM      7  C   UNL     1       2.655  13.558  20.675  0.00  0.00    +0.000 C 
ATOM      8  C   UNL     1       1.434  12.978  21.445  0.00  0.00    +0.000 C 
ATOM      9  C   UNL     1       0.291  13.971  21.706  0.00  0.00    +0.000 C 
ATOM     10  C   UNL     1       0.891  11.702  20.753  0.00  0.00    +0.000 C 
ATOM     11  N   UNL     1       0.701  11.942  19.322  0.00  0.00    +0.000 N 
ATOM     12  C   UNL     1       1.947  12.302  18.612  0.00  0.00    +0.000 C 
ATOM     13  C   UNL     1       2.459  13.660  19.140  0.00  0.00    +0.000 C 
BRANCH   7  17
ATOM     14  C   UNL     1       4.230  16.409  22.658  0.00  0.00    +0.000 C 
ATOM     15  C   UNL     1       3.907  14.984  22.305  0.00  0.00    +0.000 C 
ATOM     16  O   UNL     1       4.334  14.030  22.950  0.00  0.00    +0.000 OA
ATOM     17  N   UNL     1       3.096  14.852  21.206  0.00  0.00    +0.000 N 
ATOM     18  H   UNL     1       2.738  15.671  20.726  0.00  0.00    +0.000 HD
ENDBRANCH   7  17
BRANCH  13  19
ATOM     19  N   UNL     1       1.569  14.792  18.773  0.00  0.00    +0.000 NA
ATOM     20  H   UNL     1       2.162  15.624  18.724  0.00  0.00    +0.000 HD
ATOM     21  H   UNL     1       0.945  14.978  19.559  0.00  0.00    +0.000 HD
ENDBRANCH  13  19
ENDBRANCH   1  11
BRANCH   6  22
ATOM     22  N   UNL     1       0.359   9.004  18.496  0.00  0.00    +0.000 N 
ATOM     23  C   UNL     1       1.629   8.810  17.957  0.00  0.00    +0.000 C 
ATOM     24  O   UNL     1       2.161   9.489  17.084  0.00  0.00    +0.000 OA
ATOM     25  H   UNL     1       0.032   8.285  19.129  0.00  0.00    +0.000 HD
BRANCH  23  26
ATOM     26  C   UNL     1       2.381   7.621  18.465  0.00  0.00    +0.000 A 
ATOM     27  C   UNL     1       2.159   7.174  19.764  0.00  0.00    +0.000 A 
ATOM     28  C   UNL     1       2.936   6.129  20.245  0.00  0.00    +0.000 A 
ATOM     29  C   UNL     1       3.909   5.579  19.421  0.00  0.00    +0.000 A 
ATOM     30  F   UNL     1       4.708   4.632  19.933  0.00  0.00    +0.000 F 
ATOM     31  C   UNL     1       4.062   6.047  18.109  0.00  0.00    +0.000 A 
ATOM     32  N   UNL     1       3.292   7.066  17.625  0.00  0.00    +0.000 NA
BRANCH  31  33
ATOM     33  C   UNL     1       5.053   5.518  17.158  0.00  0.00    +0.000 A 
ATOM     34  C   UNL     1       4.855   4.341  16.422  0.00  0.00    +0.000 A 
ATOM     35  F   UNL     1       3.715   3.644  16.538  0.00  0.00    +0.000 F 
ATOM     36  C   UNL     1       5.803   3.862  15.516  0.00  0.00    +0.000 A 
ATOM     37  C   UNL     1       6.979   4.573  15.293  0.00  0.00    +0.000 A 
ATOM     38  C   UNL     1       7.202   5.753  15.992  0.00  0.00    +0.000 A 
ATOM     39  C   UNL     1       6.257   6.199  16.918  0.00  0.00    +0.000 A 
ATOM     40  F   UNL     1       6.555   7.316  17.600  0.00  0.00    +0.000 F 
ENDBRANCH  31  33
ENDBRANCH  23  26
ENDBRANCH   6  22
TORSDOF 6
ENDMDL
MODEL 7
REMARK VINA RESULT:      -7.8      2.595      5.623
REMARK  Name = 
REMARK  8 active torsions:
REMARK  status: ('A' for Active; 'I' for Inactive)
REMARK    1  A    between atoms: C_1  and  C_2
REMARK    2  A    between atoms: N_4  and  C_5
REMARK    3  A    between atoms: C_6  and  C_7
REMARK    4  A    between atoms: N_9  and  C_10
REMARK    5  A    between atoms: C_15  and  N_16
REMARK    6  A    between atoms: C_17  and  C_19
REMARK    7  A    between atoms: C_24  and  C_25
REMARK    8  A    between atoms: C_35  and  N_36
REMARK                            x       y       z     vdW  Elec       q    Type
REMARK                         _______ _______ _______ _____ _____    ______ ____
ROOT
ATOM      1  C   UNL     1       0.006  13.145  19.847  0.00  0.00    +0.000 A 
ATOM      2  C   UNL     1       0.079  14.496  19.424  0.00  0.00    +0.000 A 
ATOM      3  C   UNL     1       1.213  15.005  18.815  0.00  0.00    +0.000 A 
ATOM      4  N   UNL     1       2.304  14.279  18.585  0.00  0.00    +0.000 NA
ATOM      5  C   UNL     1       2.233  12.977  18.952  0.00  0.00    +0.000 A 
ATOM      6  C   UNL     1       1.132  12.337  19.554  0.00  0.00    +0.000 A 
ENDROOT
BRANCH   1  11
ATOM      7  C   UNL     1      -3.505  12.452  22.141  0.00  0.00    +0.000 C 
ATOM      8  C   UNL     1      -3.628  13.100  20.732  0.00  0.00    +0.000 C 
ATOM      9  C   UNL     1      -3.733  14.633  20.722  0.00  0.00    +0.000 C 
ATOM     10  C   UNL     1      -2.482  12.632  19.800  0.00  0.00    +0.000 C 
ATOM     11  N   UNL     1      -1.190  12.779  20.470  0.00  0.00    +0.000 N 
ATOM     12  C   UNL     1      -1.071  11.978  21.707  0.00  0.00    +0.000 C 
ATOM     13  C   UNL     1      -2.080  12.504  22.752  0.00  0.00    +0.000 C 
BRANCH   7  17
ATOM     14  C   UNL     1      -6.621  13.415  24.117  0.00  0.00    +0.000 C 
ATOM     15  C   UNL     1      -5.826  12.762  23.020  0.00  0.00    +0.000 C 
ATOM     16  O   UNL     1      -6.348  12.087  22.137  0.00  0.00    +0.000 OA
ATOM     17  N   UNL     1      -4.475  12.992  23.098  0.00  0.00    +0.000 N 
ATOM     18  H   UNL     1      -4.093  13.587  23.826  0.00  0.00    +0.000 HD
ENDBRANCH   7  17
BRANCH  13  19
ATOM     19  N   UNL     1      -1.742  13.865  23.243  0.00  0.00    +0.000 NA
ATOM     20  H   UNL     1      -1.770  14.484  22.428  0.00  0.00    +0.000 HD
ATOM     21  H   UNL     1      -0.762  13.871  23.527  0.00  0.00    +0.000 HD
ENDBRANCH  13  19
ENDBRANCH   1  11
BRANCH   6  22
ATOM     22  N   UNL     1       1.215  10.956  19.892  0.00  0.00    +0.000 N 
ATOM     23  C   UNL     1       1.576   9.935  19.017  0.00  0.00    +0.000 C 
ATOM     24  O   UNL     1       1.842  10.057  17.825  0.00  0.00    +0.000 OA
ATOM     25  H   UNL     1       0.923  10.665  20.817  0.00  0.00    +0.000 HD
BRANCH  23  26
ATOM     26  C   UNL     1       1.586   8.553  19.591  0.00  0.00    +0.000 A 
ATOM     27  C   UNL     1       0.998   8.323  20.831  0.00  0.00    +0.000 A 
ATOM     28  C   UNL     1       1.101   7.055  21.387  0.00  0.00    +0.000 A 
ATOM     29  C   UNL     1       1.795   6.071  20.693  0.00  0.00    +0.000 A 
ATOM     30  F   UNL     1       1.960   4.880  21.285  0.00  0.00    +0.000 F 
ATOM     31  C   UNL     1       2.335   6.353  19.430  0.00  0.00    +0.000 A 
ATOM     32  N   UNL     1       2.225   7.595  18.873  0.00  0.00    +0.000 NA
BRANCH  31  33
ATOM     33  C   UNL     1       3.070   5.374  18.615  0.00  0.00    +0.000 A 
ATOM     34  C   UNL     1       2.456   4.570  17.644  0.00  0.00    +0.000 A 
ATOM     35  F   UNL     1       1.143   4.681  17.393  0.00  0.00    +0.000 F 
ATOM     36  C   UNL     1       3.174   3.655  16.872  0.00  0.00    +0.000 A 
ATOM     37  C   UNL     1       4.553   3.538  17.029  0.00  0.00    +0.000 A 
ATOM     38  C   UNL     1       5.198   4.330  17.971  0.00  0.00    +0.000 A 
ATOM     39  C   UNL     1       4.459   5.216  18.756  0.00  0.00    +0.000 A 
ATOM     40  F   UNL     1       5.132   5.913  19.684  0.00  0.00    +0.000 F 
ENDBRANCH  31  33
ENDBRANCH  23  26
ENDBRANCH   6  22
TORSDOF 6
ENDMDL
MODEL 8
REMARK VINA RESULT:      -7.8      2.983      4.402
REMARK  Name = 
REMARK  8 active torsions:
REMARK  status: ('A' for Active; 'I' for Inactive)
REMARK    1  A    between atoms: C_1  and  C_2
REMARK    2  A    between atoms: N_4  and  C_5
REMARK    3  A    between atoms: C_6  and  C_7
REMARK    4  A    between atoms: N_9  and  C_10
REMARK    5  A    between atoms: C_15  and  N_16
REMARK    6  A    between atoms: C_17  and  C_19
REMARK    7  A    between atoms: C_24  and  C_25
REMARK    8  A    between atoms: C_35  and  N_36
REMARK                            x       y       z     vdW  Elec       q    Type
REMARK                         _______ _______ _______ _____ _____    ______ ____
ROOT
ATOM      1  C   UNL     1      -0.391  11.395  18.531  0.00  0.00    +0.000 A 
ATOM      2  C   UNL     1      -1.385  12.315  18.114  0.00  0.00    +0.000 A 
ATOM      3  C   UNL     1      -2.433  11.930  17.296  0.00  0.00    +0.000 A 
ATOM      4  N   UNL     1      -2.587  10.687  16.846  0.00  0.00    +0.000 NA
ATOM      5  C   UNL     1      -1.663   9.790  17.269  0.00  0.00    +0.000 A 
ATOM      6  C   UNL     1      -0.570  10.052  18.117  0.00  0.00    +0.000 A 
ENDROOT
BRANCH   1  11
ATOM      7  C   UNL     1       2.541  13.549  20.728  0.00  0.00    +0.000 C 
ATOM      8  C   UNL     1       1.306  12.966  21.471  0.00  0.00    +0.000 C 
ATOM      9  C   UNL     1       0.155  13.956  21.709  0.00  0.00    +0.000 C 
ATOM     10  C   UNL     1       0.781  11.689  20.766  0.00  0.00    +0.000 C 
ATOM     11  N   UNL     1       0.621  11.931  19.332  0.00  0.00    +0.000 N 
ATOM     12  C   UNL     1       1.880  12.294  18.649  0.00  0.00    +0.000 C 
ATOM     13  C   UNL     1       2.378  13.653  19.189  0.00  0.00    +0.000 C 
BRANCH   7  17
ATOM     14  C   UNL     1       4.133  16.401  22.696  0.00  0.00    +0.000 C 
ATOM     15  C   UNL     1       3.841  14.975  22.321  0.00  0.00    +0.000 C 
ATOM     16  O   UNL     1       4.340  14.021  22.909  0.00  0.00    +0.000 OA
ATOM     17  N   UNL     1       2.968  14.843  21.270  0.00  0.00    +0.000 N 
ATOM     18  H   UNL     1       2.551  15.662  20.838  0.00  0.00    +0.000 HD
ENDBRANCH   7  17
BRANCH  13  19
ATOM     19  N   UNL     1       1.493  14.783  18.805  0.00  0.00    +0.000 NA
ATOM     20  H   UNL     1       0.532  14.443  18.894  0.00  0.00    +0.000 HD
ATOM     21  H   UNL     1       1.604  14.954  17.805  0.00  0.00    +0.000 HD
ENDBRANCH  13  19
ENDBRANCH   1  11
BRANCH   6  22
ATOM     22  N   UNL     1       0.322   8.999  18.465  0.00  0.00    +0.000 N 
ATOM     23  C   UNL     1       1.607   8.832  17.954  0.00  0.00    +0.000 C 
ATOM     24  O   UNL     1       2.151   9.534  17.107  0.00  0.00    +0.000 OA
ATOM     25  H   UNL     1      -0.010   8.264  19.078  0.00  0.00    +0.000 HD
BRANCH  23  26
ATOM     26  C   UNL     1       2.363   7.643  18.458  0.00  0.00    +0.000 A 
ATOM     27  C   UNL     1       2.134   7.183  19.751  0.00  0.00    +0.000 A 
ATOM     28  C   UNL     1       2.913   6.139  20.230  0.00  0.00    +0.000 A 
ATOM     29  C   UNL     1       3.896   5.603  19.409  0.00  0.00    +0.000 A 
ATOM     30  F   UNL     1       4.697   4.657  19.919  0.00  0.00    +0.000 F 
ATOM     31  C   UNL     1       4.057   6.083  18.102  0.00  0.00    +0.000 A 
ATOM     32  N   UNL     1       3.284   7.102  17.620  0.00  0.00    +0.000 NA
BRANCH  31  33
ATOM     33  C   UNL     1       5.059   5.569  17.155  0.00  0.00    +0.000 A 
ATOM     34  C   UNL     1       6.286   6.205  16.918  0.00  0.00    +0.000 A 
ATOM     35  F   UNL     1       6.617   7.324  17.579  0.00  0.00    +0.000 F 
ATOM     36  C   UNL     1       7.228   5.694  16.023  0.00  0.00    +0.000 A 
ATOM     37  C   UNL     1       6.981   4.497  15.355  0.00  0.00    +0.000 A 
ATOM     38  C   UNL     1       5.783   3.830  15.578  0.00  0.00    +0.000 A 
ATOM     39  C   UNL     1       4.839   4.373  16.451  0.00  0.00    +0.000 A 
ATOM     40  F   UNL     1       3.679   3.711  16.582  0.00  0.00    +0.000 F 
ENDBRANCH  31  33
ENDBRANCH  23  26
ENDBRANCH   6  22
TORSDOF 6
ENDMDL
MODEL 9
REMARK VINA RESULT:      -7.8      2.753      5.875
REMARK  Name = 
REMARK  8 active torsions:
REMARK  status: ('A' for Active; 'I' for Inactive)
REMARK    1  A    between atoms: C_1  and  C_2
REMARK    2  A    between atoms: N_4  and  C_5
REMARK    3  A    between atoms: C_6  and  C_7
REMARK    4  A    between atoms: N_9  and  C_10
REMARK    5  A    between atoms: C_15  and  N_16
REMARK    6  A    between atoms: C_17  and  C_19
REMARK    7  A    between atoms: C_24  and  C_25
REMARK    8  A    between atoms: C_35  and  N_36
REMARK                            x       y       z     vdW  Elec       q    Type
REMARK                         _______ _______ _______ _____ _____    ______ ____
ROOT
ATOM      1  C   UNL     1      -0.328  13.448  19.947  0.00  0.00    +0.000 A 
ATOM      2  C   UNL     1      -0.342  14.809  19.555  0.00  0.00    +0.000 A 
ATOM      3  C   UNL     1       0.729  15.384  18.892  0.00  0.00    +0.000 A 
ATOM      4  N   UNL     1       1.836  14.715  18.579  0.00  0.00    +0.000 NA
ATOM      5  C   UNL     1       1.845  13.403  18.916  0.00  0.00    +0.000 A 
ATOM      6  C   UNL     1       0.812  12.699  19.566  0.00  0.00    +0.000 A 
ENDROOT
BRANCH   1  11
ATOM      7  C   UNL     1      -3.743  12.625  22.341  0.00  0.00    +0.000 C 
ATOM      8  C   UNL     1      -3.930  12.979  20.838  0.00  0.00    +0.000 C 
ATOM      9  C   UNL     1      -4.277  14.447  20.548  0.00  0.00    +0.000 C 
ATOM     10  C   UNL     1      -2.701  12.541  20.003  0.00  0.00    +0.000 C 
ATOM     11  N   UNL     1      -1.466  13.012  20.631  0.00  0.00    +0.000 N 
ATOM     12  C   UNL     1      -1.254  12.479  21.993  0.00  0.00    +0.000 C 
ATOM     13  C   UNL     1      -2.361  13.015  22.927  0.00  0.00    +0.000 C 
BRANCH   7  17
ATOM     14  C   UNL     1      -7.027  13.432  24.102  0.00  0.00    +0.000 C 
ATOM     15  C   UNL     1      -6.112  12.732  23.135  0.00  0.00    +0.000 C 
ATOM     16  O   UNL     1      -6.504  11.856  22.370  0.00  0.00    +0.000 OA
ATOM     17  N   UNL     1      -4.811  13.165  23.188  0.00  0.00    +0.000 N 
ATOM     18  H   UNL     1      -4.541  13.919  23.812  0.00  0.00    +0.000 HD
ENDBRANCH   7  17
BRANCH  13  19
ATOM     19  N   UNL     1      -2.256  14.479  23.160  0.00  0.00    +0.000 NA
ATOM     20  H   UNL     1      -3.215  14.829  23.245  0.00  0.00    +0.000 HD
ATOM     21  H   UNL     1      -1.906  14.917  22.308  0.00  0.00    +0.000 HD
ENDBRANCH  13  19
ENDBRANCH   1  11
BRANCH   6  22
ATOM     22  N   UNL     1       0.977  11.317  19.863  0.00  0.00    +0.000 N 
ATOM     23  C   UNL     1       1.422  10.349  18.965  0.00  0.00    +0.000 C 
ATOM     24  O   UNL     1       1.703  10.526  17.784  0.00  0.00    +0.000 OA
ATOM     25  H   UNL     1       0.686  10.977  20.771  0.00  0.00    +0.000 HD
BRANCH  23  26
ATOM     26  C   UNL     1       1.509   8.953  19.497  0.00  0.00    +0.000 A 
ATOM     27  C   UNL     1       1.049   8.679  20.781  0.00  0.00    +0.000 A 
ATOM     28  C   UNL     1       1.226   7.399  21.288  0.00  0.00    +0.000 A 
ATOM     29  C   UNL     1       1.862   6.446  20.502  0.00  0.00    +0.000 A 
ATOM     30  F   UNL     1       2.103   5.243  21.041  0.00  0.00    +0.000 F 
ATOM     31  C   UNL     1       2.271   6.771  19.201  0.00  0.00    +0.000 A 
ATOM     32  N   UNL     1       2.089   8.026  18.692  0.00  0.00    +0.000 NA
BRANCH  31  33
ATOM     33  C   UNL     1       2.938   5.828  18.291  0.00  0.00    +0.000 A 
ATOM     34  C   UNL     1       4.194   6.075  17.717  0.00  0.00    +0.000 A 
ATOM     35  F   UNL     1       4.868   7.199  18.001  0.00  0.00    +0.000 F 
ATOM     36  C   UNL     1       4.815   5.160  16.864  0.00  0.00    +0.000 A 
ATOM     37  C   UNL     1       4.205   3.941  16.582  0.00  0.00    +0.000 A 
ATOM     38  C   UNL     1       2.968   3.655  17.146  0.00  0.00    +0.000 A 
ATOM     39  C   UNL     1       2.347   4.594  17.970  0.00  0.00    +0.000 A 
ATOM     40  F   UNL     1       1.130   4.282  18.440  0.00  0.00    +0.000 F 
ENDBRANCH  31  33
ENDBRANCH  23  26
ENDBRANCH   6  22
TORSDOF 6
ENDMDL
