MODEL 1
REMARK VINA RESULT:      -9.2      0.000      0.000
REMARK  Name = 
REMARK  6 active torsions:
REMARK  status: ('A' for Active; 'I' for Inactive)
REMARK    1  A    between atoms: C_1  and  O_2
REMARK    2  A    between atoms: O_2  and  C_3
REMARK    3  A    between atoms: C_9  and  C_10
REMARK    4  A    between atoms: N_11  and  N_12
REMARK    5  A    between atoms: C_13  and  C_15
REMARK    6  A    between atoms: C_17  and  C_18
REMARK                            x       y       z     vdW  Elec       q    Type
REMARK                         _______ _______ _______ _____ _____    ______ ____
ROOT
ATOM      1  C   UNL     1       7.134   6.238  17.343  0.00  0.00    +0.000 A 
ATOM      2  N   UNL     1       7.537   5.961  16.044  0.00  0.00    +0.000 NA
ATOM      3  C   UNL     1       6.619   5.165  15.516  0.00  0.00    +0.000 A 
ATOM      4  N   UNL     1       5.658   4.854  16.475  0.00  0.00    +0.000 N 
ATOM      5  C   UNL     1       5.941   5.576  17.617  0.00  0.00    +0.000 A 
ATOM      6  C   UNL     1       5.099   5.586  18.860  0.00  0.00    +0.000 C 
ATOM      7  C   UNL     1       3.599   5.597  18.574  0.00  0.00    +0.000 C 
ATOM      8  C   UNL     1       3.022   4.210  18.294  0.00  0.00    +0.000 C 
ATOM      9  C   UNL     1       3.944   3.281  17.509  0.00  0.00    +0.000 C 
ATOM     10  C   UNL     1       4.538   3.946  16.275  0.00  0.00    +0.000 C 
ENDROOT
BRANCH   3  11
ATOM     11  C   UNL     1       6.651   4.667  14.125  0.00  0.00    +0.000 A 
ATOM     12  C   UNL     1       7.596   5.181  13.224  0.00  0.00    +0.000 A 
ATOM     13  C   UNL     1       7.659   4.717  11.906  0.00  0.00    +0.000 A 
ATOM     14  C   UNL     1       6.786   3.724  11.468  0.00  0.00    +0.000 A 
ATOM     15  C   UNL     1       5.833   3.212  12.340  0.00  0.00    +0.000 A 
ATOM     16  C   UNL     1       5.750   3.702  13.645  0.00  0.00    +0.000 A 
ENDBRANCH   3  11
BRANCH   1  18
ATOM     17  N   UNL     1       7.972   8.440  17.819  0.00  0.00    +0.000 N 
ATOM     18  C   UNL     1       7.886   7.122  18.251  0.00  0.00    +0.000 C 
ATOM     19  O   UNL     1       8.388   6.710  19.301  0.00  0.00    +0.000 OA
ATOM     20  H   UNL     1       7.536   8.703  16.942  0.00  0.00    +0.000 HD
BRANCH  17  22
ATOM     21  C   UNL     1       8.690  10.580  18.223  0.00  0.00    +0.000 C 
ATOM     22  N   UNL     1       8.631   9.346  18.606  0.00  0.00    +0.000 NA
BRANCH  21  29
ATOM     23  C   UNL     1      10.528  12.285  18.570  0.00  0.00    +0.000 A 
ATOM     24  C   UNL     1      11.198  13.173  19.427  0.00  0.00    +0.000 A 
ATOM     25  C   UNL     1      10.772  13.357  20.745  0.00  0.00    +0.000 A 
ATOM     26  C   UNL     1       9.663  12.665  21.216  0.00  0.00    +0.000 A 
ATOM     27 BR   UNL     1       9.067  12.945  22.986  0.00  0.00    +0.000 Br
ATOM     28  C   UNL     1       8.988  11.774  20.386  0.00  0.00    +0.000 A 
ATOM     29  C   UNL     1       9.419  11.575  19.062  0.00  0.00    +0.000 A 
BRANCH  23  31
ATOM     30  C   UNL     1      11.549  13.163  16.609  0.00  0.00    +0.000 C 
ATOM     31  O   UNL     1      10.880  12.084  17.260  0.00  0.00    +0.000 OA
ENDBRANCH  23  31
ENDBRANCH  21  29
ENDBRANCH  17  22
ENDBRANCH   1  18
TORSDOF 5
ENDMDL
MODEL 2
REMARK VINA RESULT:      -9.0      5.711      6.843
REMARK  Name = 
REMARK  6 active torsions:
REMARK  status: ('A' for Active; 'I' for Inactive)
REMARK    1  A    between atoms: C_1  and  O_2
REMARK    2  A    between atoms: O_2  and  C_3
REMARK    3  A    between atoms: C_9  and  C_10
REMARK    4  A    between atoms: N_11  and  N_12
REMARK    5  A    between atoms: C_13  and  C_15
REMARK    6  A    between atoms: C_17  and  C_18
REMARK                            x       y       z     vdW  Elec       q    Type
REMARK                         _______ _______ _______ _____ _____    ______ ____
ROOT
ATOM      1  C   UNL     1       2.609   6.826  19.167  0.00  0.00    +0.000 A 
ATOM      2  N   UNL     1       3.632   6.811  18.229  0.00  0.00    +0.000 NA
ATOM      3  C   UNL     1       4.039   5.554  18.122  0.00  0.00    +0.000 A 
ATOM      4  N   UNL     1       3.350   4.758  19.033  0.00  0.00    +0.000 N 
ATOM      5  C   UNL     1       2.400   5.541  19.657  0.00  0.00    +0.000 A 
ATOM      6  C   UNL     1       1.393   5.044  20.654  0.00  0.00    +0.000 C 
ATOM      7  C   UNL     1       0.814   3.677  20.297  0.00  0.00    +0.000 C 
ATOM      8  C   UNL     1       1.697   2.509  20.731  0.00  0.00    +0.000 C 
ATOM      9  C   UNL     1       3.198   2.760  20.604  0.00  0.00    +0.000 C 
ATOM     10  C   UNL     1       3.585   3.338  19.250  0.00  0.00    +0.000 C 
ENDROOT
BRANCH   3  11
ATOM     11  C   UNL     1       5.094   5.098  17.193  0.00  0.00    +0.000 A 
ATOM     12  C   UNL     1       4.747   4.684  15.897  0.00  0.00    +0.000 A 
ATOM     13  C   UNL     1       5.726   4.261  14.992  0.00  0.00    +0.000 A 
ATOM     14  C   UNL     1       7.069   4.255  15.362  0.00  0.00    +0.000 A 
ATOM     15  C   UNL     1       7.432   4.647  16.645  0.00  0.00    +0.000 A 
ATOM     16  C   UNL     1       6.449   5.035  17.557  0.00  0.00    +0.000 A 
ENDBRANCH   3  11
BRANCH   1  18
ATOM     17  N   UNL     1       1.598   8.894  18.473  0.00  0.00    +0.000 N 
ATOM     18  C   UNL     1       1.875   8.049  19.540  0.00  0.00    +0.000 C 
ATOM     19  O   UNL     1       1.542   8.283  20.706  0.00  0.00    +0.000 OA
ATOM     20  H   UNL     1       1.908   8.635  17.543  0.00  0.00    +0.000 HD
BRANCH  17  22
ATOM     21  C   UNL     1       1.522  11.177  18.671  0.00  0.00    +0.000 C 
ATOM     22  N   UNL     1       0.897  10.045  18.714  0.00  0.00    +0.000 NA
BRANCH  21  29
ATOM     23  C   UNL     1       1.303  13.697  18.612  0.00  0.00    +0.000 A 
ATOM     24  C   UNL     1       0.570  14.849  18.942  0.00  0.00    +0.000 A 
ATOM     25  C   UNL     1      -0.665  14.753  19.589  0.00  0.00    +0.000 A 
ATOM     26  C   UNL     1      -1.186  13.502  19.900  0.00  0.00    +0.000 A 
ATOM     27 BR   UNL     1      -2.874  13.375  20.739  0.00  0.00    +0.000 Br
ATOM     28  C   UNL     1      -0.473  12.348  19.589  0.00  0.00    +0.000 A 
ATOM     29  C   UNL     1       0.776  12.439  18.948  0.00  0.00    +0.000 A 
BRANCH  23  31
ATOM     30  C   UNL     1       3.520  14.555  18.517  0.00  0.00    +0.000 C 
ATOM     31  O   UNL     1       2.505  13.727  17.952  0.00  0.00    +0.000 OA
ENDBRANCH  23  31
ENDBRANCH  21  29
ENDBRANCH  17  22
ENDBRANCH   1  18
TORSDOF 5
ENDMDL
MODEL 3
REMARK VINA RESULT:      -8.8      5.897      7.408
REMARK  Name = 
REMARK  6 active torsions:
REMARK  status: ('A' for Active; 'I' for Inactive)
REMARK    1  A    between atoms: C_1  and  O_2
REMARK    2  A    between atoms: O_2  and  C_3
REMARK    3  A    between atoms: C_9  and  C_10
REMARK    4  A    between atoms: N_11  and  N_12
REMARK    5  A    between atoms: C_13  and  C_15
REMARK    6  A    between atoms: C_17  and  C_18
REMARK                            x       y       z     vdW  Elec       q    Type
REMARK                         _______ _______ _______ _____ _____    ______ ____
ROOT
ATOM      1  C   UNL     1       2.535   6.838  19.458  0.00  0.00    +0.000 A 
ATOM      2  N   UNL     1       3.578   6.958  18.548  0.00  0.00    +0.000 NA
ATOM      3  C   UNL     1       4.003   5.731  18.285  0.00  0.00    +0.000 A 
ATOM      4  N   UNL     1       3.306   4.814  19.067  0.00  0.00    +0.000 N 
ATOM      5  C   UNL     1       2.333   5.498  19.768  0.00  0.00    +0.000 A 
ATOM      6  C   UNL     1       1.313   4.862  20.669  0.00  0.00    +0.000 C 
ATOM      7  C   UNL     1       0.759   3.549  20.121  0.00  0.00    +0.000 C 
ATOM      8  C   UNL     1       1.649   2.343  20.417  0.00  0.00    +0.000 C 
ATOM      9  C   UNL     1       3.148   2.624  20.357  0.00  0.00    +0.000 C 
ATOM     10  C   UNL     1       3.556   3.380  19.100  0.00  0.00    +0.000 C 
ENDROOT
BRANCH   3  11
ATOM     11  C   UNL     1       5.082   5.413  17.326  0.00  0.00    +0.000 A 
ATOM     12  C   UNL     1       4.846   5.533  15.949  0.00  0.00    +0.000 A 
ATOM     13  C   UNL     1       5.853   5.252  15.019  0.00  0.00    +0.000 A 
ATOM     14  C   UNL     1       7.118   4.858  15.452  0.00  0.00    +0.000 A 
ATOM     15  C   UNL     1       7.368   4.719  16.811  0.00  0.00    +0.000 A 
ATOM     16  C   UNL     1       6.350   4.966  17.734  0.00  0.00    +0.000 A 
ENDBRANCH   3  11
BRANCH   1  18
ATOM     17  N   UNL     1       1.487   8.956  19.014  0.00  0.00    +0.000 N 
ATOM     18  C   UNL     1       1.778   7.993  19.973  0.00  0.00    +0.000 C 
ATOM     19  O   UNL     1       1.438   8.079  21.157  0.00  0.00    +0.000 OA
ATOM     20  H   UNL     1       1.803   8.817  18.061  0.00  0.00    +0.000 HD
BRANCH  17  22
ATOM     21  C   UNL     1       1.392  11.085  19.863  0.00  0.00    +0.000 C 
ATOM     22  N   UNL     1       0.764  10.056  19.390  0.00  0.00    +0.000 NA
BRANCH  21  29
ATOM     23  C   UNL     1      -0.078  12.317  21.512  0.00  0.00    +0.000 A 
ATOM     24  C   UNL     1      -0.827  13.461  21.835  0.00  0.00    +0.000 A 
ATOM     25  C   UNL     1      -0.880  14.553  20.965  0.00  0.00    +0.000 A 
ATOM     26  C   UNL     1      -0.174  14.517  19.768  0.00  0.00    +0.000 A 
ATOM     27 BR   UNL     1      -0.218  16.011  18.612  0.00  0.00    +0.000 Br
ATOM     28  C   UNL     1       0.568  13.392  19.425  0.00  0.00    +0.000 A 
ATOM     29  C   UNL     1       0.617  12.285  20.291  0.00  0.00    +0.000 A 
BRANCH  23  31
ATOM     30  C   UNL     1      -1.137  10.847  23.054  0.00  0.00    +0.000 C 
ATOM     31  O   UNL     1       0.036  11.228  22.338  0.00  0.00    +0.000 OA
ENDBRANCH  23  31
ENDBRANCH  21  29
ENDBRANCH  17  22
ENDBRANCH   1  18
TORSDOF 5
ENDMDL
MODEL 4
REMARK VINA RESULT:      -8.8      5.963      7.944
REMARK  Name = 
REMARK  6 active torsions:
REMARK  status: ('A' for Active; 'I' for Inactive)
REMARK    1  A    between atoms: C_1  and  O_2
REMARK    2  A    between atoms: O_2  and  C_3
REMARK    3  A    between atoms: C_9  and  C_10
REMARK    4  A    between atoms: N_11  and  N_12
REMARK    5  A    between atoms: C_13  and  C_15
REMARK    6  A    between atoms: C_17  and  C_18
REMARK                            x       y       z     vdW  Elec       q    Type
REMARK                         _______ _______ _______ _____ _____    ______ ____
ROOT
ATOM      1  C   UNL     1       2.606   6.708  19.465  0.00  0.00    +0.000 A 
ATOM      2  N   UNL     1       3.635   6.863  18.546  0.00  0.00    +0.000 NA
ATOM      3  C   UNL     1       4.040   5.646  18.212  0.00  0.00    +0.000 A 
ATOM      4  N   UNL     1       3.343   4.698  18.955  0.00  0.00    +0.000 N 
ATOM      5  C   UNL     1       2.390   5.355  19.707  0.00  0.00    +0.000 A 
ATOM      6  C   UNL     1       1.376   4.685  20.589  0.00  0.00    +0.000 C 
ATOM      7  C   UNL     1       0.796   3.410  19.982  0.00  0.00    +0.000 C 
ATOM      8  C   UNL     1       1.674   2.179  20.198  0.00  0.00    +0.000 C 
ATOM      9  C   UNL     1       3.176   2.444  20.130  0.00  0.00    +0.000 C 
ATOM     10  C   UNL     1       3.574   3.261  18.908  0.00  0.00    +0.000 C 
ENDROOT
BRANCH   3  11
ATOM     11  C   UNL     1       5.100   5.366  17.221  0.00  0.00    +0.000 A 
ATOM     12  C   UNL     1       6.379   4.990  17.659  0.00  0.00    +0.000 A 
ATOM     13  C   UNL     1       7.397   4.704  16.743  0.00  0.00    +0.000 A 
ATOM     14  C   UNL     1       7.152   4.779  15.374  0.00  0.00    +0.000 A 
ATOM     15  C   UNL     1       5.896   5.164  14.919  0.00  0.00    +0.000 A 
ATOM     16  C   UNL     1       4.892   5.481  15.836  0.00  0.00    +0.000 A 
ENDBRANCH   3  11
BRANCH   1  18
ATOM     17  N   UNL     1       1.603   8.871  19.159  0.00  0.00    +0.000 N 
ATOM     18  C   UNL     1       1.872   7.843  20.053  0.00  0.00    +0.000 C 
ATOM     19  O   UNL     1       1.531   7.859  21.240  0.00  0.00    +0.000 OA
ATOM     20  H   UNL     1       1.919   8.788  18.199  0.00  0.00    +0.000 HD
BRANCH  17  22
ATOM     21  C   UNL     1      -0.325  10.112  19.225  0.00  0.00    +0.000 C 
ATOM     22  N   UNL     1       0.904   9.960  19.604  0.00  0.00    +0.000 NA
BRANCH  21  29
ATOM     23  C   UNL     1      -2.367  11.604  19.175  0.00  0.00    +0.000 A 
ATOM     24  C   UNL     1      -3.019  12.766  19.619  0.00  0.00    +0.000 A 
ATOM     25  C   UNL     1      -2.422  13.608  20.560  0.00  0.00    +0.000 A 
ATOM     26  C   UNL     1      -1.171  13.290  21.076  0.00  0.00    +0.000 A 
ATOM     27 BR   UNL     1      -0.383  14.412  22.377  0.00  0.00    +0.000 Br
ATOM     28  C   UNL     1      -0.503  12.148  20.644  0.00  0.00    +0.000 A 
ATOM     29  C   UNL     1      -1.095  11.302  19.689  0.00  0.00    +0.000 A 
BRANCH  23  31
ATOM     30  C   UNL     1      -3.365  11.275  17.040  0.00  0.00    +0.000 C 
ATOM     31  O   UNL     1      -2.915  10.724  18.276  0.00  0.00    +0.000 OA
ENDBRANCH  23  31
ENDBRANCH  21  29
ENDBRANCH  17  22
ENDBRANCH   1  18
TORSDOF 5
ENDMDL
MODEL 5
REMARK VINA RESULT:      -8.8      1.540      2.112
REMARK  Name = 
REMARK  6 active torsions:
REMARK  status: ('A' for Active; 'I' for Inactive)
REMARK    1  A    between atoms: C_1  and  O_2
REMARK    2  A    between atoms: O_2  and  C_3
REMARK    3  A    between atoms: C_9  and  C_10
REMARK    4  A    between atoms: N_11  and  N_12
REMARK    5  A    between atoms: C_13  and  C_15
REMARK    6  A    between atoms: C_17  and  C_18
REMARK                            x       y       z     vdW  Elec       q    Type
REMARK                         _______ _______ _______ _____ _____    ______ ____
ROOT
ATOM      1  C   UNL     1       7.134   6.302  17.453  0.00  0.00    +0.000 A 
ATOM      2  N   UNL     1       7.410   5.984  16.129  0.00  0.00    +0.000 NA
ATOM      3  C   UNL     1       6.445   5.175  15.718  0.00  0.00    +0.000 A 
ATOM      4  N   UNL     1       5.582   4.896  16.775  0.00  0.00    +0.000 N 
ATOM      5  C   UNL     1       5.974   5.653  17.861  0.00  0.00    +0.000 A 
ATOM      6  C   UNL     1       5.256   5.704  19.179  0.00  0.00    +0.000 C 
ATOM      7  C   UNL     1       3.736   5.711  19.039  0.00  0.00    +0.000 C 
ATOM      8  C   UNL     1       3.134   4.318  18.860  0.00  0.00    +0.000 C 
ATOM      9  C   UNL     1       3.975   3.361  18.019  0.00  0.00    +0.000 C 
ATOM     10  C   UNL     1       4.448   3.986  16.713  0.00  0.00    +0.000 C 
ENDROOT
BRANCH   3  11
ATOM     11  C   UNL     1       6.342   4.633  14.347  0.00  0.00    +0.000 A 
ATOM     12  C   UNL     1       7.385   4.851  13.434  0.00  0.00    +0.000 A 
ATOM     13  C   UNL     1       7.321   4.338  12.134  0.00  0.00    +0.000 A 
ATOM     14  C   UNL     1       6.220   3.588  11.728  0.00  0.00    +0.000 A 
ATOM     15  C   UNL     1       5.170   3.372  12.613  0.00  0.00    +0.000 A 
ATOM     16  C   UNL     1       5.221   3.916  13.898  0.00  0.00    +0.000 A 
ENDBRANCH   3  11
BRANCH   1  18
ATOM     17  N   UNL     1       8.069   8.499  17.738  0.00  0.00    +0.000 N 
ATOM     18  C   UNL     1       7.971   7.212  18.255  0.00  0.00    +0.000 C 
ATOM     19  O   UNL     1       8.527   6.847  19.294  0.00  0.00    +0.000 OA
ATOM     20  H   UNL     1       7.586   8.724  16.876  0.00  0.00    +0.000 HD
BRANCH  17  22
ATOM     21  C   UNL     1       8.878  10.633  17.964  0.00  0.00    +0.000 C 
ATOM     22  N   UNL     1       8.805   9.426  18.425  0.00  0.00    +0.000 NA
BRANCH  21  29
ATOM     23  C   UNL     1       9.643  11.767  20.092  0.00  0.00    +0.000 A 
ATOM     24  C   UNL     1      10.396  12.777  20.713  0.00  0.00    +0.000 A 
ATOM     25  C   UNL     1      11.184  13.651  19.959  0.00  0.00    +0.000 A 
ATOM     26  C   UNL     1      11.237  13.514  18.577  0.00  0.00    +0.000 A 
ATOM     27 BR   UNL     1      12.333  14.673  17.564  0.00  0.00    +0.000 Br
ATOM     28  C   UNL     1      10.493  12.526  17.940  0.00  0.00    +0.000 A 
ATOM     29  C   UNL     1       9.689  11.650  18.693  0.00  0.00    +0.000 A 
BRANCH  23  31
ATOM     30  C   UNL     1       8.428  11.263  22.075  0.00  0.00    +0.000 C 
ATOM     31  O   UNL     1       8.876  10.863  20.780  0.00  0.00    +0.000 OA
ENDBRANCH  23  31
ENDBRANCH  21  29
ENDBRANCH  17  22
ENDBRANCH   1  18
TORSDOF 5
ENDMDL
MODEL 6
REMARK VINA RESULT:      -8.7      5.953      7.314
REMARK  Name = 
REMARK  6 active torsions:
REMARK  status: ('A' for Active; 'I' for Inactive)
REMARK    1  A    between atoms: C_1  and  O_2
REMARK    2  A    between atoms: O_2  and  C_3
REMARK    3  A    between atoms: C_9  and  C_10
REMARK    4  A    between atoms: N_11  and  N_12
REMARK    5  A    between atoms: C_13  and  C_15
REMARK    6  A    between atoms: C_17  and  C_18
REMARK                            x       y       z     vdW  Elec       q    Type
REMARK                         _______ _______ _______ _____ _____    ______ ____
ROOT
ATOM      1  C   UNL     1       2.602   6.733  19.438  0.00  0.00    +0.000 A 
ATOM      2  N   UNL     1       3.627   6.839  18.506  0.00  0.00    +0.000 NA
ATOM      3  C   UNL     1       3.996   5.604  18.198  0.00  0.00    +0.000 A 
ATOM      4  N   UNL     1       3.281   4.692  18.970  0.00  0.00    +0.000 N 
ATOM      5  C   UNL     1       2.353   5.393  19.714  0.00  0.00    +0.000 A 
ATOM      6  C   UNL     1       1.330   4.772  20.621  0.00  0.00    +0.000 C 
ATOM      7  C   UNL     1       0.710   3.499  20.050  0.00  0.00    +0.000 C 
ATOM      8  C   UNL     1       1.557   2.250  20.288  0.00  0.00    +0.000 C 
ATOM      9  C   UNL     1       3.065   2.473  20.200  0.00  0.00    +0.000 C 
ATOM     10  C   UNL     1       3.473   3.249  18.955  0.00  0.00    +0.000 C 
ENDROOT
BRANCH   3  11
ATOM     11  C   UNL     1       5.039   5.272  17.204  0.00  0.00    +0.000 A 
ATOM     12  C   UNL     1       6.346   4.999  17.635  0.00  0.00    +0.000 A 
ATOM     13  C   UNL     1       7.349   4.667  16.718  0.00  0.00    +0.000 A 
ATOM     14  C   UNL     1       7.061   4.591  15.357  0.00  0.00    +0.000 A 
ATOM     15  C   UNL     1       5.776   4.873  14.909  0.00  0.00    +0.000 A 
ATOM     16  C   UNL     1       4.785   5.237  15.823  0.00  0.00    +0.000 A 
ENDBRANCH   3  11
BRANCH   1  18
ATOM     17  N   UNL     1       1.692   8.932  19.098  0.00  0.00    +0.000 N 
ATOM     18  C   UNL     1       1.904   7.901  20.004  0.00  0.00    +0.000 C 
ATOM     19  O   UNL     1       1.545   7.941  21.185  0.00  0.00    +0.000 OA
ATOM     20  H   UNL     1       2.019   8.829  18.144  0.00  0.00    +0.000 HD
BRANCH  17  22
ATOM     21  C   UNL     1       0.393  10.770  18.654  0.00  0.00    +0.000 C 
ATOM     22  N   UNL     1       1.029  10.052  19.523  0.00  0.00    +0.000 NA
BRANCH  21  29
ATOM     23  C   UNL     1       0.228  13.281  18.911  0.00  0.00    +0.000 A 
ATOM     24  C   UNL     1      -0.473  14.397  19.396  0.00  0.00    +0.000 A 
ATOM     25  C   UNL     1      -1.699  14.245  20.050  0.00  0.00    +0.000 A 
ATOM     26  C   UNL     1      -2.241  12.977  20.214  0.00  0.00    +0.000 A 
ATOM     27 BR   UNL     1      -3.917  12.779  21.065  0.00  0.00    +0.000 Br
ATOM     28  C   UNL     1      -1.560  11.856  19.748  0.00  0.00    +0.000 A 
ATOM     29  C   UNL     1      -0.320  12.001  19.099  0.00  0.00    +0.000 A 
BRANCH  23  31
ATOM     30  C   UNL     1       2.540  13.838  18.982  0.00  0.00    +0.000 C 
ATOM     31  O   UNL     1       1.419  13.369  18.236  0.00  0.00    +0.000 OA
ENDBRANCH  23  31
ENDBRANCH  21  29
ENDBRANCH  17  22
ENDBRANCH   1  18
TORSDOF 5
ENDMDL
MODEL 7
REMARK VINA RESULT:      -8.6      5.583      7.558
REMARK  Name = 
REMARK  6 active torsions:
REMARK  status: ('A' for Active; 'I' for Inactive)
REMARK    1  A    between atoms: C_1  and  O_2
REMARK    2  A    between atoms: O_2  and  C_3
REMARK    3  A    between atoms: C_9  and  C_10
REMARK    4  A    between atoms: N_11  and  N_12
REMARK    5  A    between atoms: C_13  and  C_15
REMARK    6  A    between atoms: C_17  and  C_18
REMARK                            x       y       z     vdW  Elec       q    Type
REMARK                         _______ _______ _______ _____ _____    ______ ____
ROOT
ATOM      1  C   UNL     1       2.835   6.325  18.667  0.00  0.00    +0.000 A 
ATOM      2  N   UNL     1       3.846   6.498  17.730  0.00  0.00    +0.000 NA
ATOM      3  C   UNL     1       4.180   5.291  17.296  0.00  0.00    +0.000 A 
ATOM      4  N   UNL     1       3.459   4.324  17.991  0.00  0.00    +0.000 N 
ATOM      5  C   UNL     1       2.561   4.969  18.818  0.00  0.00    +0.000 A 
ATOM      6  C   UNL     1       1.539   4.285  19.681  0.00  0.00    +0.000 C 
ATOM      7  C   UNL     1       0.881   3.086  19.002  0.00  0.00    +0.000 C 
ATOM      8  C   UNL     1       1.703   1.803  19.102  0.00  0.00    +0.000 C 
ATOM      9  C   UNL     1       3.214   2.001  19.006  0.00  0.00    +0.000 C 
ATOM     10  C   UNL     1       3.617   2.886  17.834  0.00  0.00    +0.000 C 
ENDROOT
BRANCH   3  11
ATOM     11  C   UNL     1       5.198   5.034  16.255  0.00  0.00    +0.000 A 
ATOM     12  C   UNL     1       4.811   4.467  15.031  0.00  0.00    +0.000 A 
ATOM     13  C   UNL     1       5.750   4.227  14.022  0.00  0.00    +0.000 A 
ATOM     14  C   UNL     1       7.089   4.560  14.215  0.00  0.00    +0.000 A 
ATOM     15  C   UNL     1       7.495   5.109  15.425  0.00  0.00    +0.000 A 
ATOM     16  C   UNL     1       6.561   5.315  16.443  0.00  0.00    +0.000 A 
ENDBRANCH   3  11
BRANCH   1  18
ATOM     17  N   UNL     1       1.910   8.540  18.542  0.00  0.00    +0.000 N 
ATOM     18  C   UNL     1       2.175   7.447  19.357  0.00  0.00    +0.000 C 
ATOM     19  O   UNL     1       1.887   7.400  20.557  0.00  0.00    +0.000 OA
ATOM     20  H   UNL     1       2.180   8.506  17.565  0.00  0.00    +0.000 HD
BRANCH  17  22
ATOM     21  C   UNL     1       0.108   9.955  18.636  0.00  0.00    +0.000 C 
ATOM     22  N   UNL     1       1.276   9.624  19.085  0.00  0.00    +0.000 NA
BRANCH  21  29
ATOM     23  C   UNL     1      -1.942  11.408  18.935  0.00  0.00    +0.000 A 
ATOM     24  C   UNL     1      -2.526  12.570  19.465  0.00  0.00    +0.000 A 
ATOM     25  C   UNL     1      -1.781  13.450  20.256  0.00  0.00    +0.000 A 
ATOM     26  C   UNL     1      -0.449  13.170  20.534  0.00  0.00    +0.000 A 
ATOM     27 BR   UNL     1       0.543  14.342  21.635  0.00  0.00    +0.000 Br
ATOM     28  C   UNL     1       0.152  12.028  20.012  0.00  0.00    +0.000 A 
ATOM     29  C   UNL     1      -0.589  11.144  19.207  0.00  0.00    +0.000 A 
BRANCH  23  31
ATOM     30  C   UNL     1      -3.980  10.817  17.859  0.00  0.00    +0.000 C 
ATOM     31  O   UNL     1      -2.628  10.493  18.178  0.00  0.00    +0.000 OA
ENDBRANCH  23  31
ENDBRANCH  21  29
ENDBRANCH  17  22
ENDBRANCH   1  18
TORSDOF 5
ENDMDL
MODEL 8
REMARK VINA RESULT:      -8.5      5.851      7.150
REMARK  Name = 
REMARK  6 active torsions:
REMARK  status: ('A' for Active; 'I' for Inactive)
REMARK    1  A    between atoms: C_1  and  O_2
REMARK    2  A    between atoms: O_2  and  C_3
REMARK    3  A    between atoms: C_9  and  C_10
REMARK    4  A    between atoms: N_11  and  N_12
REMARK    5  A    between atoms: C_13  and  C_15
REMARK    6  A    between atoms: C_17  and  C_18
REMARK                            x       y       z     vdW  Elec       q    Type
REMARK                         _______ _______ _______ _____ _____    ______ ____
ROOT
ATOM      1  C   UNL     1       2.515   6.803  19.409  0.00  0.00    +0.000 A 
ATOM      2  N   UNL     1       3.545   6.920  18.485  0.00  0.00    +0.000 NA
ATOM      3  C   UNL     1       3.992   5.695  18.249  0.00  0.00    +0.000 A 
ATOM      4  N   UNL     1       3.323   4.785  19.062  0.00  0.00    +0.000 N 
ATOM      5  C   UNL     1       2.343   5.467  19.756  0.00  0.00    +0.000 A 
ATOM      6  C   UNL     1       1.346   4.834  20.684  0.00  0.00    +0.000 C 
ATOM      7  C   UNL     1       0.813   3.496  20.176  0.00  0.00    +0.000 C 
ATOM      8  C   UNL     1       1.731   2.316  20.493  0.00  0.00    +0.000 C 
ATOM      9  C   UNL     1       3.223   2.626  20.409  0.00  0.00    +0.000 C 
ATOM     10  C   UNL     1       3.602   3.357  19.129  0.00  0.00    +0.000 C 
ENDROOT
BRANCH   3  11
ATOM     11  C   UNL     1       5.068   5.374  17.287  0.00  0.00    +0.000 A 
ATOM     12  C   UNL     1       6.370   5.139  17.754  0.00  0.00    +0.000 A 
ATOM     13  C   UNL     1       7.404   4.819  16.868  0.00  0.00    +0.000 A 
ATOM     14  C   UNL     1       7.152   4.716  15.502  0.00  0.00    +0.000 A 
ATOM     15  C   UNL     1       5.873   4.959  15.018  0.00  0.00    +0.000 A 
ATOM     16  C   UNL     1       4.851   5.312  15.900  0.00  0.00    +0.000 A 
ENDBRANCH   3  11
BRANCH   1  18
ATOM     17  N   UNL     1       1.449   8.903  18.930  0.00  0.00    +0.000 N 
ATOM     18  C   UNL     1       1.740   7.955  19.902  0.00  0.00    +0.000 C 
ATOM     19  O   UNL     1       1.386   8.050  21.082  0.00  0.00    +0.000 OA
ATOM     20  H   UNL     1       1.777   8.758  17.982  0.00  0.00    +0.000 HD
BRANCH  17  22
ATOM     21  C   UNL     1       1.227  10.866  20.095  0.00  0.00    +0.000 C 
ATOM     22  N   UNL     1       0.710  10.000  19.285  0.00  0.00    +0.000 NA
BRANCH  21  29
ATOM     23  C   UNL     1       1.036  13.200  21.054  0.00  0.00    +0.000 A 
ATOM     24  C   UNL     1       0.223  14.270  21.462  0.00  0.00    +0.000 A 
ATOM     25  C   UNL     1      -1.166  14.209  21.322  0.00  0.00    +0.000 A 
ATOM     26  C   UNL     1      -1.755  13.082  20.760  0.00  0.00    +0.000 A 
ATOM     27 BR   UNL     1      -3.630  13.019  20.537  0.00  0.00    +0.000 Br
ATOM     28  C   UNL     1      -0.969  12.007  20.356  0.00  0.00    +0.000 A 
ATOM     29  C   UNL     1       0.430  12.058  20.504  0.00  0.00    +0.000 A 
BRANCH  23  31
ATOM     30  C   UNL     1       3.083  14.171  20.327  0.00  0.00    +0.000 C 
ATOM     31  O   UNL     1       2.405  13.214  21.138  0.00  0.00    +0.000 OA
ENDBRANCH  23  31
ENDBRANCH  21  29
ENDBRANCH  17  22
ENDBRANCH   1  18
TORSDOF 5
ENDMDL
MODEL 9
REMARK VINA RESULT:      -8.5      5.747      7.203
REMARK  Name = 
REMARK  6 active torsions:
REMARK  status: ('A' for Active; 'I' for Inactive)
REMARK    1  A    between atoms: C_1  and  O_2
REMARK    2  A    between atoms: O_2  and  C_3
REMARK    3  A    between atoms: C_9  and  C_10
REMARK    4  A    between atoms: N_11  and  N_12
REMARK    5  A    between atoms: C_13  and  C_15
REMARK    6  A    between atoms: C_17  and  C_18
REMARK                            x       y       z     vdW  Elec       q    Type
REMARK                         _______ _______ _______ _____ _____    ______ ____
ROOT
ATOM      1  C   UNL     1       2.553   6.910  19.084  0.00  0.00    +0.000 A 
ATOM      2  N   UNL     1       3.561   6.907  18.129  0.00  0.00    +0.000 NA
ATOM      3  C   UNL     1       3.986   5.657  18.020  0.00  0.00    +0.000 A 
ATOM      4  N   UNL     1       3.325   4.853  18.945  0.00  0.00    +0.000 N 
ATOM      5  C   UNL     1       2.372   5.623  19.581  0.00  0.00    +0.000 A 
ATOM      6  C   UNL     1       1.391   5.114  20.597  0.00  0.00    +0.000 C 
ATOM      7  C   UNL     1       0.828   3.736  20.254  0.00  0.00    +0.000 C 
ATOM      8  C   UNL     1       1.737   2.584  20.678  0.00  0.00    +0.000 C 
ATOM      9  C   UNL     1       3.231   2.859  20.525  0.00  0.00    +0.000 C 
ATOM     10  C   UNL     1       3.587   3.438  19.163  0.00  0.00    +0.000 C 
ENDROOT
BRANCH   3  11
ATOM     11  C   UNL     1       5.033   5.214  17.075  0.00  0.00    +0.000 A 
ATOM     12  C   UNL     1       6.374   5.187  17.486  0.00  0.00    +0.000 A 
ATOM     13  C   UNL     1       7.383   4.759  16.618  0.00  0.00    +0.000 A 
ATOM     14  C   UNL     1       7.069   4.339  15.327  0.00  0.00    +0.000 A 
ATOM     15  C   UNL     1       5.748   4.372  14.896  0.00  0.00    +0.000 A 
ATOM     16  C   UNL     1       4.748   4.833  15.753  0.00  0.00    +0.000 A 
ENDBRANCH   3  11
BRANCH   1  18
ATOM     17  N   UNL     1       1.581   9.005  18.416  0.00  0.00    +0.000 N 
ATOM     18  C   UNL     1       1.805   8.122  19.465  0.00  0.00    +0.000 C 
ATOM     19  O   UNL     1       1.418   8.317  20.621  0.00  0.00    +0.000 OA
ATOM     20  H   UNL     1       1.934   8.777  17.493  0.00  0.00    +0.000 HD
BRANCH  17  22
ATOM     21  C   UNL     1       1.501  11.189  19.110  0.00  0.00    +0.000 C 
ATOM     22  N   UNL     1       0.873  10.149  18.663  0.00  0.00    +0.000 NA
BRANCH  21  29
ATOM     23  C   UNL     1      -0.447  12.423  20.150  0.00  0.00    +0.000 A 
ATOM     24  C   UNL     1      -1.140  13.628  20.348  0.00  0.00    +0.000 A 
ATOM     25  C   UNL     1      -0.659  14.828  19.816  0.00  0.00    +0.000 A 
ATOM     26  C   UNL     1       0.527  14.835  19.091  0.00  0.00    +0.000 A 
ATOM     27 BR   UNL     1       1.194  16.465  18.406  0.00  0.00    +0.000 Br
ATOM     28  C   UNL     1       1.226  13.651  18.876  0.00  0.00    +0.000 A 
ATOM     29  C   UNL     1       0.741  12.439  19.400  0.00  0.00    +0.000 A 
BRANCH  23  31
ATOM     30  C   UNL     1      -0.847  11.111  22.094  0.00  0.00    +0.000 C 
ATOM     31  O   UNL     1      -0.853  11.221  20.672  0.00  0.00    +0.000 OA
ENDBRANCH  23  31
ENDBRANCH  21  29
ENDBRANCH  17  22
ENDBRANCH   1  18
TORSDOF 5
ENDMDL
