MODEL 1
REMARK VINA RESULT:      -7.9      0.000      0.000
REMARK  Name = 
REMARK  7 active torsions:
REMARK  status: ('A' for Active; 'I' for Inactive)
REMARK    1  A    between atoms: C_1  and  C_2
REMARK    2  A    between atoms: C_5  and  C_6
REMARK    3  A    between atoms: C_13  and  C_14
REMARK    4  A    between atoms: C_14  and  O_15
REMARK    5  A    between atoms: O_15  and  C_16
REMARK    6  A    between atoms: C_19  and  C_20
REMARK    7  A    between atoms: C_20  and  O_22
REMARK                            x       y       z     vdW  Elec       q    Type
REMARK                         _______ _______ _______ _____ _____    ______ ____
ROOT
ATOM      1  C   UNL     1       1.853   3.328  21.719  0.00  0.00    +0.000 C 
ATOM      2  C   UNL     1       2.901   3.329  20.681  0.00  0.00    +0.000 A 
ATOM      3  O   UNL     1       3.827   2.342  20.755  0.00  0.00    +0.000 OA
ATOM      4  N   UNL     1       4.720   2.470  19.716  0.00  0.00    +0.000 NA
ATOM      5  C   UNL     1       4.345   3.552  19.014  0.00  0.00    +0.000 A 
ATOM      6  C   UNL     1       3.162   4.125  19.587  0.00  0.00    +0.000 A 
ENDROOT
BRANCH   5   7
ATOM      7  C   UNL     1       5.110   3.975  17.836  0.00  0.00    +0.000 A 
ATOM      8  C   UNL     1       4.565   3.841  16.548  0.00  0.00    +0.000 A 
ATOM      9  C   UNL     1       5.293   4.230  15.418  0.00  0.00    +0.000 A 
ATOM     10  C   UNL     1       6.572   4.760  15.566  0.00  0.00    +0.000 A 
ATOM     11 CL   UNL     1       7.476   5.228  14.180  0.00  0.00    +0.000 Cl
ATOM     12  C   UNL     1       7.131   4.898  16.833  0.00  0.00    +0.000 A 
ATOM     13  C   UNL     1       6.405   4.497  17.960  0.00  0.00    +0.000 A 
ENDBRANCH   5   7
BRANCH   6  14
ATOM     14  C   UNL     1       2.344   5.269  19.102  0.00  0.00    +0.000 C 
BRANCH  14  15
ATOM     15  O   UNL     1       3.132   6.463  18.990  0.00  0.00    +0.000 OA
BRANCH  15  16
ATOM     16  C   UNL     1       2.355   7.603  19.054  0.00  0.00    +0.000 A 
ATOM     17  C   UNL     1       2.177   8.321  17.880  0.00  0.00    +0.000 A 
ATOM     18  C   UNL     1       1.370   9.462  17.913  0.00  0.00    +0.000 A 
ATOM     19  C   UNL     1       0.777   9.844  19.120  0.00  0.00    +0.000 A 
ATOM     20  C   UNL     1       1.003   9.050  20.235  0.00  0.00    +0.000 A 
ATOM     21  N   UNL     1       1.790   7.948  20.228  0.00  0.00    +0.000 NA
BRANCH  19  22
ATOM     22  C   UNL     1      -0.120  11.002  19.276  0.00  0.00    +0.000 C 
ATOM     23  O   UNL     1      -0.536  11.366  20.363  0.00  0.00    +0.000 OA
BRANCH  22  24
ATOM     24  O   UNL     1      -0.409  11.648  18.126  0.00  0.00    +0.000 OA
ATOM     25  H   UNL     1      -1.130  12.302  18.176  0.00  0.00    +0.000 HD
ENDBRANCH  22  24
ENDBRANCH  19  22
ENDBRANCH  15  16
ENDBRANCH  14  15
ENDBRANCH   6  14
TORSDOF 6
ENDMDL
MODEL 2
REMARK VINA RESULT:      -7.8      0.412      1.068
REMARK  Name = 
REMARK  7 active torsions:
REMARK  status: ('A' for Active; 'I' for Inactive)
REMARK    1  A    between atoms: C_1  and  C_2
REMARK    2  A    between atoms: C_5  and  C_6
REMARK    3  A    between atoms: C_13  and  C_14
REMARK    4  A    between atoms: C_14  and  O_15
REMARK    5  A    between atoms: O_15  and  C_16
REMARK    6  A    between atoms: C_19  and  C_20
REMARK    7  A    between atoms: C_20  and  O_22
REMARK                            x       y       z     vdW  Elec       q    Type
REMARK                         _______ _______ _______ _____ _____    ______ ____
ROOT
ATOM      1  C   UNL     1       1.856   3.339  21.705  0.00  0.00    +0.000 C 
ATOM      2  C   UNL     1       2.894   3.320  20.656  0.00  0.00    +0.000 A 
ATOM      3  O   UNL     1       3.771   2.287  20.690  0.00  0.00    +0.000 OA
ATOM      4  N   UNL     1       4.660   2.403  19.647  0.00  0.00    +0.000 NA
ATOM      5  C   UNL     1       4.332   3.524  18.982  0.00  0.00    +0.000 A 
ATOM      6  C   UNL     1       3.184   4.136  19.584  0.00  0.00    +0.000 A 
ENDROOT
BRANCH   5   7
ATOM      7  C   UNL     1       5.107   3.945  17.809  0.00  0.00    +0.000 A 
ATOM      8  C   UNL     1       6.394   4.487  17.965  0.00  0.00    +0.000 A 
ATOM      9  C   UNL     1       7.136   4.903  16.853  0.00  0.00    +0.000 A 
ATOM     10  C   UNL     1       6.597   4.777  15.575  0.00  0.00    +0.000 A 
ATOM     11 CL   UNL     1       7.499   5.297  14.206  0.00  0.00    +0.000 Cl
ATOM     12  C   UNL     1       5.323   4.244  15.400  0.00  0.00    +0.000 A 
ATOM     13  C   UNL     1       4.580   3.841  16.514  0.00  0.00    +0.000 A 
ENDBRANCH   5   7
BRANCH   6  14
ATOM     14  C   UNL     1       2.420   5.333  19.142  0.00  0.00    +0.000 C 
BRANCH  14  15
ATOM     15  O   UNL     1       3.083   6.546  19.525  0.00  0.00    +0.000 OA
BRANCH  15  16
ATOM     16  C   UNL     1       2.288   7.657  19.320  0.00  0.00    +0.000 A 
ATOM     17  C   UNL     1       2.182   8.134  18.021  0.00  0.00    +0.000 A 
ATOM     18  C   UNL     1       1.360   9.239  17.782  0.00  0.00    +0.000 A 
ATOM     19  C   UNL     1       0.680   9.827  18.853  0.00  0.00    +0.000 A 
ATOM     20  C   UNL     1       0.839   9.265  20.111  0.00  0.00    +0.000 A 
ATOM     21  N   UNL     1       1.640   8.204  20.367  0.00  0.00    +0.000 NA
BRANCH  19  22
ATOM     22  C   UNL     1      -0.241  10.970  18.725  0.00  0.00    +0.000 C 
ATOM     23  O   UNL     1      -1.374  10.951  19.174  0.00  0.00    +0.000 OA
BRANCH  22  24
ATOM     24  O   UNL     1       0.286  12.050  18.109  0.00  0.00    +0.000 OA
ATOM     25  H   UNL     1       0.846  12.625  18.663  0.00  0.00    +0.000 HD
ENDBRANCH  22  24
ENDBRANCH  19  22
ENDBRANCH  15  16
ENDBRANCH  14  15
ENDBRANCH   6  14
TORSDOF 6
ENDMDL
MODEL 3
REMARK VINA RESULT:      -7.7      3.772      6.775
REMARK  Name = 
REMARK  7 active torsions:
REMARK  status: ('A' for Active; 'I' for Inactive)
REMARK    1  A    between atoms: C_1  and  C_2
REMARK    2  A    between atoms: C_5  and  C_6
REMARK    3  A    between atoms: C_13  and  C_14
REMARK    4  A    between atoms: C_14  and  O_15
REMARK    5  A    between atoms: O_15  and  C_16
REMARK    6  A    between atoms: C_19  and  C_20
REMARK    7  A    between atoms: C_20  and  O_22
REMARK                            x       y       z     vdW  Elec       q    Type
REMARK                         _______ _______ _______ _____ _____    ______ ____
ROOT
ATOM      1  C   UNL     1       3.828   1.835  17.844  0.00  0.00    +0.000 C 
ATOM      2  C   UNL     1       3.106   3.111  18.011  0.00  0.00    +0.000 A 
ATOM      3  O   UNL     1       1.884   3.195  17.433  0.00  0.00    +0.000 OA
ATOM      4  N   UNL     1       1.337   4.431  17.690  0.00  0.00    +0.000 NA
ATOM      5  C   UNL     1       2.239   5.110  18.418  0.00  0.00    +0.000 A 
ATOM      6  C   UNL     1       3.387   4.289  18.669  0.00  0.00    +0.000 A 
ENDROOT
BRANCH   5   7
ATOM      7  C   UNL     1       1.963   6.485  18.848  0.00  0.00    +0.000 A 
ATOM      8  C   UNL     1       1.970   7.537  17.917  0.00  0.00    +0.000 A 
ATOM      9  C   UNL     1       1.720   8.854  18.321  0.00  0.00    +0.000 A 
ATOM     10  C   UNL     1       1.457   9.129  19.661  0.00  0.00    +0.000 A 
ATOM     11 CL   UNL     1       1.161  10.747  20.165  0.00  0.00    +0.000 Cl
ATOM     12  C   UNL     1       1.447   8.101  20.599  0.00  0.00    +0.000 A 
ATOM     13  C   UNL     1       1.710   6.788  20.194  0.00  0.00    +0.000 A 
ENDBRANCH   5   7
BRANCH   6  14
ATOM     14  C   UNL     1       4.588   4.583  19.497  0.00  0.00    +0.000 C 
BRANCH  14  15
ATOM     15  O   UNL     1       5.350   5.666  18.944  0.00  0.00    +0.000 OA
BRANCH  15  16
ATOM     16  C   UNL     1       5.729   5.416  17.640  0.00  0.00    +0.000 A 
ATOM     17  C   UNL     1       5.150   6.194  16.647  0.00  0.00    +0.000 A 
ATOM     18  C   UNL     1       5.539   5.981  15.321  0.00  0.00    +0.000 A 
ATOM     19  C   UNL     1       6.490   4.995  15.039  0.00  0.00    +0.000 A 
ATOM     20  C   UNL     1       7.022   4.283  16.104  0.00  0.00    +0.000 A 
ATOM     21  N   UNL     1       6.650   4.464  17.393  0.00  0.00    +0.000 NA
BRANCH  19  22
ATOM     22  C   UNL     1       7.007   4.700  13.692  0.00  0.00    +0.000 C 
ATOM     23  O   UNL     1       7.801   5.429  13.122  0.00  0.00    +0.000 OA
BRANCH  22  24
ATOM     24  O   UNL     1       6.562   3.542  13.160  0.00  0.00    +0.000 OA
ATOM     25  H   UNL     1       5.872   3.078  13.670  0.00  0.00    +0.000 HD
ENDBRANCH  22  24
ENDBRANCH  19  22
ENDBRANCH  15  16
ENDBRANCH  14  15
ENDBRANCH   6  14
TORSDOF 6
ENDMDL
MODEL 4
REMARK VINA RESULT:      -7.6      4.681      7.495
REMARK  Name = 
REMARK  7 active torsions:
REMARK  status: ('A' for Active; 'I' for Inactive)
REMARK    1  A    between atoms: C_1  and  C_2
REMARK    2  A    between atoms: C_5  and  C_6
REMARK    3  A    between atoms: C_13  and  C_14
REMARK    4  A    between atoms: C_14  and  O_15
REMARK    5  A    between atoms: O_15  and  C_16
REMARK    6  A    between atoms: C_19  and  C_20
REMARK    7  A    between atoms: C_20  and  O_22
REMARK                            x       y       z     vdW  Elec       q    Type
REMARK                         _______ _______ _______ _____ _____    ______ ____
ROOT
ATOM      1  C   UNL     1       8.376   7.089  18.502  0.00  0.00    +0.000 C 
ATOM      2  C   UNL     1       7.260   6.180  18.827  0.00  0.00    +0.000 A 
ATOM      3  O   UNL     1       7.336   5.527  20.011  0.00  0.00    +0.000 OA
ATOM      4  N   UNL     1       6.222   4.736  20.173  0.00  0.00    +0.000 NA
ATOM      5  C   UNL     1       5.470   4.896  19.071  0.00  0.00    +0.000 A 
ATOM      6  C   UNL     1       6.089   5.837  18.185  0.00  0.00    +0.000 A 
ENDROOT
BRANCH   5   7
ATOM      7  C   UNL     1       4.205   4.168  18.924  0.00  0.00    +0.000 A 
ATOM      8  C   UNL     1       3.084   4.528  19.691  0.00  0.00    +0.000 A 
ATOM      9  C   UNL     1       1.876   3.831  19.566  0.00  0.00    +0.000 A 
ATOM     10  C   UNL     1       1.779   2.770  18.670  0.00  0.00    +0.000 A 
ATOM     11 CL   UNL     1       0.301   1.902  18.522  0.00  0.00    +0.000 Cl
ATOM     12  C   UNL     1       2.878   2.396  17.903  0.00  0.00    +0.000 A 
ATOM     13  C   UNL     1       4.087   3.087  18.039  0.00  0.00    +0.000 A 
ENDBRANCH   5   7
BRANCH   6  14
ATOM     14  C   UNL     1       5.584   6.387  16.898  0.00  0.00    +0.000 C 
BRANCH  14  15
ATOM     15  O   UNL     1       6.622   6.439  15.910  0.00  0.00    +0.000 OA
BRANCH  15  16
ATOM     16  C   UNL     1       6.456   5.474  14.936  0.00  0.00    +0.000 A 
ATOM     17  C   UNL     1       5.348   4.644  15.041  0.00  0.00    +0.000 A 
ATOM     18  C   UNL     1       5.142   3.679  14.052  0.00  0.00    +0.000 A 
ATOM     19  C   UNL     1       6.055   3.577  12.997  0.00  0.00    +0.000 A 
ATOM     20  C   UNL     1       7.121   4.464  12.973  0.00  0.00    +0.000 A 
ATOM     21  N   UNL     1       7.347   5.397  13.927  0.00  0.00    +0.000 NA
BRANCH  19  22
ATOM     22  C   UNL     1       5.929   2.627  11.878  0.00  0.00    +0.000 C 
ATOM     23  O   UNL     1       4.879   2.451  11.283  0.00  0.00    +0.000 OA
BRANCH  22  24
ATOM     24  O   UNL     1       7.076   2.000  11.541  0.00  0.00    +0.000 OA
ATOM     25  H   UNL     1       7.693   2.513  10.986  0.00  0.00    +0.000 HD
ENDBRANCH  22  24
ENDBRANCH  19  22
ENDBRANCH  15  16
ENDBRANCH  14  15
ENDBRANCH   6  14
TORSDOF 6
ENDMDL
MODEL 5
REMARK VINA RESULT:      -7.6      3.587      6.965
REMARK  Name = 
REMARK  7 active torsions:
REMARK  status: ('A' for Active; 'I' for Inactive)
REMARK    1  A    between atoms: C_1  and  C_2
REMARK    2  A    between atoms: C_5  and  C_6
REMARK    3  A    between atoms: C_13  and  C_14
REMARK    4  A    between atoms: C_14  and  O_15
REMARK    5  A    between atoms: O_15  and  C_16
REMARK    6  A    between atoms: C_19  and  C_20
REMARK    7  A    between atoms: C_20  and  O_22
REMARK                            x       y       z     vdW  Elec       q    Type
REMARK                         _______ _______ _______ _____ _____    ______ ____
ROOT
ATOM      1  C   UNL     1       4.205   2.301  20.006  0.00  0.00    +0.000 C 
ATOM      2  C   UNL     1       3.414   3.544  19.922  0.00  0.00    +0.000 A 
ATOM      3  O   UNL     1       2.109   3.456  20.278  0.00  0.00    +0.000 OA
ATOM      4  N   UNL     1       1.516   4.692  20.160  0.00  0.00    +0.000 NA
ATOM      5  C   UNL     1       2.463   5.535  19.714  0.00  0.00    +0.000 A 
ATOM      6  C   UNL     1       3.709   4.843  19.569  0.00  0.00    +0.000 A 
ENDROOT
BRANCH   5   7
ATOM      7  C   UNL     1       2.144   6.946  19.468  0.00  0.00    +0.000 A 
ATOM      8  C   UNL     1       1.570   7.732  20.481  0.00  0.00    +0.000 A 
ATOM      9  C   UNL     1       1.251   9.076  20.250  0.00  0.00    +0.000 A 
ATOM     10  C   UNL     1       1.507   9.645  19.006  0.00  0.00    +0.000 A 
ATOM     11 CL   UNL     1       1.106  11.292  18.713  0.00  0.00    +0.000 Cl
ATOM     12  C   UNL     1       2.073   8.882  17.989  0.00  0.00    +0.000 A 
ATOM     13  C   UNL     1       2.379   7.537  18.219  0.00  0.00    +0.000 A 
ENDBRANCH   5   7
BRANCH   6  14
ATOM     14  C   UNL     1       5.044   5.382  19.191  0.00  0.00    +0.000 C 
BRANCH  14  15
ATOM     15  O   UNL     1       5.937   4.333  18.793  0.00  0.00    +0.000 OA
BRANCH  15  16
ATOM     16  C   UNL     1       6.212   4.375  17.440  0.00  0.00    +0.000 A 
ATOM     17  C   UNL     1       5.195   4.009  16.570  0.00  0.00    +0.000 A 
ATOM     18  C   UNL     1       5.440   4.072  15.195  0.00  0.00    +0.000 A 
ATOM     19  C   UNL     1       6.694   4.493  14.744  0.00  0.00    +0.000 A 
ATOM     20  C   UNL     1       7.639   4.852  15.694  0.00  0.00    +0.000 A 
ATOM     21  N   UNL     1       7.428   4.787  17.029  0.00  0.00    +0.000 NA
BRANCH  19  22
ATOM     22  C   UNL     1       7.063   4.634  13.324  0.00  0.00    +0.000 C 
ATOM     23  O   UNL     1       6.638   3.886  12.460  0.00  0.00    +0.000 OA
BRANCH  22  24
ATOM     24  O   UNL     1       7.873   5.680  13.056  0.00  0.00    +0.000 OA
ATOM     25  H   UNL     1       8.766   5.455  12.735  0.00  0.00    +0.000 HD
ENDBRANCH  22  24
ENDBRANCH  19  22
ENDBRANCH  15  16
ENDBRANCH  14  15
ENDBRANCH   6  14
TORSDOF 6
ENDMDL
MODEL 6
REMARK VINA RESULT:      -7.6      1.871      1.994
REMARK  Name = 
REMARK  7 active torsions:
REMARK  status: ('A' for Active; 'I' for Inactive)
REMARK    1  A    between atoms: C_1  and  C_2
REMARK    2  A    between atoms: C_5  and  C_6
REMARK    3  A    between atoms: C_13  and  C_14
REMARK    4  A    between atoms: C_14  and  O_15
REMARK    5  A    between atoms: O_15  and  C_16
REMARK    6  A    between atoms: C_19  and  C_20
REMARK    7  A    between atoms: C_20  and  O_22
REMARK                            x       y       z     vdW  Elec       q    Type
REMARK                         _______ _______ _______ _____ _____    ______ ____
ROOT
ATOM      1  C   UNL     1       0.474   2.402  18.969  0.00  0.00    +0.000 C 
ATOM      2  C   UNL     1       1.717   3.025  18.474  0.00  0.00    +0.000 A 
ATOM      3  O   UNL     1       2.322   2.419  17.425  0.00  0.00    +0.000 OA
ATOM      4  N   UNL     1       3.451   3.123  17.074  0.00  0.00    +0.000 NA
ATOM      5  C   UNL     1       3.543   4.157  17.927  0.00  0.00    +0.000 A 
ATOM      6  C   UNL     1       2.432   4.147  18.834  0.00  0.00    +0.000 A 
ENDROOT
BRANCH   5   7
ATOM      7  C   UNL     1       4.659   5.103  17.829  0.00  0.00    +0.000 A 
ATOM      8  C   UNL     1       4.681   6.075  16.815  0.00  0.00    +0.000 A 
ATOM      9  C   UNL     1       5.748   6.974  16.706  0.00  0.00    +0.000 A 
ATOM     10  C   UNL     1       6.802   6.911  17.614  0.00  0.00    +0.000 A 
ATOM     11 CL   UNL     1       8.123   8.005  17.478  0.00  0.00    +0.000 Cl
ATOM     12  C   UNL     1       6.801   5.954  18.625  0.00  0.00    +0.000 A 
ATOM     13  C   UNL     1       5.738   5.050  18.723  0.00  0.00    +0.000 A 
ENDBRANCH   5   7
BRANCH   6  14
ATOM     14  C   UNL     1       2.070   5.137  19.884  0.00  0.00    +0.000 C 
BRANCH  14  15
ATOM     15  O   UNL     1       2.932   6.282  19.841  0.00  0.00    +0.000 OA
BRANCH  15  16
ATOM     16  C   UNL     1       2.227   7.451  19.633  0.00  0.00    +0.000 A 
ATOM     17  C   UNL     1       2.240   7.985  18.352  0.00  0.00    +0.000 A 
ATOM     18  C   UNL     1       1.509   9.152  18.109  0.00  0.00    +0.000 A 
ATOM     19  C   UNL     1       0.798   9.743  19.158  0.00  0.00    +0.000 A 
ATOM     20  C   UNL     1       0.836   9.123  20.398  0.00  0.00    +0.000 A 
ATOM     21  N   UNL     1       1.546   8.001  20.659  0.00  0.00    +0.000 NA
BRANCH  19  22
ATOM     22  C   UNL     1      -0.035  10.950  19.021  0.00  0.00    +0.000 C 
ATOM     23  O   UNL     1      -0.245  11.709  19.952  0.00  0.00    +0.000 OA
BRANCH  22  24
ATOM     24  O   UNL     1      -0.510  11.166  17.776  0.00  0.00    +0.000 OA
ATOM     25  H   UNL     1      -0.132  10.606  17.073  0.00  0.00    +0.000 HD
ENDBRANCH  22  24
ENDBRANCH  19  22
ENDBRANCH  15  16
ENDBRANCH  14  15
ENDBRANCH   6  14
TORSDOF 6
ENDMDL
MODEL 7
REMARK VINA RESULT:      -7.6      0.822      1.743
REMARK  Name = 
REMARK  7 active torsions:
REMARK  status: ('A' for Active; 'I' for Inactive)
REMARK    1  A    between atoms: C_1  and  C_2
REMARK    2  A    between atoms: C_5  and  C_6
REMARK    3  A    between atoms: C_13  and  C_14
REMARK    4  A    between atoms: C_14  and  O_15
REMARK    5  A    between atoms: O_15  and  C_16
REMARK    6  A    between atoms: C_19  and  C_20
REMARK    7  A    between atoms: C_20  and  O_22
REMARK                            x       y       z     vdW  Elec       q    Type
REMARK                         _______ _______ _______ _____ _____    ______ ____
ROOT
ATOM      1  C   UNL     1       1.823   3.359  21.629  0.00  0.00    +0.000 C 
ATOM      2  C   UNL     1       2.891   3.357  20.610  0.00  0.00    +0.000 A 
ATOM      3  O   UNL     1       3.856   2.416  20.746  0.00  0.00    +0.000 OA
ATOM      4  N   UNL     1       4.763   2.535  19.718  0.00  0.00    +0.000 NA
ATOM      5  C   UNL     1       4.356   3.566  18.960  0.00  0.00    +0.000 A 
ATOM      6  C   UNL     1       3.139   4.112  19.484  0.00  0.00    +0.000 A 
ENDROOT
BRANCH   5   7
ATOM      7  C   UNL     1       5.125   3.966  17.777  0.00  0.00    +0.000 A 
ATOM      8  C   UNL     1       6.420   4.494  17.916  0.00  0.00    +0.000 A 
ATOM      9  C   UNL     1       7.157   4.890  16.793  0.00  0.00    +0.000 A 
ATOM     10  C   UNL     1       6.605   4.759  15.521  0.00  0.00    +0.000 A 
ATOM     11 CL   UNL     1       7.501   5.256  14.139  0.00  0.00    +0.000 Cl
ATOM     12  C   UNL     1       5.323   4.241  15.363  0.00  0.00    +0.000 A 
ATOM     13  C   UNL     1       4.585   3.858  16.487  0.00  0.00    +0.000 A 
ENDBRANCH   5   7
BRANCH   6  14
ATOM     14  C   UNL     1       2.282   5.196  18.931  0.00  0.00    +0.000 C 
BRANCH  14  15
ATOM     15  O   UNL     1       2.961   6.460  18.954  0.00  0.00    +0.000 OA
BRANCH  15  16
ATOM     16  C   UNL     1       2.156   7.469  19.447  0.00  0.00    +0.000 A 
ATOM     17  C   UNL     1       1.670   7.323  20.739  0.00  0.00    +0.000 A 
ATOM     18  C   UNL     1       0.878   8.345  21.272  0.00  0.00    +0.000 A 
ATOM     19  C   UNL     1       0.598   9.469  20.490  0.00  0.00    +0.000 A 
ATOM     20  C   UNL     1       1.145   9.527  19.216  0.00  0.00    +0.000 A 
ATOM     21  N   UNL     1       1.904   8.545  18.676  0.00  0.00    +0.000 NA
BRANCH  19  22
ATOM     22  C   UNL     1      -0.192  10.625  20.949  0.00  0.00    +0.000 C 
ATOM     23  O   UNL     1      -0.412  11.591  20.238  0.00  0.00    +0.000 OA
BRANCH  22  24
ATOM     24  O   UNL     1      -0.684  10.508  22.201  0.00  0.00    +0.000 OA
ATOM     25  H   UNL     1      -1.576  10.876  22.343  0.00  0.00    +0.000 HD
ENDBRANCH  22  24
ENDBRANCH  19  22
ENDBRANCH  15  16
ENDBRANCH  14  15
ENDBRANCH   6  14
TORSDOF 6
ENDMDL
MODEL 8
REMARK VINA RESULT:      -7.5      0.823      1.447
REMARK  Name = 
REMARK  7 active torsions:
REMARK  status: ('A' for Active; 'I' for Inactive)
REMARK    1  A    between atoms: C_1  and  C_2
REMARK    2  A    between atoms: C_5  and  C_6
REMARK    3  A    between atoms: C_13  and  C_14
REMARK    4  A    between atoms: C_14  and  O_15
REMARK    5  A    between atoms: O_15  and  C_16
REMARK    6  A    between atoms: C_19  and  C_20
REMARK    7  A    between atoms: C_20  and  O_22
REMARK                            x       y       z     vdW  Elec       q    Type
REMARK                         _______ _______ _______ _____ _____    ______ ____
ROOT
ATOM      1  C   UNL     1       1.878   4.035  21.086  0.00  0.00    +0.000 C 
ATOM      2  C   UNL     1       2.972   3.945  20.101  0.00  0.00    +0.000 A 
ATOM      3  O   UNL     1       3.940   3.031  20.352  0.00  0.00    +0.000 OA
ATOM      4  N   UNL     1       4.874   3.059  19.342  0.00  0.00    +0.000 NA
ATOM      5  C   UNL     1       4.479   4.008  18.476  0.00  0.00    +0.000 A 
ATOM      6  C   UNL     1       3.245   4.591  18.913  0.00  0.00    +0.000 A 
ENDROOT
BRANCH   5   7
ATOM      7  C   UNL     1       5.277   4.299  17.280  0.00  0.00    +0.000 A 
ATOM      8  C   UNL     1       6.423   5.108  17.370  0.00  0.00    +0.000 A 
ATOM      9  C   UNL     1       7.184   5.401  16.232  0.00  0.00    +0.000 A 
ATOM     10  C   UNL     1       6.806   4.887  14.994  0.00  0.00    +0.000 A 
ATOM     11 CL   UNL     1       7.729   5.255  13.591  0.00  0.00    +0.000 Cl
ATOM     12  C   UNL     1       5.672   4.086  14.884  0.00  0.00    +0.000 A 
ATOM     13  C   UNL     1       4.908   3.804  16.022  0.00  0.00    +0.000 A 
ENDBRANCH   5   7
BRANCH   6  14
ATOM     14  C   UNL     1       2.396   5.607  18.236  0.00  0.00    +0.000 C 
BRANCH  14  15
ATOM     15  O   UNL     1       3.028   6.895  18.232  0.00  0.00    +0.000 OA
BRANCH  15  16
ATOM     16  C   UNL     1       2.219   7.869  18.784  0.00  0.00    +0.000 A 
ATOM     17  C   UNL     1       1.709   8.835  17.928  0.00  0.00    +0.000 A 
ATOM     18  C   UNL     1       0.863   9.815  18.457  0.00  0.00    +0.000 A 
ATOM     19  C   UNL     1       0.564   9.793  19.823  0.00  0.00    +0.000 A 
ATOM     20  C   UNL     1       1.111   8.775  20.591  0.00  0.00    +0.000 A 
ATOM     21  N   UNL     1       1.942   7.825  20.102  0.00  0.00    +0.000 NA
BRANCH  19  22
ATOM     22  C   UNL     1      -0.338  10.746  20.492  0.00  0.00    +0.000 C 
ATOM     23  O   UNL     1      -1.080  11.489  19.873  0.00  0.00    +0.000 OA
BRANCH  22  24
ATOM     24  O   UNL     1      -0.305  10.699  21.841  0.00  0.00    +0.000 OA
ATOM     25  H   UNL     1      -0.669  11.477  22.302  0.00  0.00    +0.000 HD
ENDBRANCH  22  24
ENDBRANCH  19  22
ENDBRANCH  15  16
ENDBRANCH  14  15
ENDBRANCH   6  14
TORSDOF 6
ENDMDL
MODEL 9
REMARK VINA RESULT:      -7.5      3.734      6.808
REMARK  Name = 
REMARK  7 active torsions:
REMARK  status: ('A' for Active; 'I' for Inactive)
REMARK    1  A    between atoms: C_1  and  C_2
REMARK    2  A    between atoms: C_5  and  C_6
REMARK    3  A    between atoms: C_13  and  C_14
REMARK    4  A    between atoms: C_14  and  O_15
REMARK    5  A    between atoms: O_15  and  C_16
REMARK    6  A    between atoms: C_19  and  C_20
REMARK    7  A    between atoms: C_20  and  O_22
REMARK                            x       y       z     vdW  Elec       q    Type
REMARK                         _______ _______ _______ _____ _____    ______ ____
ROOT
ATOM      1  C   UNL     1       4.044   1.739  18.323  0.00  0.00    +0.000 C 
ATOM      2  C   UNL     1       3.270   2.984  18.494  0.00  0.00    +0.000 A 
ATOM      3  O   UNL     1       1.968   2.943  18.121  0.00  0.00    +0.000 OA
ATOM      4  N   UNL     1       1.383   4.166  18.354  0.00  0.00    +0.000 NA
ATOM      5  C   UNL     1       2.341   4.963  18.858  0.00  0.00    +0.000 A 
ATOM      6  C   UNL     1       3.569   4.235  18.988  0.00  0.00    +0.000 A 
ENDROOT
BRANCH   5   7
ATOM      7  C   UNL     1       2.041   6.356  19.204  0.00  0.00    +0.000 A 
ATOM      8  C   UNL     1       1.632   6.694  20.506  0.00  0.00    +0.000 A 
ATOM      9  C   UNL     1       1.331   8.019  20.842  0.00  0.00    +0.000 A 
ATOM     10  C   UNL     1       1.440   9.019  19.879  0.00  0.00    +0.000 A 
ATOM     11 CL   UNL     1       1.060  10.647  20.283  0.00  0.00    +0.000 Cl
ATOM     12  C   UNL     1       1.841   8.705  18.584  0.00  0.00    +0.000 A 
ATOM     13  C   UNL     1       2.129   7.378  18.249  0.00  0.00    +0.000 A 
ENDBRANCH   5   7
BRANCH   6  14
ATOM     14  C   UNL     1       4.863   4.676  19.575  0.00  0.00    +0.000 C 
BRANCH  14  15
ATOM     15  O   UNL     1       5.418   5.779  18.845  0.00  0.00    +0.000 OA
BRANCH  15  16
ATOM     16  C   UNL     1       5.736   5.431  17.547  0.00  0.00    +0.000 A 
ATOM     17  C   UNL     1       5.055   6.081  16.527  0.00  0.00    +0.000 A 
ATOM     18  C   UNL     1       5.379   5.769  15.204  0.00  0.00    +0.000 A 
ATOM     19  C   UNL     1       6.368   4.813  14.951  0.00  0.00    +0.000 A 
ATOM     20  C   UNL     1       7.002   4.232  16.039  0.00  0.00    +0.000 A 
ATOM     21  N   UNL     1       6.695   4.511  17.328  0.00  0.00    +0.000 NA
BRANCH  19  22
ATOM     22  C   UNL     1       6.823   4.424  13.605  0.00  0.00    +0.000 C 
ATOM     23  O   UNL     1       7.568   5.122  12.939  0.00  0.00    +0.000 OA
BRANCH  22  24
ATOM     24  O   UNL     1       6.381   3.217  13.191  0.00  0.00    +0.000 OA
ATOM     25  H   UNL     1       5.524   2.930  13.556  0.00  0.00    +0.000 HD
ENDBRANCH  22  24
ENDBRANCH  19  22
ENDBRANCH  15  16
ENDBRANCH  14  15
ENDBRANCH   6  14
TORSDOF 6
ENDMDL
