MODEL 1
REMARK VINA RESULT:      -9.3      0.000      0.000
REMARK  Name = 
REMARK  3 active torsions:
REMARK  status: ('A' for Active; 'I' for Inactive)
REMARK    1  A    between atoms: C_2  and  C_3
REMARK    2  A    between atoms: N_10  and  C_11
REMARK    3  A    between atoms: C_11  and  C_12
REMARK                            x       y       z     vdW  Elec       q    Type
REMARK                         _______ _______ _______ _____ _____    ______ ____
ROOT
ATOM      1  O   UNL     1       3.395   7.805  17.108  0.00  0.00    +0.000 OA
ATOM      2  C   UNL     1       2.831   7.504  18.160  0.00  0.00    +0.000 C 
ATOM      3  N   UNL     1       2.095   8.468  18.873  0.00  0.00    +0.000 N 
ATOM      4  C   UNL     1       1.483   8.240  20.198  0.00  0.00    +0.000 C 
ATOM      5  C   UNL     1       1.158   9.530  20.977  0.00  0.00    +0.000 C 
ATOM      6  N   UNL     1       0.370  10.401  20.104  0.00  0.00    +0.000 N 
ATOM      7  C   UNL     1      -0.664  11.130  20.615  0.00  0.00    +0.000 A 
ATOM      8  N   UNL     1      -0.941  11.241  21.897  0.00  0.00    +0.000 NA
ATOM      9  C   UNL     1      -2.078  12.012  22.104  0.00  0.00    +0.000 A 
ATOM     10  C   UNL     1      -2.637  12.376  23.349  0.00  0.00    +0.000 A 
ATOM     11  C   UNL     1      -3.794  13.168  23.393  0.00  0.00    +0.000 A 
ATOM     12  C   UNL     1      -4.412  13.580  22.218  0.00  0.00    +0.000 A 
ATOM     13  C   UNL     1      -3.885  13.226  20.974  0.00  0.00    +0.000 A 
ATOM     14  C   UNL     1      -2.710  12.455  20.944  0.00  0.00    +0.000 A 
ATOM     15  S   UNL     1      -1.820  11.913  19.587  0.00  0.00    +0.000 S 
ATOM     16  C   UNL     1       1.090  10.800  18.891  0.00  0.00    +0.000 C 
ATOM     17  C   UNL     1       1.502   9.556  18.080  0.00  0.00    +0.000 C 
ENDROOT
BRANCH   2  18
ATOM     18  C   UNL     1       2.883   6.133  18.676  0.00  0.00    +0.000 A 
ATOM     19  C   UNL     1       1.806   5.306  18.969  0.00  0.00    +0.000 A 
ATOM     20  C   UNL     1       2.329   4.118  19.529  0.00  0.00    +0.000 A 
ATOM     21  S   UNL     1       1.755   2.666  20.268  0.00  0.00    +0.000 S 
ATOM     22  C   UNL     1       3.374   2.117  20.422  0.00  0.00    +0.000 A 
ATOM     23  C   UNL     1       4.316   2.979  19.899  0.00  0.00    +0.000 A 
ATOM     24  C   UNL     1       3.683   4.163  19.423  0.00  0.00    +0.000 A 
ATOM     25  N   UNL     1       4.034   5.373  18.847  0.00  0.00    +0.000 N 
BRANCH  25  26
ATOM     26  C   UNL     1       5.410   5.697  18.496  0.00  0.00    +0.000 C 
BRANCH  26  27
ATOM     27  C   UNL     1       5.780   5.182  17.126  0.00  0.00    +0.000 A 
ATOM     28  C   UNL     1       7.065   5.389  16.597  0.00  0.00    +0.000 A 
ATOM     29  C   UNL     1       7.381   4.955  15.308  0.00  0.00    +0.000 A 
ATOM     30  C   UNL     1       6.417   4.305  14.551  0.00  0.00    +0.000 A 
ATOM     31  F   UNL     1       6.714   3.902  13.309  0.00  0.00    +0.000 F 
ATOM     32  C   UNL     1       5.147   4.066  15.061  0.00  0.00    +0.000 A 
ATOM     33  C   UNL     1       4.829   4.503  16.349  0.00  0.00    +0.000 A 
ENDBRANCH  26  27
ENDBRANCH  25  26
ENDBRANCH   2  18
TORSDOF 3
ENDMDL
MODEL 2
REMARK VINA RESULT:      -9.0      1.721      2.092
REMARK  Name = 
REMARK  3 active torsions:
REMARK  status: ('A' for Active; 'I' for Inactive)
REMARK    1  A    between atoms: C_2  and  C_3
REMARK    2  A    between atoms: N_10  and  C_11
REMARK    3  A    between atoms: C_11  and  C_12
REMARK                            x       y       z     vdW  Elec       q    Type
REMARK                         _______ _______ _______ _____ _____    ______ ____
ROOT
ATOM      1  O   UNL     1       3.015   7.712  17.275  0.00  0.00    +0.000 OA
ATOM      2  C   UNL     1       2.515   7.509  18.382  0.00  0.00    +0.000 C 
ATOM      3  N   UNL     1       1.809   8.533  19.041  0.00  0.00    +0.000 N 
ATOM      4  C   UNL     1       1.276   8.430  20.414  0.00  0.00    +0.000 C 
ATOM      5  C   UNL     1       0.981   9.787  21.084  0.00  0.00    +0.000 C 
ATOM      6  N   UNL     1       0.135  10.565  20.179  0.00  0.00    +0.000 N 
ATOM      7  C   UNL     1      -0.876  11.334  20.676  0.00  0.00    +0.000 A 
ATOM      8  N   UNL     1      -1.082  11.565  21.956  0.00  0.00    +0.000 NA
ATOM      9  C   UNL     1      -2.214  12.346  22.153  0.00  0.00    +0.000 A 
ATOM     10  C   UNL     1      -2.706  12.825  23.388  0.00  0.00    +0.000 A 
ATOM     11  C   UNL     1      -3.867  13.610  23.423  0.00  0.00    +0.000 A 
ATOM     12  C   UNL     1      -4.556  13.903  22.251  0.00  0.00    +0.000 A 
ATOM     13  C   UNL     1      -4.096  13.436  21.019  0.00  0.00    +0.000 A 
ATOM     14  C   UNL     1      -2.915  12.672  20.995  0.00  0.00    +0.000 A 
ATOM     15  S   UNL     1      -2.098  12.007  19.647  0.00  0.00    +0.000 S 
ATOM     16  C   UNL     1       0.781  10.850  18.894  0.00  0.00    +0.000 C 
ATOM     17  C   UNL     1       1.161   9.536  18.183  0.00  0.00    +0.000 C 
ENDROOT
BRANCH   2  18
ATOM     18  C   UNL     1       2.612   6.195  19.022  0.00  0.00    +0.000 A 
ATOM     19  C   UNL     1       1.783   5.680  20.012  0.00  0.00    +0.000 A 
ATOM     20  C   UNL     1       2.312   4.426  20.392  0.00  0.00    +0.000 A 
ATOM     21  S   UNL     1       2.029   3.201  21.577  0.00  0.00    +0.000 S 
ATOM     22  C   UNL     1       3.301   2.268  20.900  0.00  0.00    +0.000 A 
ATOM     23  C   UNL     1       3.895   2.840  19.793  0.00  0.00    +0.000 A 
ATOM     24  C   UNL     1       3.328   4.122  19.543  0.00  0.00    +0.000 A 
ATOM     25  N   UNL     1       3.486   5.178  18.659  0.00  0.00    +0.000 N 
BRANCH  25  26
ATOM     26  C   UNL     1       4.427   5.127  17.549  0.00  0.00    +0.000 C 
BRANCH  26  27
ATOM     27  C   UNL     1       5.720   5.836  17.873  0.00  0.00    +0.000 A 
ATOM     28  C   UNL     1       6.552   5.385  18.913  0.00  0.00    +0.000 A 
ATOM     29  C   UNL     1       7.719   6.078  19.240  0.00  0.00    +0.000 A 
ATOM     30  C   UNL     1       8.062   7.216  18.524  0.00  0.00    +0.000 A 
ATOM     31  F   UNL     1       9.173   7.890  18.847  0.00  0.00    +0.000 F 
ATOM     32  C   UNL     1       7.269   7.666  17.476  0.00  0.00    +0.000 A 
ATOM     33  C   UNL     1       6.100   6.976  17.149  0.00  0.00    +0.000 A 
ENDBRANCH  26  27
ENDBRANCH  25  26
ENDBRANCH   2  18
TORSDOF 3
ENDMDL
MODEL 3
REMARK VINA RESULT:      -8.5      1.445      1.867
REMARK  Name = 
REMARK  3 active torsions:
REMARK  status: ('A' for Active; 'I' for Inactive)
REMARK    1  A    between atoms: C_2  and  C_3
REMARK    2  A    between atoms: N_10  and  C_11
REMARK    3  A    between atoms: C_11  and  C_12
REMARK                            x       y       z     vdW  Elec       q    Type
REMARK                         _______ _______ _______ _____ _____    ______ ____
ROOT
ATOM      1  O   UNL     1       2.913   8.287  18.297  0.00  0.00    +0.000 OA
ATOM      2  C   UNL     1       2.197   7.908  19.224  0.00  0.00    +0.000 C 
ATOM      3  N   UNL     1       1.431   8.834  19.956  0.00  0.00    +0.000 N 
ATOM      4  C   UNL     1       0.636   8.500  21.154  0.00  0.00    +0.000 C 
ATOM      5  C   UNL     1       0.288   9.710  22.042  0.00  0.00    +0.000 C 
ATOM      6  N   UNL     1      -0.324  10.734  21.195  0.00  0.00    +0.000 N 
ATOM      7  C   UNL     1      -1.372  11.474  21.661  0.00  0.00    +0.000 A 
ATOM      8  N   UNL     1      -1.810  11.454  22.902  0.00  0.00    +0.000 NA
ATOM      9  C   UNL     1      -2.917  12.279  23.061  0.00  0.00    +0.000 A 
ATOM     10  C   UNL     1      -3.614  12.535  24.262  0.00  0.00    +0.000 A 
ATOM     11  C   UNL     1      -4.717  13.401  24.261  0.00  0.00    +0.000 A 
ATOM     12  C   UNL     1      -5.148  13.993  23.080  0.00  0.00    +0.000 A 
ATOM     13  C   UNL     1      -4.483  13.750  21.877  0.00  0.00    +0.000 A 
ATOM     14  C   UNL     1      -3.361  12.901  21.897  0.00  0.00    +0.000 A 
ATOM     15  S   UNL     1      -2.332  12.456  20.603  0.00  0.00    +0.000 S 
ATOM     16  C   UNL     1       0.573  11.217  20.142  0.00  0.00    +0.000 C 
ATOM     17  C   UNL     1       1.015  10.049  19.238  0.00  0.00    +0.000 C 
ENDROOT
BRANCH   2  18
ATOM     18  C   UNL     1       2.099   6.487  19.565  0.00  0.00    +0.000 A 
ATOM     19  C   UNL     1       1.455   5.929  20.663  0.00  0.00    +0.000 A 
ATOM     20  C   UNL     1       1.703   4.538  20.634  0.00  0.00    +0.000 A 
ATOM     21  S   UNL     1       1.422   3.147  21.620  0.00  0.00    +0.000 S 
ATOM     22  C   UNL     1       2.166   2.165  20.424  0.00  0.00    +0.000 A 
ATOM     23  C   UNL     1       2.577   2.853  19.301  0.00  0.00    +0.000 A 
ATOM     24  C   UNL     1       2.335   4.247  19.468  0.00  0.00    +0.000 A 
ATOM     25  N   UNL     1       2.534   5.430  18.774  0.00  0.00    +0.000 N 
BRANCH  25  26
ATOM     26  C   UNL     1       3.097   5.458  17.431  0.00  0.00    +0.000 C 
BRANCH  26  27
ATOM     27  C   UNL     1       4.576   5.154  17.433  0.00  0.00    +0.000 A 
ATOM     28  C   UNL     1       5.182   4.502  16.345  0.00  0.00    +0.000 A 
ATOM     29  C   UNL     1       6.540   4.178  16.379  0.00  0.00    +0.000 A 
ATOM     30  C   UNL     1       7.295   4.513  17.494  0.00  0.00    +0.000 A 
ATOM     31  F   UNL     1       8.594   4.188  17.533  0.00  0.00    +0.000 F 
ATOM     32  C   UNL     1       6.724   5.180  18.570  0.00  0.00    +0.000 A 
ATOM     33  C   UNL     1       5.365   5.502  18.539  0.00  0.00    +0.000 A 
ENDBRANCH  26  27
ENDBRANCH  25  26
ENDBRANCH   2  18
TORSDOF 3
ENDMDL
MODEL 4
REMARK VINA RESULT:      -7.9      4.393     11.197
REMARK  Name = 
REMARK  3 active torsions:
REMARK  status: ('A' for Active; 'I' for Inactive)
REMARK    1  A    between atoms: C_2  and  C_3
REMARK    2  A    between atoms: N_10  and  C_11
REMARK    3  A    between atoms: C_11  and  C_12
REMARK                            x       y       z     vdW  Elec       q    Type
REMARK                         _______ _______ _______ _____ _____    ______ ____
ROOT
ATOM      1  O   UNL     1      -3.189  13.029  23.843  0.00  0.00    +0.000 OA
ATOM      2  C   UNL     1      -3.132  12.859  22.625  0.00  0.00    +0.000 C 
ATOM      3  N   UNL     1      -2.047  12.169  22.053  0.00  0.00    +0.000 N 
ATOM      4  C   UNL     1      -1.826  12.014  20.602  0.00  0.00    +0.000 C 
ATOM      5  C   UNL     1      -0.377  11.661  20.215  0.00  0.00    +0.000 C 
ATOM      6  N   UNL     1       0.033  10.497  21.001  0.00  0.00    +0.000 N 
ATOM      7  C   UNL     1       0.798   9.520  20.434  0.00  0.00    +0.000 A 
ATOM      8  N   UNL     1       1.347   9.598  19.240  0.00  0.00    +0.000 NA
ATOM      9  C   UNL     1       2.030   8.430  18.921  0.00  0.00    +0.000 A 
ATOM     10  C   UNL     1       2.773   8.181  17.746  0.00  0.00    +0.000 A 
ATOM     11  C   UNL     1       3.413   6.945  17.571  0.00  0.00    +0.000 A 
ATOM     12  C   UNL     1       3.302   5.950  18.536  0.00  0.00    +0.000 A 
ATOM     13  C   UNL     1       2.566   6.168  19.702  0.00  0.00    +0.000 A 
ATOM     14  C   UNL     1       1.952   7.421  19.878  0.00  0.00    +0.000 A 
ATOM     15  S   UNL     1       1.034   7.986  21.206  0.00  0.00    +0.000 S 
ATOM     16  C   UNL     1       0.021  10.749  22.445  0.00  0.00    +0.000 C 
ATOM     17  C   UNL     1      -1.389  11.166  22.905  0.00  0.00    +0.000 C 
ENDROOT
BRANCH   2  18
ATOM     18  C   UNL     1      -4.204  13.336  21.748  0.00  0.00    +0.000 A 
ATOM     19  C   UNL     1      -5.292  12.610  21.280  0.00  0.00    +0.000 A 
ATOM     20  C   UNL     1      -6.006  13.446  20.391  0.00  0.00    +0.000 A 
ATOM     21  S   UNL     1      -7.343  13.346  19.302  0.00  0.00    +0.000 S 
ATOM     22  C   UNL     1      -7.156  15.013  18.937  0.00  0.00    +0.000 A 
ATOM     23  C   UNL     1      -6.146  15.636  19.641  0.00  0.00    +0.000 A 
ATOM     24  C   UNL     1      -5.459  14.688  20.452  0.00  0.00    +0.000 A 
ATOM     25  N   UNL     1      -4.385  14.648  21.326  0.00  0.00    +0.000 N 
BRANCH  25  26
ATOM     26  C   UNL     1      -3.640  15.843  21.697  0.00  0.00    +0.000 C 
BRANCH  26  27
ATOM     27  C   UNL     1      -2.669  16.260  20.619  0.00  0.00    +0.000 A 
ATOM     28  C   UNL     1      -1.501  15.519  20.369  0.00  0.00    +0.000 A 
ATOM     29  C   UNL     1      -0.583  15.942  19.407  0.00  0.00    +0.000 A 
ATOM     30  C   UNL     1      -0.835  17.101  18.685  0.00  0.00    +0.000 A 
ATOM     31  F   UNL     1       0.053  17.515  17.772  0.00  0.00    +0.000 F 
ATOM     32  C   UNL     1      -1.994  17.837  18.896  0.00  0.00    +0.000 A 
ATOM     33  C   UNL     1      -2.911  17.416  19.861  0.00  0.00    +0.000 A 
ENDBRANCH  26  27
ENDBRANCH  25  26
ENDBRANCH   2  18
TORSDOF 3
ENDMDL
MODEL 5
REMARK VINA RESULT:      -7.6      6.421      9.891
REMARK  Name = 
REMARK  3 active torsions:
REMARK  status: ('A' for Active; 'I' for Inactive)
REMARK    1  A    between atoms: C_2  and  C_3
REMARK    2  A    between atoms: N_10  and  C_11
REMARK    3  A    between atoms: C_11  and  C_12
REMARK                            x       y       z     vdW  Elec       q    Type
REMARK                         _______ _______ _______ _____ _____    ______ ____
ROOT
ATOM      1  O   UNL     1      -0.755  14.734  19.535  0.00  0.00    +0.000 OA
ATOM      2  C   UNL     1       0.183  13.945  19.649  0.00  0.00    +0.000 C 
ATOM      3  N   UNL     1       1.467  14.297  19.193  0.00  0.00    +0.000 N 
ATOM      4  C   UNL     1       2.627  13.383  19.176  0.00  0.00    +0.000 C 
ATOM      5  C   UNL     1       3.757  13.810  18.219  0.00  0.00    +0.000 C 
ATOM      6  N   UNL     1       4.105  15.200  18.517  0.00  0.00    +0.000 N 
ATOM      7  C   UNL     1       5.407  15.604  18.487  0.00  0.00    +0.000 A 
ATOM      8  N   UNL     1       6.410  14.867  18.055  0.00  0.00    +0.000 NA
ATOM      9  C   UNL     1       7.621  15.534  18.189  0.00  0.00    +0.000 A 
ATOM     10  C   UNL     1       8.892  15.066  17.788  0.00  0.00    +0.000 A 
ATOM     11  C   UNL     1      10.028  15.863  17.989  0.00  0.00    +0.000 A 
ATOM     12  C   UNL     1       9.919  17.105  18.605  0.00  0.00    +0.000 A 
ATOM     13  C   UNL     1       8.676  17.588  19.019  0.00  0.00    +0.000 A 
ATOM     14  C   UNL     1       7.541  16.790  18.787  0.00  0.00    +0.000 A 
ATOM     15  S   UNL     1       5.902  17.131  19.141  0.00  0.00    +0.000 S 
ATOM     16  C   UNL     1       2.989  16.127  18.307  0.00  0.00    +0.000 C 
ATOM     17  C   UNL     1       1.791  15.732  19.193  0.00  0.00    +0.000 C 
ENDROOT
BRANCH   2  18
ATOM     18  C   UNL     1      -0.003  12.642  20.292  0.00  0.00    +0.000 A 
ATOM     19  C   UNL     1      -0.049  12.377  21.655  0.00  0.00    +0.000 A 
ATOM     20  C   UNL     1      -0.147  10.975  21.808  0.00  0.00    +0.000 A 
ATOM     21  S   UNL     1      -0.128   9.801  23.075  0.00  0.00    +0.000 S 
ATOM     22  C   UNL     1      -0.368   8.560  21.913  0.00  0.00    +0.000 A 
ATOM     23  C   UNL     1      -0.499   9.016  20.617  0.00  0.00    +0.000 A 
ATOM     24  C   UNL     1      -0.321  10.428  20.577  0.00  0.00    +0.000 A 
ATOM     25  N   UNL     1      -0.292  11.449  19.640  0.00  0.00    +0.000 N 
BRANCH  25  26
ATOM     26  C   UNL     1      -0.553  11.214  18.226  0.00  0.00    +0.000 C 
BRANCH  26  27
ATOM     27  C   UNL     1      -2.027  11.287  17.905  0.00  0.00    +0.000 A 
ATOM     28  C   UNL     1      -2.936  11.870  18.805  0.00  0.00    +0.000 A 
ATOM     29  C   UNL     1      -4.303  11.884  18.523  0.00  0.00    +0.000 A 
ATOM     30  C   UNL     1      -4.763  11.326  17.339  0.00  0.00    +0.000 A 
ATOM     31  F   UNL     1      -6.076  11.326  17.075  0.00  0.00    +0.000 F 
ATOM     32  C   UNL     1      -3.881  10.767  16.423  0.00  0.00    +0.000 A 
ATOM     33  C   UNL     1      -2.514  10.749  16.705  0.00  0.00    +0.000 A 
ENDBRANCH  26  27
ENDBRANCH  25  26
ENDBRANCH   2  18
TORSDOF 3
ENDMDL
MODEL 6
REMARK VINA RESULT:      -7.6      5.204     12.435
REMARK  Name = 
REMARK  3 active torsions:
REMARK  status: ('A' for Active; 'I' for Inactive)
REMARK    1  A    between atoms: C_2  and  C_3
REMARK    2  A    between atoms: N_10  and  C_11
REMARK    3  A    between atoms: C_11  and  C_12
REMARK                            x       y       z     vdW  Elec       q    Type
REMARK                         _______ _______ _______ _____ _____    ______ ____
ROOT
ATOM      1  O   UNL     1      -3.437  13.291  23.561  0.00  0.00    +0.000 OA
ATOM      2  C   UNL     1      -3.376  13.043  22.356  0.00  0.00    +0.000 C 
ATOM      3  N   UNL     1      -2.267  12.357  21.827  0.00  0.00    +0.000 N 
ATOM      4  C   UNL     1      -2.044  12.116  20.387  0.00  0.00    +0.000 C 
ATOM      5  C   UNL     1      -0.583  11.792  20.018  0.00  0.00    +0.000 C 
ATOM      6  N   UNL     1      -0.129  10.698  20.877  0.00  0.00    +0.000 N 
ATOM      7  C   UNL     1       0.670   9.714  20.372  0.00  0.00    +0.000 A 
ATOM      8  N   UNL     1       1.215   9.733  19.173  0.00  0.00    +0.000 NA
ATOM      9  C   UNL     1       1.939   8.573  18.929  0.00  0.00    +0.000 A 
ATOM     10  C   UNL     1       2.689   8.274  17.770  0.00  0.00    +0.000 A 
ATOM     11  C   UNL     1       3.373   7.054  17.674  0.00  0.00    +0.000 A 
ATOM     12  C   UNL     1       3.301   6.121  18.702  0.00  0.00    +0.000 A 
ATOM     13  C   UNL     1       2.560   6.388  19.855  0.00  0.00    +0.000 A 
ATOM     14  C   UNL     1       1.901   7.627  19.950  0.00  0.00    +0.000 A 
ATOM     15  S   UNL     1       0.964   8.244  21.243  0.00  0.00    +0.000 S 
ATOM     16  C   UNL     1      -0.147  11.043  22.302  0.00  0.00    +0.000 C 
ATOM     17  C   UNL     1      -1.571  11.437  22.739  0.00  0.00    +0.000 C 
ENDROOT
BRANCH   2  18
ATOM     18  C   UNL     1      -4.467  13.422  21.454  0.00  0.00    +0.000 A 
ATOM     19  C   UNL     1      -5.553  12.642  21.076  0.00  0.00    +0.000 A 
ATOM     20  C   UNL     1      -6.289  13.381  20.122  0.00  0.00    +0.000 A 
ATOM     21  S   UNL     1      -7.642  13.162  19.070  0.00  0.00    +0.000 S 
ATOM     22  C   UNL     1      -7.479  14.788  18.542  0.00  0.00    +0.000 A 
ATOM     23  C   UNL     1      -6.467  15.487  19.166  0.00  0.00    +0.000 A 
ATOM     24  C   UNL     1      -5.757  14.629  20.054  0.00  0.00    +0.000 A 
ATOM     25  N   UNL     1      -4.669  14.685  20.911  0.00  0.00    +0.000 N 
BRANCH  25  26
ATOM     26  C   UNL     1      -3.933  15.918  21.153  0.00  0.00    +0.000 C 
BRANCH  26  27
ATOM     27  C   UNL     1      -4.300  16.544  22.477  0.00  0.00    +0.000 A 
ATOM     28  C   UNL     1      -3.317  16.830  23.440  0.00  0.00    +0.000 A 
ATOM     29  C   UNL     1      -3.673  17.359  24.682  0.00  0.00    +0.000 A 
ATOM     30  C   UNL     1      -5.009  17.613  24.960  0.00  0.00    +0.000 A 
ATOM     31  F   UNL     1      -5.352  18.106  26.156  0.00  0.00    +0.000 F 
ATOM     32  C   UNL     1      -5.995  17.362  24.015  0.00  0.00    +0.000 A 
ATOM     33  C   UNL     1      -5.641  16.830  22.773  0.00  0.00    +0.000 A 
ENDBRANCH  26  27
ENDBRANCH  25  26
ENDBRANCH   2  18
TORSDOF 3
ENDMDL
MODEL 7
REMARK VINA RESULT:      -7.4      1.627      2.080
REMARK  Name = 
REMARK  3 active torsions:
REMARK  status: ('A' for Active; 'I' for Inactive)
REMARK    1  A    between atoms: C_2  and  C_3
REMARK    2  A    between atoms: N_10  and  C_11
REMARK    3  A    between atoms: C_11  and  C_12
REMARK                            x       y       z     vdW  Elec       q    Type
REMARK                         _______ _______ _______ _____ _____    ______ ____
ROOT
ATOM      1  O   UNL     1       3.412   7.903  16.894  0.00  0.00    +0.000 OA
ATOM      2  C   UNL     1       2.706   7.488  17.814  0.00  0.00    +0.000 C 
ATOM      3  N   UNL     1       2.037   8.392  18.659  0.00  0.00    +0.000 N 
ATOM      4  C   UNL     1       1.265   8.002  19.856  0.00  0.00    +0.000 C 
ATOM      5  C   UNL     1       1.039   9.145  20.866  0.00  0.00    +0.000 C 
ATOM      6  N   UNL     1       0.473  10.284  20.143  0.00  0.00    +0.000 N 
ATOM      7  C   UNL     1      -0.500  11.048  20.720  0.00  0.00    +0.000 A 
ATOM      8  N   UNL     1      -0.892  10.941  21.972  0.00  0.00    +0.000 NA
ATOM      9  C   UNL     1      -1.929  11.822  22.254  0.00  0.00    +0.000 A 
ATOM     10  C   UNL     1      -2.560  12.012  23.503  0.00  0.00    +0.000 A 
ATOM     11  C   UNL     1      -3.596  12.948  23.629  0.00  0.00    +0.000 A 
ATOM     12  C   UNL     1      -4.026  13.678  22.527  0.00  0.00    +0.000 A 
ATOM     13  C   UNL     1      -3.425  13.503  21.279  0.00  0.00    +0.000 A 
ATOM     14  C   UNL     1      -2.369  12.581  21.172  0.00  0.00    +0.000 A 
ATOM     15  S   UNL     1      -1.424  12.190  19.800  0.00  0.00    +0.000 S 
ATOM     16  C   UNL     1       1.363  10.801  19.100  0.00  0.00    +0.000 C 
ATOM     17  C   UNL     1       1.685   9.696  18.075  0.00  0.00    +0.000 C 
ENDROOT
BRANCH   2  18
ATOM     18  C   UNL     1       2.516   6.051  18.027  0.00  0.00    +0.000 A 
ATOM     19  C   UNL     1       1.419   5.426  18.606  0.00  0.00    +0.000 A 
ATOM     20  C   UNL     1       1.717   4.047  18.692  0.00  0.00    +0.000 A 
ATOM     21  S   UNL     1       1.030   2.607  19.355  0.00  0.00    +0.000 S 
ATOM     22  C   UNL     1       2.344   1.703  18.721  0.00  0.00    +0.000 A 
ATOM     23  C   UNL     1       3.251   2.451  17.999  0.00  0.00    +0.000 A 
ATOM     24  C   UNL     1       2.885   3.827  18.035  0.00  0.00    +0.000 A 
ATOM     25  N   UNL     1       3.359   5.045  17.571  0.00  0.00    +0.000 N 
BRANCH  25  26
ATOM     26  C   UNL     1       4.545   5.148  16.732  0.00  0.00    +0.000 C 
BRANCH  26  27
ATOM     27  C   UNL     1       5.815   5.144  17.549  0.00  0.00    +0.000 A 
ATOM     28  C   UNL     1       6.980   4.518  17.073  0.00  0.00    +0.000 A 
ATOM     29  C   UNL     1       8.133   4.473  17.858  0.00  0.00    +0.000 A 
ATOM     30  C   UNL     1       8.128   5.062  19.114  0.00  0.00    +0.000 A 
ATOM     31  F   UNL     1       9.230   5.005  19.874  0.00  0.00    +0.000 F 
ATOM     32  C   UNL     1       6.998   5.709  19.596  0.00  0.00    +0.000 A 
ATOM     33  C   UNL     1       5.842   5.752  18.813  0.00  0.00    +0.000 A 
ENDBRANCH  26  27
ENDBRANCH  25  26
ENDBRANCH   2  18
TORSDOF 3
ENDMDL
MODEL 8
REMARK VINA RESULT:      -7.4      4.866     11.149
REMARK  Name = 
REMARK  3 active torsions:
REMARK  status: ('A' for Active; 'I' for Inactive)
REMARK    1  A    between atoms: C_2  and  C_3
REMARK    2  A    between atoms: N_10  and  C_11
REMARK    3  A    between atoms: C_11  and  C_12
REMARK                            x       y       z     vdW  Elec       q    Type
REMARK                         _______ _______ _______ _____ _____    ______ ____
ROOT
ATOM      1  O   UNL     1      -0.515  15.323  18.840  0.00  0.00    +0.000 OA
ATOM      2  C   UNL     1      -0.010  14.732  19.795  0.00  0.00    +0.000 C 
ATOM      3  N   UNL     1       0.146  13.334  19.764  0.00  0.00    +0.000 N 
ATOM      4  C   UNL     1       0.629  12.522  20.898  0.00  0.00    +0.000 C 
ATOM      5  C   UNL     1       0.268  11.026  20.807  0.00  0.00    +0.000 C 
ATOM      6  N   UNL     1       0.704  10.533  19.500  0.00  0.00    +0.000 N 
ATOM      7  C   UNL     1       1.252   9.289  19.383  0.00  0.00    +0.000 A 
ATOM      8  N   UNL     1       1.295   8.396  20.350  0.00  0.00    +0.000 NA
ATOM      9  C   UNL     1       1.954   7.242  19.943  0.00  0.00    +0.000 A 
ATOM     10  C   UNL     1       2.145   6.066  20.702  0.00  0.00    +0.000 A 
ATOM     11  C   UNL     1       2.833   4.978  20.147  0.00  0.00    +0.000 A 
ATOM     12  C   UNL     1       3.352   5.054  18.859  0.00  0.00    +0.000 A 
ATOM     13  C   UNL     1       3.185   6.208  18.091  0.00  0.00    +0.000 A 
ATOM     14  C   UNL     1       2.470   7.282  18.650  0.00  0.00    +0.000 A 
ATOM     15  S   UNL     1       2.074   8.788  17.941  0.00  0.00    +0.000 S 
ATOM     16  C   UNL     1       0.037  11.206  18.382  0.00  0.00    +0.000 C 
ATOM     17  C   UNL     1       0.304  12.723  18.435  0.00  0.00    +0.000 C 
ENDROOT
BRANCH   2  18
ATOM     18  C   UNL     1       0.471  15.469  20.966  0.00  0.00    +0.000 A 
ATOM     19  C   UNL     1       1.784  15.812  21.261  0.00  0.00    +0.000 A 
ATOM     20  C   UNL     1       1.783  16.428  22.533  0.00  0.00    +0.000 A 
ATOM     21  S   UNL     1       2.919  17.023  23.691  0.00  0.00    +0.000 S 
ATOM     22  C   UNL     1       1.618  17.514  24.697  0.00  0.00    +0.000 A 
ATOM     23  C   UNL     1       0.368  17.276  24.164  0.00  0.00    +0.000 A 
ATOM     24  C   UNL     1       0.491  16.599  22.917  0.00  0.00    +0.000 A 
ATOM     25  N   UNL     1      -0.328  16.064  21.935  0.00  0.00    +0.000 N 
BRANCH  25  26
ATOM     26  C   UNL     1      -1.779  16.175  21.989  0.00  0.00    +0.000 C 
BRANCH  26  27
ATOM     27  C   UNL     1      -2.404  15.042  22.767  0.00  0.00    +0.000 A 
ATOM     28  C   UNL     1      -2.678  13.807  22.153  0.00  0.00    +0.000 A 
ATOM     29  C   UNL     1      -3.304  12.784  22.867  0.00  0.00    +0.000 A 
ATOM     30  C   UNL     1      -3.649  12.988  24.195  0.00  0.00    +0.000 A 
ATOM     31  F   UNL     1      -4.263  12.012  24.875  0.00  0.00    +0.000 F 
ATOM     32  C   UNL     1      -3.365  14.191  24.830  0.00  0.00    +0.000 A 
ATOM     33  C   UNL     1      -2.741  15.216  24.117  0.00  0.00    +0.000 A 
ENDBRANCH  26  27
ENDBRANCH  25  26
ENDBRANCH   2  18
TORSDOF 3
ENDMDL
MODEL 9
REMARK VINA RESULT:      -7.3      3.323      4.980
REMARK  Name = 
REMARK  3 active torsions:
REMARK  status: ('A' for Active; 'I' for Inactive)
REMARK    1  A    between atoms: C_2  and  C_3
REMARK    2  A    between atoms: N_10  and  C_11
REMARK    3  A    between atoms: C_11  and  C_12
REMARK                            x       y       z     vdW  Elec       q    Type
REMARK                         _______ _______ _______ _____ _____    ______ ____
ROOT
ATOM      1  O   UNL     1       2.270   5.902  20.393  0.00  0.00    +0.000 OA
ATOM      2  C   UNL     1       2.567   6.672  19.479  0.00  0.00    +0.000 C 
ATOM      3  N   UNL     1       1.958   7.938  19.391  0.00  0.00    +0.000 N 
ATOM      4  C   UNL     1       2.156   8.884  18.275  0.00  0.00    +0.000 C 
ATOM      5  C   UNL     1       1.055   9.957  18.150  0.00  0.00    +0.000 C 
ATOM      6  N   UNL     1       0.901  10.604  19.453  0.00  0.00    +0.000 N 
ATOM      7  C   UNL     1       0.681  11.948  19.529  0.00  0.00    +0.000 A 
ATOM      8  N   UNL     1       0.440  12.728  18.496  0.00  0.00    +0.000 NA
ATOM      9  C   UNL     1       0.301  14.055  18.886  0.00  0.00    +0.000 A 
ATOM     10  C   UNL     1      -0.007  15.152  18.052  0.00  0.00    +0.000 A 
ATOM     11  C   UNL     1      -0.116  16.439  18.598  0.00  0.00    +0.000 A 
ATOM     12  C   UNL     1       0.100  16.650  19.955  0.00  0.00    +0.000 A 
ATOM     13  C   UNL     1       0.416  15.584  20.800  0.00  0.00    +0.000 A 
ATOM     14  C   UNL     1       0.495  14.295  20.244  0.00  0.00    +0.000 A 
ATOM     15  S   UNL     1       0.817  12.808  21.029  0.00  0.00    +0.000 S 
ATOM     16  C   UNL     1       0.481   9.677  20.507  0.00  0.00    +0.000 C 
ATOM     17  C   UNL     1       1.507   8.536  20.657  0.00  0.00    +0.000 C 
ENDROOT
BRANCH   2  18
ATOM     18  C   UNL     1       3.582   6.308  18.488  0.00  0.00    +0.000 A 
ATOM     19  C   UNL     1       4.846   6.864  18.338  0.00  0.00    +0.000 A 
ATOM     20  C   UNL     1       5.433   6.272  17.197  0.00  0.00    +0.000 A 
ATOM     21  S   UNL     1       6.857   6.437  16.232  0.00  0.00    +0.000 S 
ATOM     22  C   UNL     1       6.332   5.129  15.253  0.00  0.00    +0.000 A 
ATOM     23  C   UNL     1       5.144   4.558  15.660  0.00  0.00    +0.000 A 
ATOM     24  C   UNL     1       4.616   5.273  16.773  0.00  0.00    +0.000 A 
ATOM     25  N   UNL     1       3.499   5.248  17.594  0.00  0.00    +0.000 N 
BRANCH  25  26
ATOM     26  C   UNL     1       2.470   4.224  17.474  0.00  0.00    +0.000 C 
BRANCH  26  27
ATOM     27  C   UNL     1       2.214   3.525  18.787  0.00  0.00    +0.000 A 
ATOM     28  C   UNL     1       0.910   3.382  19.290  0.00  0.00    +0.000 A 
ATOM     29  C   UNL     1       0.688   2.781  20.531  0.00  0.00    +0.000 A 
ATOM     30  C   UNL     1       1.768   2.314  21.266  0.00  0.00    +0.000 A 
ATOM     31  F   UNL     1       1.558   1.752  22.463  0.00  0.00    +0.000 F 
ATOM     32  C   UNL     1       3.065   2.422  20.779  0.00  0.00    +0.000 A 
ATOM     33  C   UNL     1       3.288   3.025  19.540  0.00  0.00    +0.000 A 
ENDBRANCH  26  27
ENDBRANCH  25  26
ENDBRANCH   2  18
TORSDOF 3
ENDMDL
