MODEL 1
REMARK VINA RESULT:      -6.8      0.000      0.000
REMARK  Name = 
REMARK  8 active torsions:
REMARK  status: ('A' for Active; 'I' for Inactive)
REMARK    1  A    between atoms: C_1  and  C_2
REMARK    2  A    between atoms: C_2  and  C_3
REMARK    3  A    between atoms: C_2  and  C_4
REMARK    4  A    between atoms: C_2  and  O_5
REMARK    5  A    between atoms: O_5  and  C_6
REMARK    6  A    between atoms: N_8  and  C_9
REMARK    7  A    between atoms: C_13  and  C_14
REMARK    8  A    between atoms: C_14  and  O_16
REMARK                            x       y       z     vdW  Elec       q    Type
REMARK                         _______ _______ _______ _____ _____    ______ ____
ROOT
ATOM      1  C   UNL     1       4.696   6.039  17.138  0.00  0.00    +0.000 C 
ATOM      2  C   UNL     1       5.739   5.902  18.248  0.00  0.00    +0.000 C 
ATOM      3  C   UNL     1       6.594   4.651  18.103  0.00  0.00    +0.000 C 
ATOM      4  C   UNL     1       7.238   4.572  16.724  0.00  0.00    +0.000 C 
ATOM      5  C   UNL     1       6.200   4.642  15.593  0.00  0.00    +0.000 C 
ATOM      6  C   UNL     1       5.323   5.893  15.741  0.00  0.00    +0.000 C 
ENDROOT
BRANCH   1   9
ATOM      7  C   UNL     1       2.525   5.477  18.131  0.00  0.00    +0.000 C 
ATOM      8  O   UNL     1       2.456   6.551  18.703  0.00  0.00    +0.000 OA
ATOM      9  N   UNL     1       3.573   5.127  17.324  0.00  0.00    +0.000 N 
ATOM     10  H   UNL     1       3.535   4.216  16.887  0.00  0.00    +0.000 HD
BRANCH   7  11
ATOM     11  O   UNL     1       1.594   4.490  18.180  0.00  0.00    +0.000 OA
BRANCH  11  13
ATOM     12  C   UNL     1       1.025   4.092  20.553  0.00  0.00    +0.000 C 
ATOM     13  C   UNL     1       1.662   3.529  19.274  0.00  0.00    +0.000 C 
ATOM     14  C   UNL     1       3.106   3.057  19.503  0.00  0.00    +0.000 C 
ATOM     15  C   UNL     1       0.830   2.313  18.834  0.00  0.00    +0.000 C 
ENDBRANCH  11  13
ENDBRANCH   7  11
ENDBRANCH   1   9
BRANCH   5  16
ATOM     16  C   UNL     1       6.906   4.638  14.241  0.00  0.00    +0.000 C 
ATOM     17  O   UNL     1       7.762   5.440  13.901  0.00  0.00    +0.000 OA
BRANCH  16  18
ATOM     18  O   UNL     1       6.526   3.624  13.435  0.00  0.00    +0.000 OA
ATOM     19  H   UNL     1       5.770   3.102  13.763  0.00  0.00    +0.000 HD
ENDBRANCH  16  18
ENDBRANCH   5  16
TORSDOF 5
ENDMDL
MODEL 2
REMARK VINA RESULT:      -6.7      0.100      1.019
REMARK  Name = 
REMARK  8 active torsions:
REMARK  status: ('A' for Active; 'I' for Inactive)
REMARK    1  A    between atoms: C_1  and  C_2
REMARK    2  A    between atoms: C_2  and  C_3
REMARK    3  A    between atoms: C_2  and  C_4
REMARK    4  A    between atoms: C_2  and  O_5
REMARK    5  A    between atoms: O_5  and  C_6
REMARK    6  A    between atoms: N_8  and  C_9
REMARK    7  A    between atoms: C_13  and  C_14
REMARK    8  A    between atoms: C_14  and  O_16
REMARK                            x       y       z     vdW  Elec       q    Type
REMARK                         _______ _______ _______ _____ _____    ______ ____
ROOT
ATOM      1  C   UNL     1       4.727   6.080  17.138  0.00  0.00    +0.000 C 
ATOM      2  C   UNL     1       5.768   5.922  18.245  0.00  0.00    +0.000 C 
ATOM      3  C   UNL     1       6.598   4.653  18.100  0.00  0.00    +0.000 C 
ATOM      4  C   UNL     1       7.237   4.561  16.720  0.00  0.00    +0.000 C 
ATOM      5  C   UNL     1       6.199   4.651  15.591  0.00  0.00    +0.000 C 
ATOM      6  C   UNL     1       5.347   5.920  15.739  0.00  0.00    +0.000 C 
ENDROOT
BRANCH   1   9
ATOM      7  C   UNL     1       2.570   5.541  18.175  0.00  0.00    +0.000 C 
ATOM      8  O   UNL     1       2.547   6.597  18.784  0.00  0.00    +0.000 OA
ATOM      9  N   UNL     1       3.585   5.191  17.327  0.00  0.00    +0.000 N 
ATOM     10  H   UNL     1       3.510   4.297  16.862  0.00  0.00    +0.000 HD
BRANCH   7  11
ATOM     11  O   UNL     1       1.615   4.578  18.220  0.00  0.00    +0.000 OA
BRANCH  11  13
ATOM     12  C   UNL     1       3.170   3.301  19.657  0.00  0.00    +0.000 C 
ATOM     13  C   UNL     1       1.709   3.558  19.257  0.00  0.00    +0.000 C 
ATOM     14  C   UNL     1       0.989   2.269  18.831  0.00  0.00    +0.000 C 
ATOM     15  C   UNL     1       0.981   4.123  20.487  0.00  0.00    +0.000 C 
ENDBRANCH  11  13
ENDBRANCH   7  11
ENDBRANCH   1   9
BRANCH   5  16
ATOM     16  C   UNL     1       6.902   4.631  14.238  0.00  0.00    +0.000 C 
ATOM     17  O   UNL     1       7.756   5.430  13.886  0.00  0.00    +0.000 OA
BRANCH  16  18
ATOM     18  O   UNL     1       6.521   3.606  13.445  0.00  0.00    +0.000 OA
ATOM     19  H   UNL     1       6.744   2.720  13.786  0.00  0.00    +0.000 HD
ENDBRANCH  16  18
ENDBRANCH   5  16
TORSDOF 5
ENDMDL
MODEL 3
REMARK VINA RESULT:      -6.6      0.068      1.059
REMARK  Name = 
REMARK  8 active torsions:
REMARK  status: ('A' for Active; 'I' for Inactive)
REMARK    1  A    between atoms: C_1  and  C_2
REMARK    2  A    between atoms: C_2  and  C_3
REMARK    3  A    between atoms: C_2  and  C_4
REMARK    4  A    between atoms: C_2  and  O_5
REMARK    5  A    between atoms: O_5  and  C_6
REMARK    6  A    between atoms: N_8  and  C_9
REMARK    7  A    between atoms: C_13  and  C_14
REMARK    8  A    between atoms: C_14  and  O_16
REMARK                            x       y       z     vdW  Elec       q    Type
REMARK                         _______ _______ _______ _____ _____    ______ ____
ROOT
ATOM      1  C   UNL     1       4.695   6.049  17.148  0.00  0.00    +0.000 C 
ATOM      2  C   UNL     1       5.726   5.888  18.265  0.00  0.00    +0.000 C 
ATOM      3  C   UNL     1       6.569   4.629  18.114  0.00  0.00    +0.000 C 
ATOM      4  C   UNL     1       7.224   4.559  16.740  0.00  0.00    +0.000 C 
ATOM      5  C   UNL     1       6.198   4.653  15.600  0.00  0.00    +0.000 C 
ATOM      6  C   UNL     1       5.333   5.911  15.755  0.00  0.00    +0.000 C 
ENDROOT
BRANCH   1   9
ATOM      7  C   UNL     1       2.503   5.506  18.104  0.00  0.00    +0.000 C 
ATOM      8  O   UNL     1       2.435   6.580  18.677  0.00  0.00    +0.000 OA
ATOM      9  N   UNL     1       3.560   5.147  17.313  0.00  0.00    +0.000 N 
ATOM     10  H   UNL     1       3.521   4.238  16.874  0.00  0.00    +0.000 HD
BRANCH   7  11
ATOM     11  O   UNL     1       1.561   4.528  18.135  0.00  0.00    +0.000 OA
BRANCH  11  13
ATOM     12  C   UNL     1       0.853   2.280  18.883  0.00  0.00    +0.000 C 
ATOM     13  C   UNL     1       1.585   3.581  19.243  0.00  0.00    +0.000 C 
ATOM     14  C   UNL     1       1.035   4.220  20.527  0.00  0.00    +0.000 C 
ATOM     15  C   UNL     1       3.063   3.233  19.483  0.00  0.00    +0.000 C 
ENDBRANCH  11  13
ENDBRANCH   7  11
ENDBRANCH   1   9
BRANCH   5  16
ATOM     16  C   UNL     1       6.916   4.656  14.256  0.00  0.00    +0.000 C 
ATOM     17  O   UNL     1       7.772   5.463  13.926  0.00  0.00    +0.000 OA
BRANCH  16  18
ATOM     18  O   UNL     1       6.548   3.642  13.443  0.00  0.00    +0.000 OA
ATOM     19  H   UNL     1       6.305   2.816  13.903  0.00  0.00    +0.000 HD
ENDBRANCH  16  18
ENDBRANCH   5  16
TORSDOF 5
ENDMDL
MODEL 4
REMARK VINA RESULT:      -6.4      2.629      3.466
REMARK  Name = 
REMARK  8 active torsions:
REMARK  status: ('A' for Active; 'I' for Inactive)
REMARK    1  A    between atoms: C_1  and  C_2
REMARK    2  A    between atoms: C_2  and  C_3
REMARK    3  A    between atoms: C_2  and  C_4
REMARK    4  A    between atoms: C_2  and  O_5
REMARK    5  A    between atoms: O_5  and  C_6
REMARK    6  A    between atoms: N_8  and  C_9
REMARK    7  A    between atoms: C_13  and  C_14
REMARK    8  A    between atoms: C_14  and  O_16
REMARK                            x       y       z     vdW  Elec       q    Type
REMARK                         _______ _______ _______ _____ _____    ______ ____
ROOT
ATOM      1  C   UNL     1       5.684   3.830  17.752  0.00  0.00    +0.000 C 
ATOM      2  C   UNL     1       4.757   4.258  16.615  0.00  0.00    +0.000 C 
ATOM      3  C   UNL     1       4.337   5.718  16.713  0.00  0.00    +0.000 C 
ATOM      4  C   UNL     1       5.546   6.640  16.819  0.00  0.00    +0.000 C 
ATOM      5  C   UNL     1       6.459   6.267  17.998  0.00  0.00    +0.000 C 
ATOM      6  C   UNL     1       6.874   4.792  17.915  0.00  0.00    +0.000 C 
ENDROOT
BRANCH   1   9
ATOM      7  C   UNL     1       4.062   2.624  19.142  0.00  0.00    +0.000 C 
ATOM      8  O   UNL     1       3.833   1.818  18.256  0.00  0.00    +0.000 OA
ATOM      9  N   UNL     1       4.965   3.643  19.007  0.00  0.00    +0.000 N 
ATOM     10  H   UNL     1       5.090   4.256  19.801  0.00  0.00    +0.000 HD
BRANCH   7  11
ATOM     11  O   UNL     1       3.495   2.632  20.375  0.00  0.00    +0.000 OA
BRANCH  11  13
ATOM     12  C   UNL     1       1.282   2.973  19.325  0.00  0.00    +0.000 C 
ATOM     13  C   UNL     1       2.189   3.261  20.531  0.00  0.00    +0.000 C 
ATOM     14  C   UNL     1       2.331   4.766  20.805  0.00  0.00    +0.000 C 
ATOM     15  C   UNL     1       1.542   2.613  21.766  0.00  0.00    +0.000 C 
ENDBRANCH  11  13
ENDBRANCH   7  11
ENDBRANCH   1   9
BRANCH   5  16
ATOM     16  C   UNL     1       7.687   7.171  18.007  0.00  0.00    +0.000 C 
ATOM     17  O   UNL     1       7.933   8.019  17.163  0.00  0.00    +0.000 OA
BRANCH  16  18
ATOM     18  O   UNL     1       8.492   6.980  19.074  0.00  0.00    +0.000 OA
ATOM     19  H   UNL     1       8.111   7.257  19.929  0.00  0.00    +0.000 HD
ENDBRANCH  16  18
ENDBRANCH   5  16
TORSDOF 5
ENDMDL
MODEL 5
REMARK VINA RESULT:      -6.4      1.180      1.660
REMARK  Name = 
REMARK  8 active torsions:
REMARK  status: ('A' for Active; 'I' for Inactive)
REMARK    1  A    between atoms: C_1  and  C_2
REMARK    2  A    between atoms: C_2  and  C_3
REMARK    3  A    between atoms: C_2  and  C_4
REMARK    4  A    between atoms: C_2  and  O_5
REMARK    5  A    between atoms: O_5  and  C_6
REMARK    6  A    between atoms: N_8  and  C_9
REMARK    7  A    between atoms: C_13  and  C_14
REMARK    8  A    between atoms: C_14  and  O_16
REMARK                            x       y       z     vdW  Elec       q    Type
REMARK                         _______ _______ _______ _____ _____    ______ ____
ROOT
ATOM      1  C   UNL     1       5.450   5.896  18.067  0.00  0.00    +0.000 C 
ATOM      2  C   UNL     1       6.897   5.868  18.557  0.00  0.00    +0.000 C 
ATOM      3  C   UNL     1       7.683   4.683  18.011  0.00  0.00    +0.000 C 
ATOM      4  C   UNL     1       7.611   4.619  16.491  0.00  0.00    +0.000 C 
ATOM      5  C   UNL     1       6.163   4.580  15.978  0.00  0.00    +0.000 C 
ATOM      6  C   UNL     1       5.359   5.763  16.537  0.00  0.00    +0.000 C 
ENDROOT
BRANCH   1   9
ATOM      7  C   UNL     1       3.476   5.287  19.390  0.00  0.00    +0.000 C 
ATOM      8  O   UNL     1       3.078   6.439  19.412  0.00  0.00    +0.000 OA
ATOM      9  N   UNL     1       4.621   4.905  18.745  0.00  0.00    +0.000 N 
ATOM     10  H   UNL     1       4.864   3.925  18.778  0.00  0.00    +0.000 HD
BRANCH   7  11
ATOM     11  O   UNL     1       2.860   4.222  19.965  0.00  0.00    +0.000 OA
BRANCH  11  13
ATOM     12  C   UNL     1       2.672   2.054  18.792  0.00  0.00    +0.000 C 
ATOM     13  C   UNL     1       1.998   3.391  19.133  0.00  0.00    +0.000 C 
ATOM     14  C   UNL     1       1.546   4.150  17.876  0.00  0.00    +0.000 C 
ATOM     15  C   UNL     1       0.750   3.083  19.976  0.00  0.00    +0.000 C 
ENDBRANCH  11  13
ENDBRANCH   7  11
ENDBRANCH   1   9
BRANCH   5  16
ATOM     16  C   UNL     1       6.153   4.595  14.454  0.00  0.00    +0.000 C 
ATOM     17  O   UNL     1       5.291   4.079  13.759  0.00  0.00    +0.000 OA
BRANCH  16  18
ATOM     18  O   UNL     1       7.184   5.278  13.912  0.00  0.00    +0.000 OA
ATOM     19  H   UNL     1       7.787   5.690  14.560  0.00  0.00    +0.000 HD
ENDBRANCH  16  18
ENDBRANCH   5  16
TORSDOF 5
ENDMDL
MODEL 6
REMARK VINA RESULT:      -6.3      2.435      3.339
REMARK  Name = 
REMARK  8 active torsions:
REMARK  status: ('A' for Active; 'I' for Inactive)
REMARK    1  A    between atoms: C_1  and  C_2
REMARK    2  A    between atoms: C_2  and  C_3
REMARK    3  A    between atoms: C_2  and  C_4
REMARK    4  A    between atoms: C_2  and  O_5
REMARK    5  A    between atoms: O_5  and  C_6
REMARK    6  A    between atoms: N_8  and  C_9
REMARK    7  A    between atoms: C_13  and  C_14
REMARK    8  A    between atoms: C_14  and  O_16
REMARK                            x       y       z     vdW  Elec       q    Type
REMARK                         _______ _______ _______ _____ _____    ______ ____
ROOT
ATOM      1  C   UNL     1       5.833   4.103  17.730  0.00  0.00    +0.000 C 
ATOM      2  C   UNL     1       5.689   4.032  16.210  0.00  0.00    +0.000 C 
ATOM      3  C   UNL     1       5.431   5.393  15.577  0.00  0.00    +0.000 C 
ATOM      4  C   UNL     1       6.490   6.409  15.988  0.00  0.00    +0.000 C 
ATOM      5  C   UNL     1       6.606   6.544  17.514  0.00  0.00    +0.000 C 
ATOM      6  C   UNL     1       6.850   5.174  18.161  0.00  0.00    +0.000 C 
ENDROOT
BRANCH   1   9
ATOM      7  C   UNL     1       4.217   3.509  19.477  0.00  0.00    +0.000 C 
ATOM      8  O   UNL     1       4.966   2.672  19.951  0.00  0.00    +0.000 OA
ATOM      9  N   UNL     1       4.548   4.281  18.397  0.00  0.00    +0.000 N 
ATOM     10  H   UNL     1       3.861   4.952  18.082  0.00  0.00    +0.000 HD
BRANCH   7  11
ATOM     11  O   UNL     1       2.979   3.820  19.941  0.00  0.00    +0.000 OA
BRANCH  11  13
ATOM     12  C   UNL     1       2.045   1.812  18.842  0.00  0.00    +0.000 C 
ATOM     13  C   UNL     1       1.822   3.279  19.239  0.00  0.00    +0.000 C 
ATOM     14  C   UNL     1       1.448   4.155  18.034  0.00  0.00    +0.000 C 
ATOM     15  C   UNL     1       0.653   3.319  20.236  0.00  0.00    +0.000 C 
ENDBRANCH  11  13
ENDBRANCH   7  11
ENDBRANCH   1   9
BRANCH   5  16
ATOM     16  C   UNL     1       7.730   7.512  17.864  0.00  0.00    +0.000 C 
ATOM     17  O   UNL     1       7.952   8.561  17.280  0.00  0.00    +0.000 OA
BRANCH  16  18
ATOM     18  O   UNL     1       8.465   7.125  18.929  0.00  0.00    +0.000 OA
ATOM     19  H   UNL     1       7.968   6.644  19.617  0.00  0.00    +0.000 HD
ENDBRANCH  16  18
ENDBRANCH   5  16
TORSDOF 5
ENDMDL
MODEL 7
REMARK VINA RESULT:      -6.3      2.121      5.699
REMARK  Name = 
REMARK  8 active torsions:
REMARK  status: ('A' for Active; 'I' for Inactive)
REMARK    1  A    between atoms: C_1  and  C_2
REMARK    2  A    between atoms: C_2  and  C_3
REMARK    3  A    between atoms: C_2  and  C_4
REMARK    4  A    between atoms: C_2  and  O_5
REMARK    5  A    between atoms: O_5  and  C_6
REMARK    6  A    between atoms: N_8  and  C_9
REMARK    7  A    between atoms: C_13  and  C_14
REMARK    8  A    between atoms: C_14  and  O_16
REMARK                            x       y       z     vdW  Elec       q    Type
REMARK                         _______ _______ _______ _____ _____    ______ ____
ROOT
ATOM      1  C   UNL     1       3.928   5.892  18.145  0.00  0.00    +0.000 C 
ATOM      2  C   UNL     1       2.409   6.056  18.160  0.00  0.00    +0.000 C 
ATOM      3  C   UNL     1       1.670   4.736  17.986  0.00  0.00    +0.000 C 
ATOM      4  C   UNL     1       2.128   3.702  19.008  0.00  0.00    +0.000 C 
ATOM      5  C   UNL     1       3.646   3.473  18.964  0.00  0.00    +0.000 C 
ATOM      6  C   UNL     1       4.398   4.802  19.124  0.00  0.00    +0.000 C 
ENDROOT
BRANCH   1   9
ATOM      7  C   UNL     1       5.480   6.421  16.320  0.00  0.00    +0.000 C 
ATOM      8  O   UNL     1       6.036   7.281  16.980  0.00  0.00    +0.000 OA
ATOM      9  N   UNL     1       4.443   5.667  16.799  0.00  0.00    +0.000 N 
ATOM     10  H   UNL     1       4.052   4.973  16.177  0.00  0.00    +0.000 HD
BRANCH   7  11
ATOM     11  O   UNL     1       5.798   6.065  15.049  0.00  0.00    +0.000 OA
BRANCH  11  13
ATOM     12  C   UNL     1       5.707   3.708  14.305  0.00  0.00    +0.000 C 
ATOM     13  C   UNL     1       6.579   4.851  14.847  0.00  0.00    +0.000 C 
ATOM     14  C   UNL     1       7.323   4.453  16.131  0.00  0.00    +0.000 C 
ATOM     15  C   UNL     1       7.629   5.185  13.774  0.00  0.00    +0.000 C 
ENDBRANCH  11  13
ENDBRANCH   7  11
ENDBRANCH   1   9
BRANCH   5  16
ATOM     16  C   UNL     1       4.053   2.491  20.057  0.00  0.00    +0.000 C 
ATOM     17  O   UNL     1       3.447   2.325  21.104  0.00  0.00    +0.000 OA
BRANCH  16  18
ATOM     18  O   UNL     1       5.153   1.769  19.754  0.00  0.00    +0.000 OA
ATOM     19  H   UNL     1       5.021   1.092  19.064  0.00  0.00    +0.000 HD
ENDBRANCH  16  18
ENDBRANCH   5  16
TORSDOF 5
ENDMDL
MODEL 8
REMARK VINA RESULT:      -6.3      2.278      3.332
REMARK  Name = 
REMARK  8 active torsions:
REMARK  status: ('A' for Active; 'I' for Inactive)
REMARK    1  A    between atoms: C_1  and  C_2
REMARK    2  A    between atoms: C_2  and  C_3
REMARK    3  A    between atoms: C_2  and  C_4
REMARK    4  A    between atoms: C_2  and  O_5
REMARK    5  A    between atoms: O_5  and  C_6
REMARK    6  A    between atoms: N_8  and  C_9
REMARK    7  A    between atoms: C_13  and  C_14
REMARK    8  A    between atoms: C_14  and  O_16
REMARK                            x       y       z     vdW  Elec       q    Type
REMARK                         _______ _______ _______ _____ _____    ______ ____
ROOT
ATOM      1  C   UNL     1       5.903   3.913  17.581  0.00  0.00    +0.000 C 
ATOM      2  C   UNL     1       5.361   4.128  16.168  0.00  0.00    +0.000 C 
ATOM      3  C   UNL     1       4.914   5.562  15.919  0.00  0.00    +0.000 C 
ATOM      4  C   UNL     1       6.022   6.556  16.245  0.00  0.00    +0.000 C 
ATOM      5  C   UNL     1       6.537   6.401  17.685  0.00  0.00    +0.000 C 
ATOM      6  C   UNL     1       6.975   4.953  17.949  0.00  0.00    +0.000 C 
ENDROOT
BRANCH   1   9
ATOM      7  C   UNL     1       3.886   2.879  18.519  0.00  0.00    +0.000 C 
ATOM      8  O   UNL     1       3.888   1.999  17.675  0.00  0.00    +0.000 OA
ATOM      9  N   UNL     1       4.837   3.860  18.576  0.00  0.00    +0.000 N 
ATOM     10  H   UNL     1       4.753   4.541  19.318  0.00  0.00    +0.000 HD
BRANCH   7  11
ATOM     11  O   UNL     1       2.982   3.014  19.523  0.00  0.00    +0.000 OA
BRANCH  11  13
ATOM     12  C   UNL     1       1.719   4.447  17.952  0.00  0.00    +0.000 C 
ATOM     13  C   UNL     1       1.666   3.553  19.200  0.00  0.00    +0.000 C 
ATOM     14  C   UNL     1       1.055   4.278  20.408  0.00  0.00    +0.000 C 
ATOM     15  C   UNL     1       0.773   2.345  18.870  0.00  0.00    +0.000 C 
ENDBRANCH  11  13
ENDBRANCH   7  11
ENDBRANCH   1   9
BRANCH   5  16
ATOM     16  C   UNL     1       7.693   7.364  17.928  0.00  0.00    +0.000 C 
ATOM     17  O   UNL     1       7.894   8.385  17.288  0.00  0.00    +0.000 OA
BRANCH  16  18
ATOM     18  O   UNL     1       8.485   7.009  18.962  0.00  0.00    +0.000 OA
ATOM     19  H   UNL     1       8.083   7.124  19.844  0.00  0.00    +0.000 HD
ENDBRANCH  16  18
ENDBRANCH   5  16
TORSDOF 5
ENDMDL
MODEL 9
REMARK VINA RESULT:      -6.3      1.198      1.665
REMARK  Name = 
REMARK  8 active torsions:
REMARK  status: ('A' for Active; 'I' for Inactive)
REMARK    1  A    between atoms: C_1  and  C_2
REMARK    2  A    between atoms: C_2  and  C_3
REMARK    3  A    between atoms: C_2  and  C_4
REMARK    4  A    between atoms: C_2  and  O_5
REMARK    5  A    between atoms: O_5  and  C_6
REMARK    6  A    between atoms: N_8  and  C_9
REMARK    7  A    between atoms: C_13  and  C_14
REMARK    8  A    between atoms: C_14  and  O_16
REMARK                            x       y       z     vdW  Elec       q    Type
REMARK                         _______ _______ _______ _____ _____    ______ ____
ROOT
ATOM      1  C   UNL     1       5.499   5.914  18.122  0.00  0.00    +0.000 C 
ATOM      2  C   UNL     1       6.955   5.877  18.587  0.00  0.00    +0.000 C 
ATOM      3  C   UNL     1       7.724   4.688  18.027  0.00  0.00    +0.000 C 
ATOM      4  C   UNL     1       7.623   4.625  16.508  0.00  0.00    +0.000 C 
ATOM      5  C   UNL     1       6.166   4.595  16.021  0.00  0.00    +0.000 C 
ATOM      6  C   UNL     1       5.381   5.782  16.594  0.00  0.00    +0.000 C 
ENDROOT
BRANCH   1   9
ATOM      7  C   UNL     1       3.512   5.307  19.426  0.00  0.00    +0.000 C 
ATOM      8  O   UNL     1       3.092   6.452  19.405  0.00  0.00    +0.000 OA
ATOM      9  N   UNL     1       4.676   4.929  18.815  0.00  0.00    +0.000 N 
ATOM     10  H   UNL     1       4.937   3.955  18.883  0.00  0.00    +0.000 HD
BRANCH   7  11
ATOM     11  O   UNL     1       2.905   4.249  20.022  0.00  0.00    +0.000 OA
BRANCH  11  13
ATOM     12  C   UNL     1       1.644   4.145  17.898  0.00  0.00    +0.000 C 
ATOM     13  C   UNL     1       1.960   3.464  19.238  0.00  0.00    +0.000 C 
ATOM     14  C   UNL     1       0.691   3.159  20.048  0.00  0.00    +0.000 C 
ATOM     15  C   UNL     1       2.657   2.129  18.930  0.00  0.00    +0.000 C 
ENDBRANCH  11  13
ENDBRANCH   7  11
ENDBRANCH   1   9
BRANCH   5  16
ATOM     16  C   UNL     1       6.129   4.611  14.497  0.00  0.00    +0.000 C 
ATOM     17  O   UNL     1       5.249   4.106  13.818  0.00  0.00    +0.000 OA
BRANCH  16  18
ATOM     18  O   UNL     1       7.160   5.280  13.937  0.00  0.00    +0.000 OA
ATOM     19  H   UNL     1       7.899   5.474  14.544  0.00  0.00    +0.000 HD
ENDBRANCH  16  18
ENDBRANCH   5  16
TORSDOF 5
ENDMDL
