MODEL 1
REMARK VINA RESULT:      -7.6      0.000      0.000
REMARK  Name = 
REMARK  4 active torsions:
REMARK  status: ('A' for Active; 'I' for Inactive)
REMARK    1  A    between atoms: C_1  and  C_2
REMARK    2  A    between atoms: N_7  and  C_8
REMARK    3  A    between atoms: C_9  and  S_10
REMARK    4  A    between atoms: S_10  and  C_13
REMARK                            x       y       z     vdW  Elec       q    Type
REMARK                         _______ _______ _______ _____ _____    ______ ____
ROOT
ATOM      1  C   UNL     1       3.070   5.585  18.690  0.00  0.00    +0.000 A 
ATOM      2  C   UNL     1       4.163   5.548  17.783  0.00  0.00    +0.000 A 
ATOM      3  C   UNL     1       4.508   6.703  17.078  0.00  0.00    +0.000 A 
ATOM      4  N   UNL     1       3.900   7.893  17.193  0.00  0.00    +0.000 NA
ATOM      5  C   UNL     1       2.895   7.990  18.055  0.00  0.00    +0.000 A 
ATOM      6  C   UNL     1       2.317   9.252  18.143  0.00  0.00    +0.000 A 
ATOM      7  C   UNL     1       1.267   9.521  19.015  0.00  0.00    +0.000 A 
ATOM      8  C   UNL     1       0.826   8.519  19.850  0.00  0.00    +0.000 A 
ATOM      9  C   UNL     1       1.432   7.258  19.794  0.00  0.00    +0.000 A 
ATOM     10  C   UNL     1       2.444   6.910  18.856  0.00  0.00    +0.000 A 
ENDROOT
BRANCH   1  17
ATOM     11  C   UNL     1       1.725   2.422  18.332  0.00  0.00    +0.000 C 
ATOM     12  C   UNL     1       1.378   3.727  19.053  0.00  0.00    +0.000 C 
ATOM     13  C   UNL     1       0.517   3.472  20.316  0.00  0.00    +0.000 C 
ATOM     14  C   UNL     1       1.297   2.824  21.458  0.00  0.00    +0.000 C 
ATOM     15  C   UNL     1       2.545   3.632  21.762  0.00  0.00    +0.000 C 
ATOM     16  C   UNL     1       3.371   3.848  20.507  0.00  0.00    +0.000 C 
ATOM     17  N   UNL     1       2.588   4.500  19.451  0.00  0.00    +0.000 N 
ENDBRANCH   1  17
BRANCH   2  18
ATOM     18  S   UNL     1       5.206   4.175  17.339  0.00  0.00    +0.000 S 
ATOM     19  O   UNL     1       6.354   4.157  18.222  0.00  0.00    +0.000 OA
ATOM     20  O   UNL     1       4.377   2.983  17.252  0.00  0.00    +0.000 OA
BRANCH  18  21
ATOM     21  C   UNL     1       5.817   4.390  15.665  0.00  0.00    +0.000 A 
ATOM     22  C   UNL     1       7.044   5.020  15.411  0.00  0.00    +0.000 A 
ATOM     23  C   UNL     1       7.558   5.021  14.112  0.00  0.00    +0.000 A 
ATOM     24  C   UNL     1       6.831   4.441  13.073  0.00  0.00    +0.000 A 
ATOM     25 CL   UNL     1       7.475   4.442  11.478  0.00  0.00    +0.000 Cl
ATOM     26  C   UNL     1       5.592   3.848  13.320  0.00  0.00    +0.000 A 
ATOM     27  C   UNL     1       5.086   3.812  14.621  0.00  0.00    +0.000 A 
ENDBRANCH  18  21
ENDBRANCH   2  18
TORSDOF 3
ENDMDL
MODEL 2
REMARK VINA RESULT:      -7.2      6.052      8.970
REMARK  Name = 
REMARK  4 active torsions:
REMARK  status: ('A' for Active; 'I' for Inactive)
REMARK    1  A    between atoms: C_1  and  C_2
REMARK    2  A    between atoms: N_7  and  C_8
REMARK    3  A    between atoms: C_9  and  S_10
REMARK    4  A    between atoms: S_10  and  C_13
REMARK                            x       y       z     vdW  Elec       q    Type
REMARK                         _______ _______ _______ _____ _____    ______ ____
ROOT
ATOM      1  C   UNL     1      -2.140  12.074  19.780  0.00  0.00    +0.000 A 
ATOM      2  C   UNL     1      -1.086  11.382  19.124  0.00  0.00    +0.000 A 
ATOM      3  C   UNL     1      -1.372  10.602  18.002  0.00  0.00    +0.000 A 
ATOM      4  N   UNL     1      -2.586  10.453  17.449  0.00  0.00    +0.000 NA
ATOM      5  C   UNL     1      -3.599  11.108  18.003  0.00  0.00    +0.000 A 
ATOM      6  C   UNL     1      -4.827  10.928  17.376  0.00  0.00    +0.000 A 
ATOM      7  C   UNL     1      -5.981  11.562  17.823  0.00  0.00    +0.000 A 
ATOM      8  C   UNL     1      -5.890  12.433  18.886  0.00  0.00    +0.000 A 
ATOM      9  C   UNL     1      -4.648  12.649  19.495  0.00  0.00    +0.000 A 
ATOM     10  C   UNL     1      -3.460  11.954  19.134  0.00  0.00    +0.000 A 
ENDROOT
BRANCH   1  17
ATOM     11  C   UNL     1      -2.720  15.287  20.913  0.00  0.00    +0.000 C 
ATOM     12  C   UNL     1      -1.557  14.294  20.868  0.00  0.00    +0.000 C 
ATOM     13  C   UNL     1      -0.548  14.541  22.017  0.00  0.00    +0.000 C 
ATOM     14  C   UNL     1      -1.086  14.143  23.390  0.00  0.00    +0.000 C 
ATOM     15  C   UNL     1      -1.588  12.712  23.359  0.00  0.00    +0.000 C 
ATOM     16  C   UNL     1      -2.586  12.510  22.233  0.00  0.00    +0.000 C 
ATOM     17  N   UNL     1      -2.013  12.876  20.933  0.00  0.00    +0.000 N 
ENDBRANCH   1  17
BRANCH   2  18
ATOM     18  S   UNL     1       0.642  11.310  19.548  0.00  0.00    +0.000 S 
ATOM     19  O   UNL     1       1.365  12.250  18.717  0.00  0.00    +0.000 OA
ATOM     20  O   UNL     1       0.762  11.424  20.993  0.00  0.00    +0.000 OA
BRANCH  18  21
ATOM     21  C   UNL     1       1.287   9.673  19.196  0.00  0.00    +0.000 A 
ATOM     22  C   UNL     1       1.865   9.367  17.956  0.00  0.00    +0.000 A 
ATOM     23  C   UNL     1       2.500   8.135  17.780  0.00  0.00    +0.000 A 
ATOM     24  C   UNL     1       2.515   7.203  18.817  0.00  0.00    +0.000 A 
ATOM     25 CL   UNL     1       3.305   5.691  18.594  0.00  0.00    +0.000 Cl
ATOM     26  C   UNL     1       1.906   7.493  20.039  0.00  0.00    +0.000 A 
ATOM     27  C   UNL     1       1.298   8.735  20.236  0.00  0.00    +0.000 A 
ENDBRANCH  18  21
ENDBRANCH   2  18
TORSDOF 3
ENDMDL
MODEL 3
REMARK VINA RESULT:      -7.0      5.920      8.761
REMARK  Name = 
REMARK  4 active torsions:
REMARK  status: ('A' for Active; 'I' for Inactive)
REMARK    1  A    between atoms: C_1  and  C_2
REMARK    2  A    between atoms: N_7  and  C_8
REMARK    3  A    between atoms: C_9  and  S_10
REMARK    4  A    between atoms: S_10  and  C_13
REMARK                            x       y       z     vdW  Elec       q    Type
REMARK                         _______ _______ _______ _____ _____    ______ ____
ROOT
ATOM      1  C   UNL     1      -1.991  11.964  19.715  0.00  0.00    +0.000 A 
ATOM      2  C   UNL     1      -0.936  11.269  19.065  0.00  0.00    +0.000 A 
ATOM      3  C   UNL     1      -1.216  10.504  17.930  0.00  0.00    +0.000 A 
ATOM      4  N   UNL     1      -2.423  10.375  17.360  0.00  0.00    +0.000 NA
ATOM      5  C   UNL     1      -3.437  11.034  17.909  0.00  0.00    +0.000 A 
ATOM      6  C   UNL     1      -4.659  10.874  17.264  0.00  0.00    +0.000 A 
ATOM      7  C   UNL     1      -5.812  11.515  17.703  0.00  0.00    +0.000 A 
ATOM      8  C   UNL     1      -5.726  12.372  18.777  0.00  0.00    +0.000 A 
ATOM      9  C   UNL     1      -4.489  12.568  19.405  0.00  0.00    +0.000 A 
ATOM     10  C   UNL     1      -3.304  11.865  19.050  0.00  0.00    +0.000 A 
ENDROOT
BRANCH   1  17
ATOM     11  C   UNL     1      -1.231  11.715  23.077  0.00  0.00    +0.000 C 
ATOM     12  C   UNL     1      -2.356  12.282  22.208  0.00  0.00    +0.000 C 
ATOM     13  C   UNL     1      -3.084  13.457  22.909  0.00  0.00    +0.000 C 
ATOM     14  C   UNL     1      -2.244  14.729  22.989  0.00  0.00    +0.000 C 
ATOM     15  C   UNL     1      -1.735  15.105  21.610  0.00  0.00    +0.000 C 
ATOM     16  C   UNL     1      -1.013  13.939  20.960  0.00  0.00    +0.000 C 
ATOM     17  N   UNL     1      -1.870  12.751  20.879  0.00  0.00    +0.000 N 
ENDBRANCH   1  17
BRANCH   2  18
ATOM     18  S   UNL     1       0.786  11.174  19.509  0.00  0.00    +0.000 S 
ATOM     19  O   UNL     1       1.523  12.144  18.728  0.00  0.00    +0.000 OA
ATOM     20  O   UNL     1       0.885  11.228  20.959  0.00  0.00    +0.000 OA
BRANCH  18  21
ATOM     21  C   UNL     1       1.431   9.549  19.100  0.00  0.00    +0.000 A 
ATOM     22  C   UNL     1       2.042   9.297  17.863  0.00  0.00    +0.000 A 
ATOM     23  C   UNL     1       2.674   8.069  17.648  0.00  0.00    +0.000 A 
ATOM     24  C   UNL     1       2.655   7.091  18.642  0.00  0.00    +0.000 A 
ATOM     25 CL   UNL     1       3.443   5.586  18.371  0.00  0.00    +0.000 Cl
ATOM     26  C   UNL     1       2.015   7.329  19.859  0.00  0.00    +0.000 A 
ATOM     27  C   UNL     1       1.409   8.565  20.095  0.00  0.00    +0.000 A 
ENDBRANCH  18  21
ENDBRANCH   2  18
TORSDOF 3
ENDMDL
MODEL 4
REMARK VINA RESULT:      -6.8      9.931     12.317
REMARK  Name = 
REMARK  4 active torsions:
REMARK  status: ('A' for Active; 'I' for Inactive)
REMARK    1  A    between atoms: C_1  and  C_2
REMARK    2  A    between atoms: N_7  and  C_8
REMARK    3  A    between atoms: C_9  and  S_10
REMARK    4  A    between atoms: S_10  and  C_13
REMARK                            x       y       z     vdW  Elec       q    Type
REMARK                         _______ _______ _______ _____ _____    ______ ____
ROOT
ATOM      1  C   UNL     1       8.401  13.966  19.978  0.00  0.00    +0.000 A 
ATOM      2  C   UNL     1       8.286  13.629  21.354  0.00  0.00    +0.000 A 
ATOM      3  C   UNL     1       9.122  12.648  21.892  0.00  0.00    +0.000 A 
ATOM      4  N   UNL     1      10.073  11.984  21.218  0.00  0.00    +0.000 NA
ATOM      5  C   UNL     1      10.245  12.287  19.937  0.00  0.00    +0.000 A 
ATOM      6  C   UNL     1      11.256  11.578  19.297  0.00  0.00    +0.000 A 
ATOM      7  C   UNL     1      11.574  11.795  17.961  0.00  0.00    +0.000 A 
ATOM      8  C   UNL     1      10.901  12.778  17.270  0.00  0.00    +0.000 A 
ATOM      9  C   UNL     1       9.910  13.523  17.922  0.00  0.00    +0.000 A 
ATOM     10  C   UNL     1       9.486  13.274  19.258  0.00  0.00    +0.000 A 
ENDROOT
BRANCH   1  17
ATOM     11  C   UNL     1       8.661  16.940  18.238  0.00  0.00    +0.000 C 
ATOM     12  C   UNL     1       7.850  16.378  19.408  0.00  0.00    +0.000 C 
ATOM     13  C   UNL     1       6.480  17.088  19.548  0.00  0.00    +0.000 C 
ATOM     14  C   UNL     1       5.494  16.724  18.440  0.00  0.00    +0.000 C 
ATOM     15  C   UNL     1       5.357  15.217  18.338  0.00  0.00    +0.000 C 
ATOM     16  C   UNL     1       6.715  14.556  18.185  0.00  0.00    +0.000 C 
ATOM     17  N   UNL     1       7.615  14.911  19.288  0.00  0.00    +0.000 N 
ENDBRANCH   1  17
BRANCH   2  18
ATOM     18  S   UNL     1       7.153  14.263  22.572  0.00  0.00    +0.000 S 
ATOM     19  O   UNL     1       7.654  15.532  23.059  0.00  0.00    +0.000 OA
ATOM     20  O   UNL     1       5.810  14.213  22.016  0.00  0.00    +0.000 OA
BRANCH  18  21
ATOM     21  C   UNL     1       7.074  13.142  23.972  0.00  0.00    +0.000 A 
ATOM     22  C   UNL     1       7.782  13.401  25.155  0.00  0.00    +0.000 A 
ATOM     23  C   UNL     1       7.566  12.592  26.274  0.00  0.00    +0.000 A 
ATOM     24  C   UNL     1       6.687  11.512  26.196  0.00  0.00    +0.000 A 
ATOM     25 CL   UNL     1       6.422  10.528  27.581  0.00  0.00    +0.000 Cl
ATOM     26  C   UNL     1       6.011  11.233  25.007  0.00  0.00    +0.000 A 
ATOM     27  C   UNL     1       6.195  12.056  23.893  0.00  0.00    +0.000 A 
ENDBRANCH  18  21
ENDBRANCH   2  18
TORSDOF 3
ENDMDL
MODEL 5
REMARK VINA RESULT:      -6.8      6.738      9.621
REMARK  Name = 
REMARK  4 active torsions:
REMARK  status: ('A' for Active; 'I' for Inactive)
REMARK    1  A    between atoms: C_1  and  C_2
REMARK    2  A    between atoms: N_7  and  C_8
REMARK    3  A    between atoms: C_9  and  S_10
REMARK    4  A    between atoms: S_10  and  C_13
REMARK                            x       y       z     vdW  Elec       q    Type
REMARK                         _______ _______ _______ _____ _____    ______ ____
ROOT
ATOM      1  C   UNL     1      -2.782  12.435  20.001  0.00  0.00    +0.000 A 
ATOM      2  C   UNL     1      -1.713  12.161  19.106  0.00  0.00    +0.000 A 
ATOM      3  C   UNL     1      -1.992  11.626  17.847  0.00  0.00    +0.000 A 
ATOM      4  N   UNL     1      -3.218  11.356  17.374  0.00  0.00    +0.000 NA
ATOM      5  C   UNL     1      -4.254  11.628  18.158  0.00  0.00    +0.000 A 
ATOM      6  C   UNL     1      -5.499  11.342  17.606  0.00  0.00    +0.000 A 
ATOM      7  C   UNL     1      -6.683  11.590  18.292  0.00  0.00    +0.000 A 
ATOM      8  C   UNL     1      -6.618  12.183  19.534  0.00  0.00    +0.000 A 
ATOM      9  C   UNL     1      -5.369  12.509  20.076  0.00  0.00    +0.000 A 
ATOM     10  C   UNL     1      -4.129  12.191  19.453  0.00  0.00    +0.000 A 
ENDROOT
BRANCH   1  17
ATOM     11  C   UNL     1      -1.244  11.779  23.025  0.00  0.00    +0.000 C 
ATOM     12  C   UNL     1      -2.656  12.068  22.510  0.00  0.00    +0.000 C 
ATOM     13  C   UNL     1      -3.540  12.722  23.602  0.00  0.00    +0.000 C 
ATOM     14  C   UNL     1      -3.150  14.166  23.912  0.00  0.00    +0.000 C 
ATOM     15  C   UNL     1      -3.112  14.982  22.634  0.00  0.00    +0.000 C 
ATOM     16  C   UNL     1      -2.224  14.322  21.593  0.00  0.00    +0.000 C 
ATOM     17  N   UNL     1      -2.657  12.949  21.308  0.00  0.00    +0.000 N 
ENDBRANCH   1  17
BRANCH   2  18
ATOM     18  S   UNL     1       0.039  12.363  19.357  0.00  0.00    +0.000 S 
ATOM     19  O   UNL     1       0.594  13.068  18.220  0.00  0.00    +0.000 OA
ATOM     20  O   UNL     1       0.248  12.913  20.687  0.00  0.00    +0.000 OA
BRANCH  18  21
ATOM     21  C   UNL     1       0.832  10.754  19.433  0.00  0.00    +0.000 A 
ATOM     22  C   UNL     1       0.742   9.950  20.578  0.00  0.00    +0.000 A 
ATOM     23  C   UNL     1       1.233   8.642  20.538  0.00  0.00    +0.000 A 
ATOM     24  C   UNL     1       1.848   8.163  19.382  0.00  0.00    +0.000 A 
ATOM     25 CL   UNL     1       2.443   6.549  19.340  0.00  0.00    +0.000 Cl
ATOM     26  C   UNL     1       1.971   8.976  18.255  0.00  0.00    +0.000 A 
ATOM     27  C   UNL     1       1.453  10.274  18.274  0.00  0.00    +0.000 A 
ENDBRANCH  18  21
ENDBRANCH   2  18
TORSDOF 3
ENDMDL
MODEL 6
REMARK VINA RESULT:      -6.8      7.184     10.068
REMARK  Name = 
REMARK  4 active torsions:
REMARK  status: ('A' for Active; 'I' for Inactive)
REMARK    1  A    between atoms: C_1  and  C_2
REMARK    2  A    between atoms: N_7  and  C_8
REMARK    3  A    between atoms: C_9  and  S_10
REMARK    4  A    between atoms: S_10  and  C_13
REMARK                            x       y       z     vdW  Elec       q    Type
REMARK                         _______ _______ _______ _____ _____    ______ ____
ROOT
ATOM      1  C   UNL     1      -3.653  12.139  19.195  0.00  0.00    +0.000 A 
ATOM      2  C   UNL     1      -2.589  12.854  19.806  0.00  0.00    +0.000 A 
ATOM      3  C   UNL     1      -2.852  13.655  20.920  0.00  0.00    +0.000 A 
ATOM      4  N   UNL     1      -4.051  13.803  21.503  0.00  0.00    +0.000 NA
ATOM      5  C   UNL     1      -5.072  13.127  20.991  0.00  0.00    +0.000 A 
ATOM      6  C   UNL     1      -6.285  13.308  21.648  0.00  0.00    +0.000 A 
ATOM      7  C   UNL     1      -7.444  12.654  21.246  0.00  0.00    +0.000 A 
ATOM      8  C   UNL     1      -7.374  11.762  20.199  0.00  0.00    +0.000 A 
ATOM      9  C   UNL     1      -6.146  11.546  19.560  0.00  0.00    +0.000 A 
ATOM     10  C   UNL     1      -4.956  12.260  19.875  0.00  0.00    +0.000 A 
ENDROOT
BRANCH   1  17
ATOM     11  C   UNL     1      -4.007   8.848  18.200  0.00  0.00    +0.000 C 
ATOM     12  C   UNL     1      -2.950   9.951  18.114  0.00  0.00    +0.000 C 
ATOM     13  C   UNL     1      -2.027   9.765  16.883  0.00  0.00    +0.000 C 
ATOM     14  C   UNL     1      -2.722  10.061  15.555  0.00  0.00    +0.000 C 
ATOM     15  C   UNL     1      -3.360  11.437  15.597  0.00  0.00    +0.000 C 
ATOM     16  C   UNL     1      -4.269  11.579  16.804  0.00  0.00    +0.000 C 
ATOM     17  N   UNL     1      -3.550  11.314  18.055  0.00  0.00    +0.000 N 
ENDBRANCH   1  17
BRANCH   2  18
ATOM     18  S   UNL     1      -0.874  12.934  19.334  0.00  0.00    +0.000 S 
ATOM     19  O   UNL     1      -0.792  13.083  17.896  0.00  0.00    +0.000 OA
ATOM     20  O   UNL     1      -0.216  13.924  20.174  0.00  0.00    +0.000 OA
BRANCH  18  21
ATOM     21  C   UNL     1      -0.051  11.398  19.765  0.00  0.00    +0.000 A 
ATOM     22  C   UNL     1      -0.386  10.693  20.930  0.00  0.00    +0.000 A 
ATOM     23  C   UNL     1       0.159   9.424  21.145  0.00  0.00    +0.000 A 
ATOM     24  C   UNL     1       1.063   8.889  20.228  0.00  0.00    +0.000 A 
ATOM     25 CL   UNL     1       1.723   7.323  20.496  0.00  0.00    +0.000 Cl
ATOM     26  C   UNL     1       1.424   9.607  19.087  0.00  0.00    +0.000 A 
ATOM     27  C   UNL     1       0.859  10.862  18.847  0.00  0.00    +0.000 A 
ENDBRANCH  18  21
ENDBRANCH   2  18
TORSDOF 3
ENDMDL
MODEL 7
REMARK VINA RESULT:      -6.8      7.399     10.932
REMARK  Name = 
REMARK  4 active torsions:
REMARK  status: ('A' for Active; 'I' for Inactive)
REMARK    1  A    between atoms: C_1  and  C_2
REMARK    2  A    between atoms: N_7  and  C_8
REMARK    3  A    between atoms: C_9  and  S_10
REMARK    4  A    between atoms: S_10  and  C_13
REMARK                            x       y       z     vdW  Elec       q    Type
REMARK                         _______ _______ _______ _____ _____    ______ ____
ROOT
ATOM      1  C   UNL     1      -1.038  10.980  19.478  0.00  0.00    +0.000 A 
ATOM      2  C   UNL     1      -1.421  11.804  20.571  0.00  0.00    +0.000 A 
ATOM      3  C   UNL     1      -2.656  12.456  20.538  0.00  0.00    +0.000 A 
ATOM      4  N   UNL     1      -3.557  12.360  19.550  0.00  0.00    +0.000 NA
ATOM      5  C   UNL     1      -3.262  11.574  18.521  0.00  0.00    +0.000 A 
ATOM      6  C   UNL     1      -4.243  11.503  17.537  0.00  0.00    +0.000 A 
ATOM      7  C   UNL     1      -4.094  10.707  16.407  0.00  0.00    +0.000 A 
ATOM      8  C   UNL     1      -2.963   9.929  16.288  0.00  0.00    +0.000 A 
ATOM      9  C   UNL     1      -1.992   9.967  17.296  0.00  0.00    +0.000 A 
ATOM     10  C   UNL     1      -2.057  10.834  18.423  0.00  0.00    +0.000 A 
ENDROOT
BRANCH   1  17
ATOM     11  C   UNL     1       2.211  11.391  18.373  0.00  0.00    +0.000 C 
ATOM     12  C   UNL     1       1.054  10.414  18.153  0.00  0.00    +0.000 C 
ATOM     13  C   UNL     1       1.562   9.004  17.756  0.00  0.00    +0.000 C 
ATOM     14  C   UNL     1       2.230   8.256  18.907  0.00  0.00    +0.000 C 
ATOM     15  C   UNL     1       1.308   8.219  20.111  0.00  0.00    +0.000 C 
ATOM     16  C   UNL     1       0.843   9.616  20.482  0.00  0.00    +0.000 C 
ATOM     17  N   UNL     1       0.181  10.282  19.355  0.00  0.00    +0.000 N 
ENDBRANCH   1  17
BRANCH   2  18
ATOM     18  S   UNL     1      -0.513  12.197  22.051  0.00  0.00    +0.000 S 
ATOM     19  O   UNL     1      -0.440  11.014  22.882  0.00  0.00    +0.000 OA
ATOM     20  O   UNL     1       0.727  12.852  21.664  0.00  0.00    +0.000 OA
BRANCH  18  21
ATOM     21  C   UNL     1      -1.386  13.458  22.984  0.00  0.00    +0.000 A 
ATOM     22  C   UNL     1      -1.049  14.815  22.869  0.00  0.00    +0.000 A 
ATOM     23  C   UNL     1      -1.856  15.776  23.484  0.00  0.00    +0.000 A 
ATOM     24  C   UNL     1      -2.958  15.381  24.241  0.00  0.00    +0.000 A 
ATOM     25 CL   UNL     1      -3.950  16.571  24.988  0.00  0.00    +0.000 Cl
ATOM     26  C   UNL     1      -3.271  14.029  24.386  0.00  0.00    +0.000 A 
ATOM     27  C   UNL     1      -2.489  13.062  23.748  0.00  0.00    +0.000 A 
ENDBRANCH  18  21
ENDBRANCH   2  18
TORSDOF 3
ENDMDL
MODEL 8
REMARK VINA RESULT:      -6.8      5.970      8.836
REMARK  Name = 
REMARK  4 active torsions:
REMARK  status: ('A' for Active; 'I' for Inactive)
REMARK    1  A    between atoms: C_1  and  C_2
REMARK    2  A    between atoms: N_7  and  C_8
REMARK    3  A    between atoms: C_9  and  S_10
REMARK    4  A    between atoms: S_10  and  C_13
REMARK                            x       y       z     vdW  Elec       q    Type
REMARK                         _______ _______ _______ _____ _____    ______ ____
ROOT
ATOM      1  C   UNL     1      -2.032  11.947  19.909  0.00  0.00    +0.000 A 
ATOM      2  C   UNL     1      -0.927  11.203  19.415  0.00  0.00    +0.000 A 
ATOM      3  C   UNL     1      -1.095  10.390  18.292  0.00  0.00    +0.000 A 
ATOM      4  N   UNL     1      -2.234  10.255  17.595  0.00  0.00    +0.000 NA
ATOM      5  C   UNL     1      -3.287  10.958  17.995  0.00  0.00    +0.000 A 
ATOM      6  C   UNL     1      -4.432  10.789  17.223  0.00  0.00    +0.000 A 
ATOM      7  C   UNL     1      -5.612  11.471  17.499  0.00  0.00    +0.000 A 
ATOM      8  C   UNL     1      -5.627  12.378  18.536  0.00  0.00    +0.000 A 
ATOM      9  C   UNL     1      -4.464  12.581  19.290  0.00  0.00    +0.000 A 
ATOM     10  C   UNL     1      -3.263  11.840  19.105  0.00  0.00    +0.000 A 
ENDROOT
BRANCH   1  17
ATOM     11  C   UNL     1      -1.719  11.839  23.349  0.00  0.00    +0.000 C 
ATOM     12  C   UNL     1      -2.696  12.406  22.317  0.00  0.00    +0.000 C 
ATOM     13  C   UNL     1      -3.454  13.642  22.864  0.00  0.00    +0.000 C 
ATOM     14  C   UNL     1      -2.572  14.883  22.994  0.00  0.00    +0.000 C 
ATOM     15  C   UNL     1      -1.876  15.168  21.678  0.00  0.00    +0.000 C 
ATOM     16  C   UNL     1      -1.131  13.942  21.179  0.00  0.00    +0.000 C 
ATOM     17  N   UNL     1      -2.024  12.787  21.042  0.00  0.00    +0.000 N 
ENDBRANCH   1  17
BRANCH   2  18
ATOM     18  S   UNL     1       0.731  11.098  20.056  0.00  0.00    +0.000 S 
ATOM     19  O   UNL     1       1.511  12.191  19.513  0.00  0.00    +0.000 OA
ATOM     20  O   UNL     1       0.652  10.950  21.501  0.00  0.00    +0.000 OA
BRANCH  18  21
ATOM     21  C   UNL     1       1.498   9.568  19.514  0.00  0.00    +0.000 A 
ATOM     22  C   UNL     1       1.559   8.446  20.352  0.00  0.00    +0.000 A 
ATOM     23  C   UNL     1       2.015   7.229  19.838  0.00  0.00    +0.000 A 
ATOM     24  C   UNL     1       2.447   7.149  18.514  0.00  0.00    +0.000 A 
ATOM     25 CL   UNL     1       2.999   5.646  17.887  0.00  0.00    +0.000 Cl
ATOM     26  C   UNL     1       2.420   8.275  17.691  0.00  0.00    +0.000 A 
ATOM     27  C   UNL     1       1.935   9.488  18.187  0.00  0.00    +0.000 A 
ENDBRANCH  18  21
ENDBRANCH   2  18
TORSDOF 3
ENDMDL
MODEL 9
REMARK VINA RESULT:      -6.7      7.456     11.010
REMARK  Name = 
REMARK  4 active torsions:
REMARK  status: ('A' for Active; 'I' for Inactive)
REMARK    1  A    between atoms: C_1  and  C_2
REMARK    2  A    between atoms: N_7  and  C_8
REMARK    3  A    between atoms: C_9  and  S_10
REMARK    4  A    between atoms: S_10  and  C_13
REMARK                            x       y       z     vdW  Elec       q    Type
REMARK                         _______ _______ _______ _____ _____    ______ ____
ROOT
ATOM      1  C   UNL     1      -1.058  11.076  19.536  0.00  0.00    +0.000 A 
ATOM      2  C   UNL     1      -1.413  11.926  20.618  0.00  0.00    +0.000 A 
ATOM      3  C   UNL     1      -2.648  12.579  20.600  0.00  0.00    +0.000 A 
ATOM      4  N   UNL     1      -3.574  12.460  19.637  0.00  0.00    +0.000 NA
ATOM      5  C   UNL     1      -3.305  11.648  18.622  0.00  0.00    +0.000 A 
ATOM      6  C   UNL     1      -4.310  11.553  17.665  0.00  0.00    +0.000 A 
ATOM      7  C   UNL     1      -4.190  10.729  16.551  0.00  0.00    +0.000 A 
ATOM      8  C   UNL     1      -3.064   9.947  16.423  0.00  0.00    +0.000 A 
ATOM      9  C   UNL     1      -2.067  10.009  17.405  0.00  0.00    +0.000 A 
ATOM     10  C   UNL     1      -2.103  10.904  18.511  0.00  0.00    +0.000 A 
ENDROOT
BRANCH   1  17
ATOM     11  C   UNL     1       2.212  11.509  18.505  0.00  0.00    +0.000 C 
ATOM     12  C   UNL     1       1.051  10.554  18.221  0.00  0.00    +0.000 C 
ATOM     13  C   UNL     1       1.554   9.161  17.765  0.00  0.00    +0.000 C 
ATOM     14  C   UNL     1       2.197   8.352  18.890  0.00  0.00    +0.000 C 
ATOM     15  C   UNL     1       1.254   8.267  20.075  0.00  0.00    +0.000 C 
ATOM     16  C   UNL     1       0.794   9.648  20.505  0.00  0.00    +0.000 C 
ATOM     17  N   UNL     1       0.157  10.373  19.400  0.00  0.00    +0.000 N 
ENDBRANCH   1  17
BRANCH   2  18
ATOM     18  S   UNL     1      -0.467  12.356  22.065  0.00  0.00    +0.000 S 
ATOM     19  O   UNL     1      -0.488  11.237  22.984  0.00  0.00    +0.000 OA
ATOM     20  O   UNL     1       0.820  12.876  21.629  0.00  0.00    +0.000 OA
BRANCH  18  21
ATOM     21  C   UNL     1      -1.229  13.752  22.897  0.00  0.00    +0.000 A 
ATOM     22  C   UNL     1      -2.259  13.571  23.831  0.00  0.00    +0.000 A 
ATOM     23  C   UNL     1      -2.711  14.665  24.575  0.00  0.00    +0.000 A 
ATOM     24  C   UNL     1      -2.170  15.930  24.352  0.00  0.00    +0.000 A 
ATOM     25 CL   UNL     1      -2.727  17.269  25.277  0.00  0.00    +0.000 Cl
ATOM     26  C   UNL     1      -1.171  16.117  23.396  0.00  0.00    +0.000 A 
ATOM     27  C   UNL     1      -0.690  15.023  22.671  0.00  0.00    +0.000 A 
ENDBRANCH  18  21
ENDBRANCH   2  18
TORSDOF 3
ENDMDL
