MODEL 1
REMARK VINA RESULT:      -6.8      0.000      0.000
REMARK  Name = 
REMARK  8 active torsions:
REMARK  status: ('A' for Active; 'I' for Inactive)
REMARK    1  A    between atoms: C_1  and  O_2
REMARK    2  A    between atoms: O_2  and  C_3
REMARK    3  A    between atoms: C_3  and  C_5
REMARK    4  A    between atoms: C_8  and  C_9
REMARK    5  A    between atoms: C_10  and  C_11
REMARK    6  A    between atoms: C_11  and  C_13
REMARK    7  A    between atoms: C_20  and  O_21
REMARK    8  A    between atoms: N_24  and  C_25
REMARK                            x       y       z     vdW  Elec       q    Type
REMARK                         _______ _______ _______ _____ _____    ______ ____
ROOT
ATOM      1  C   UNL     1       1.344  12.439  20.541  0.00  0.00    +0.000 C 
ATOM      2  C   UNL     1       1.489  11.724  19.238  0.00  0.00    +0.000 C 
ATOM      3  C   UNL     1       2.233  12.411  18.367  0.00  0.00    +0.000 C 
ATOM      4  C   UNL     1       2.760  13.589  19.090  0.00  0.00    +0.000 C 
ATOM      5  O   UNL     1       3.682  14.277  18.696  0.00  0.00    +0.000 OA
ATOM      6  N   UNL     1       2.068  13.696  20.306  0.00  0.00    +0.000 N 
ENDROOT
BRANCH   6   7
ATOM      7  C   UNL     1       2.615  14.515  21.418  0.00  0.00    +0.000 C 
ATOM      8  C   UNL     1       1.574  15.379  22.161  0.00  0.00    +0.000 C 
ATOM      9  C   UNL     1       1.309  16.592  21.282  0.00  0.00    +0.000 C 
ATOM     10  S   UNL     1       2.923  17.088  20.736  0.00  0.00    +0.000 S 
ATOM     11  O   UNL     1       3.435  18.051  21.689  0.00  0.00    +0.000 OA
ATOM     12  O   UNL     1       2.865  17.354  19.316  0.00  0.00    +0.000 OA
ATOM     13  C   UNL     1       3.724  15.520  21.030  0.00  0.00    +0.000 C 
ENDBRANCH   6   7
BRANCH   1  17
ATOM     14  C   UNL     1      -2.815  12.978  21.595  0.00  0.00    +0.000 A 
ATOM     15  C   UNL     1      -2.282  13.620  20.470  0.00  0.00    +0.000 A 
ATOM     16  C   UNL     1      -0.934  13.469  20.150  0.00  0.00    +0.000 A 
ATOM     17  C   UNL     1      -0.100  12.659  20.938  0.00  0.00    +0.000 A 
ATOM     18  C   UNL     1      -0.637  12.032  22.073  0.00  0.00    +0.000 A 
ATOM     19  C   UNL     1      -1.988  12.176  22.389  0.00  0.00    +0.000 A 
BRANCH  14  20
ATOM     20  C   UNL     1      -4.250  13.193  21.907  0.00  0.00    +0.000 C 
ATOM     21  O   UNL     1      -4.931  14.061  21.386  0.00  0.00    +0.000 OA
BRANCH  20  23
ATOM     22  C   UNL     1      -5.333  12.937  23.957  0.00  0.00    +0.000 C 
ATOM     23  O   UNL     1      -4.656  12.323  22.863  0.00  0.00    +0.000 OA
ENDBRANCH  20  23
ENDBRANCH  14  20
ENDBRANCH   1  17
BRANCH   2  24
ATOM     24  C   UNL     1       0.848  10.463  18.815  0.00  0.00    +0.000 C 
ATOM     25  O   UNL     1      -0.249  10.502  18.258  0.00  0.00    +0.000 OA
BRANCH  24  26
ATOM     26  C   UNL     1       1.513   9.150  19.017  0.00  0.00    +0.000 A 
ATOM     27  C   UNL     1       1.374   8.522  20.262  0.00  0.00    +0.000 A 
ATOM     28  C   UNL     1       1.932   7.259  20.482  0.00  0.00    +0.000 A 
ATOM     29  C   UNL     1       2.640   6.627  19.464  0.00  0.00    +0.000 A 
ATOM     30 CL   UNL     1       3.320   5.069  19.724  0.00  0.00    +0.000 Cl
ATOM     31  C   UNL     1       2.775   7.237  18.220  0.00  0.00    +0.000 A 
ATOM     32  C   UNL     1       2.186   8.483  17.986  0.00  0.00    +0.000 A 
ENDBRANCH  24  26
ENDBRANCH   2  24
BRANCH   3  33
ATOM     33  O   UNL     1       2.529  12.109  17.068  0.00  0.00    +0.000 OA
ATOM     34  H   UNL     1       3.507  12.094  16.985  0.00  0.00    +0.000 HD
ENDBRANCH   3  33
TORSDOF 7
ENDMDL
MODEL 2
REMARK VINA RESULT:      -6.8      0.572      1.084
REMARK  Name = 
REMARK  8 active torsions:
REMARK  status: ('A' for Active; 'I' for Inactive)
REMARK    1  A    between atoms: C_1  and  O_2
REMARK    2  A    between atoms: O_2  and  C_3
REMARK    3  A    between atoms: C_3  and  C_5
REMARK    4  A    between atoms: C_8  and  C_9
REMARK    5  A    between atoms: C_10  and  C_11
REMARK    6  A    between atoms: C_11  and  C_13
REMARK    7  A    between atoms: C_20  and  O_21
REMARK    8  A    between atoms: N_24  and  C_25
REMARK                            x       y       z     vdW  Elec       q    Type
REMARK                         _______ _______ _______ _____ _____    ______ ____
ROOT
ATOM      1  C   UNL     1       1.336  12.674  20.634  0.00  0.00    +0.000 C 
ATOM      2  C   UNL     1       1.433  12.002  19.304  0.00  0.00    +0.000 C 
ATOM      3  C   UNL     1       2.191  12.693  18.446  0.00  0.00    +0.000 C 
ATOM      4  C   UNL     1       2.772  13.822  19.202  0.00  0.00    +0.000 C 
ATOM      5  O   UNL     1       3.714  14.489  18.819  0.00  0.00    +0.000 OA
ATOM      6  N   UNL     1       2.103  13.910  20.434  0.00  0.00    +0.000 N 
ENDROOT
BRANCH   6   7
ATOM      7  C   UNL     1       2.698  14.667  21.565  0.00  0.00    +0.000 C 
ATOM      8  C   UNL     1       1.701  15.539  22.357  0.00  0.00    +0.000 C 
ATOM      9  C   UNL     1       1.468  16.794  21.528  0.00  0.00    +0.000 C 
ATOM     10  S   UNL     1       3.090  17.250  20.973  0.00  0.00    +0.000 S 
ATOM     11  O   UNL     1       3.652  18.158  21.953  0.00  0.00    +0.000 OA
ATOM     12  O   UNL     1       3.020  17.572  19.566  0.00  0.00    +0.000 OA
ATOM     13  C   UNL     1       3.836  15.644  21.195  0.00  0.00    +0.000 C 
ENDBRANCH   6   7
BRANCH   1  17
ATOM     14  C   UNL     1      -2.784  13.329  21.775  0.00  0.00    +0.000 A 
ATOM     15  C   UNL     1      -2.245  13.989  20.664  0.00  0.00    +0.000 A 
ATOM     16  C   UNL     1      -0.908  13.800  20.316  0.00  0.00    +0.000 A 
ATOM     17  C   UNL     1      -0.093  12.933  21.063  0.00  0.00    +0.000 A 
ATOM     18  C   UNL     1      -0.636  12.288  22.185  0.00  0.00    +0.000 A 
ATOM     19  C   UNL     1      -1.975  12.471  22.528  0.00  0.00    +0.000 A 
BRANCH  14  20
ATOM     20  C   UNL     1      -4.205  13.585  22.118  0.00  0.00    +0.000 C 
ATOM     21  O   UNL     1      -4.635  14.683  22.432  0.00  0.00    +0.000 OA
BRANCH  20  23
ATOM     22  C   UNL     1      -5.764  12.321  20.929  0.00  0.00    +0.000 C 
ATOM     23  O   UNL     1      -4.913  12.431  22.068  0.00  0.00    +0.000 OA
ENDBRANCH  20  23
ENDBRANCH  14  20
ENDBRANCH   1  17
BRANCH   2  24
ATOM     24  C   UNL     1       0.739  10.783  18.846  0.00  0.00    +0.000 C 
ATOM     25  O   UNL     1      -0.300  10.890  18.195  0.00  0.00    +0.000 OA
BRANCH  24  26
ATOM     26  C   UNL     1       1.284   9.429  19.123  0.00  0.00    +0.000 A 
ATOM     27  C   UNL     1       2.001   8.784  18.106  0.00  0.00    +0.000 A 
ATOM     28  C   UNL     1       2.583   7.534  18.338  0.00  0.00    +0.000 A 
ATOM     29  C   UNL     1       2.439   6.921  19.580  0.00  0.00    +0.000 A 
ATOM     30 CL   UNL     1       3.161   5.388  19.874  0.00  0.00    +0.000 Cl
ATOM     31  C   UNL     1       1.738   7.557  20.599  0.00  0.00    +0.000 A 
ATOM     32  C   UNL     1       1.187   8.824  20.382  0.00  0.00    +0.000 A 
ENDBRANCH  24  26
ENDBRANCH   2  24
BRANCH   3  33
ATOM     33  O   UNL     1       2.455  12.428  17.132  0.00  0.00    +0.000 OA
ATOM     34  H   UNL     1       2.849  11.530  17.088  0.00  0.00    +0.000 HD
ENDBRANCH   3  33
TORSDOF 7
ENDMDL
MODEL 3
REMARK VINA RESULT:      -6.7      0.518      1.086
REMARK  Name = 
REMARK  8 active torsions:
REMARK  status: ('A' for Active; 'I' for Inactive)
REMARK    1  A    between atoms: C_1  and  O_2
REMARK    2  A    between atoms: O_2  and  C_3
REMARK    3  A    between atoms: C_3  and  C_5
REMARK    4  A    between atoms: C_8  and  C_9
REMARK    5  A    between atoms: C_10  and  C_11
REMARK    6  A    between atoms: C_11  and  C_13
REMARK    7  A    between atoms: C_20  and  O_21
REMARK    8  A    between atoms: N_24  and  C_25
REMARK                            x       y       z     vdW  Elec       q    Type
REMARK                         _______ _______ _______ _____ _____    ______ ____
ROOT
ATOM      1  C   UNL     1       1.118  12.434  20.634  0.00  0.00    +0.000 C 
ATOM      2  C   UNL     1       1.344  11.756  19.322  0.00  0.00    +0.000 C 
ATOM      3  C   UNL     1       2.108  12.486  18.504  0.00  0.00    +0.000 C 
ATOM      4  C   UNL     1       2.566  13.659  19.279  0.00  0.00    +0.000 C 
ATOM      5  O   UNL     1       3.485  14.383  18.946  0.00  0.00    +0.000 OA
ATOM      6  N   UNL     1       1.815  13.715  20.464  0.00  0.00    +0.000 N 
ENDROOT
BRANCH   6   7
ATOM      7  C   UNL     1       2.286  14.521  21.620  0.00  0.00    +0.000 C 
ATOM      8  C   UNL     1       1.178  15.297  22.364  0.00  0.00    +0.000 C 
ATOM      9  C   UNL     1       0.870  16.526  21.522  0.00  0.00    +0.000 C 
ATOM     10  S   UNL     1       2.468  17.131  21.041  0.00  0.00    +0.000 S 
ATOM     11  O   UNL     1       2.899  18.083  22.043  0.00  0.00    +0.000 OA
ATOM     12  O   UNL     1       2.432  17.447  19.631  0.00  0.00    +0.000 OA
ATOM     13  C   UNL     1       3.346  15.599  21.300  0.00  0.00    +0.000 C 
ENDBRANCH   6   7
BRANCH   1  17
ATOM     14  C   UNL     1      -3.042  13.008  21.667  0.00  0.00    +0.000 A 
ATOM     15  C   UNL     1      -2.217  12.214  22.472  0.00  0.00    +0.000 A 
ATOM     16  C   UNL     1      -0.884  12.005  22.121  0.00  0.00    +0.000 A 
ATOM     17  C   UNL     1      -0.348  12.603  20.968  0.00  0.00    +0.000 A 
ATOM     18  C   UNL     1      -1.186  13.384  20.156  0.00  0.00    +0.000 A 
ATOM     19  C   UNL     1      -2.517  13.599  20.512  0.00  0.00    +0.000 A 
BRANCH  14  20
ATOM     20  C   UNL     1      -4.460  13.176  22.071  0.00  0.00    +0.000 C 
ATOM     21  O   UNL     1      -5.266  12.261  22.098  0.00  0.00    +0.000 OA
BRANCH  20  23
ATOM     22  C   UNL     1      -4.649  14.791  23.744  0.00  0.00    +0.000 C 
ATOM     23  O   UNL     1      -4.713  14.477  22.355  0.00  0.00    +0.000 OA
ENDBRANCH  20  23
ENDBRANCH  14  20
ENDBRANCH   1  17
BRANCH   2  24
ATOM     24  C   UNL     1       0.761  10.489  18.839  0.00  0.00    +0.000 C 
ATOM     25  O   UNL     1      -0.315  10.511  18.240  0.00  0.00    +0.000 OA
BRANCH  24  26
ATOM     26  C   UNL     1       1.459   9.192  19.027  0.00  0.00    +0.000 A 
ATOM     27  C   UNL     1       1.330   8.545  20.264  0.00  0.00    +0.000 A 
ATOM     28  C   UNL     1       1.920   7.295  20.472  0.00  0.00    +0.000 A 
ATOM     29  C   UNL     1       2.651   6.695  19.450  0.00  0.00    +0.000 A 
ATOM     30 CL   UNL     1       3.372   5.153  19.695  0.00  0.00    +0.000 Cl
ATOM     31  C   UNL     1       2.777   7.324  18.215  0.00  0.00    +0.000 A 
ATOM     32  C   UNL     1       2.156   8.557  17.993  0.00  0.00    +0.000 A 
ENDBRANCH  24  26
ENDBRANCH   2  24
BRANCH   3  33
ATOM     33  O   UNL     1       2.472  12.226  17.213  0.00  0.00    +0.000 OA
ATOM     34  H   UNL     1       2.666  11.265  17.151  0.00  0.00    +0.000 HD
ENDBRANCH   3  33
TORSDOF 7
ENDMDL
MODEL 4
REMARK VINA RESULT:      -6.7      3.908      6.487
REMARK  Name = 
REMARK  8 active torsions:
REMARK  status: ('A' for Active; 'I' for Inactive)
REMARK    1  A    between atoms: C_1  and  O_2
REMARK    2  A    between atoms: O_2  and  C_3
REMARK    3  A    between atoms: C_3  and  C_5
REMARK    4  A    between atoms: C_8  and  C_9
REMARK    5  A    between atoms: C_10  and  C_11
REMARK    6  A    between atoms: C_11  and  C_13
REMARK    7  A    between atoms: C_20  and  O_21
REMARK    8  A    between atoms: N_24  and  C_25
REMARK                            x       y       z     vdW  Elec       q    Type
REMARK                         _______ _______ _______ _____ _____    ______ ____
ROOT
ATOM      1  C   UNL     1      -2.098  11.479  19.291  0.00  0.00    +0.000 C 
ATOM      2  C   UNL     1      -0.819  12.243  19.393  0.00  0.00    +0.000 C 
ATOM      3  C   UNL     1      -0.997  13.453  19.932  0.00  0.00    +0.000 C 
ATOM      4  C   UNL     1      -2.411  13.526  20.360  0.00  0.00    +0.000 C 
ATOM      5  O   UNL     1      -2.851  14.363  21.125  0.00  0.00    +0.000 OA
ATOM      6  N   UNL     1      -3.091  12.435  19.797  0.00  0.00    +0.000 N 
ENDROOT
BRANCH   6   7
ATOM      7  C   UNL     1      -4.405  12.002  20.339  0.00  0.00    +0.000 C 
ATOM      8  C   UNL     1      -5.467  11.664  19.272  0.00  0.00    +0.000 C 
ATOM      9  C   UNL     1      -6.015  12.992  18.770  0.00  0.00    +0.000 C 
ATOM     10  S   UNL     1      -6.242  13.950  20.246  0.00  0.00    +0.000 S 
ATOM     11  O   UNL     1      -7.591  13.719  20.719  0.00  0.00    +0.000 OA
ATOM     12  O   UNL     1      -5.714  15.276  20.017  0.00  0.00    +0.000 OA
ATOM     13  C   UNL     1      -5.116  13.014  21.266  0.00  0.00    +0.000 C 
ENDBRANCH   6   7
BRANCH   1  17
ATOM     14  C   UNL     1      -2.844  10.193  15.230  0.00  0.00    +0.000 A 
ATOM     15  C   UNL     1      -3.159  11.498  15.627  0.00  0.00    +0.000 A 
ATOM     16  C   UNL     1      -2.946  11.901  16.945  0.00  0.00    +0.000 A 
ATOM     17  C   UNL     1      -2.397  11.011  17.883  0.00  0.00    +0.000 A 
ATOM     18  C   UNL     1      -2.099   9.700  17.482  0.00  0.00    +0.000 A 
ATOM     19  C   UNL     1      -2.304   9.299  16.161  0.00  0.00    +0.000 A 
BRANCH  14  20
ATOM     20  C   UNL     1      -3.114   9.807  13.823  0.00  0.00    +0.000 C 
ATOM     21  O   UNL     1      -2.241   9.501  13.028  0.00  0.00    +0.000 OA
BRANCH  20  23
ATOM     22  C   UNL     1      -4.779   9.679  12.194  0.00  0.00    +0.000 C 
ATOM     23  O   UNL     1      -4.442   9.887  13.563  0.00  0.00    +0.000 OA
ENDBRANCH  20  23
ENDBRANCH  14  20
ENDBRANCH   1  17
BRANCH   2  24
ATOM     24  C   UNL     1       0.517  11.854  18.898  0.00  0.00    +0.000 C 
ATOM     25  O   UNL     1       1.219  12.695  18.337  0.00  0.00    +0.000 OA
BRANCH  24  26
ATOM     26  C   UNL     1       1.046  10.480  19.093  0.00  0.00    +0.000 A 
ATOM     27  C   UNL     1       0.841   9.861  20.334  0.00  0.00    +0.000 A 
ATOM     28  C   UNL     1       1.269   8.548  20.547  0.00  0.00    +0.000 A 
ATOM     29  C   UNL     1       1.916   7.855  19.527  0.00  0.00    +0.000 A 
ATOM     30 CL   UNL     1       2.437   6.236  19.779  0.00  0.00    +0.000 Cl
ATOM     31  C   UNL     1       2.116   8.456  18.288  0.00  0.00    +0.000 A 
ATOM     32  C   UNL     1       1.655   9.756  18.061  0.00  0.00    +0.000 A 
ENDBRANCH  24  26
ENDBRANCH   2  24
BRANCH   3  33
ATOM     33  O   UNL     1      -0.081  14.448  20.124  0.00  0.00    +0.000 OA
ATOM     34  H   UNL     1      -0.579  15.286  20.243  0.00  0.00    +0.000 HD
ENDBRANCH   3  33
TORSDOF 7
ENDMDL
MODEL 5
REMARK VINA RESULT:      -6.7      0.245      1.214
REMARK  Name = 
REMARK  8 active torsions:
REMARK  status: ('A' for Active; 'I' for Inactive)
REMARK    1  A    between atoms: C_1  and  O_2
REMARK    2  A    between atoms: O_2  and  C_3
REMARK    3  A    between atoms: C_3  and  C_5
REMARK    4  A    between atoms: C_8  and  C_9
REMARK    5  A    between atoms: C_10  and  C_11
REMARK    6  A    between atoms: C_11  and  C_13
REMARK    7  A    between atoms: C_20  and  O_21
REMARK    8  A    between atoms: N_24  and  C_25
REMARK                            x       y       z     vdW  Elec       q    Type
REMARK                         _______ _______ _______ _____ _____    ______ ____
ROOT
ATOM      1  C   UNL     1       1.220  12.525  20.592  0.00  0.00    +0.000 C 
ATOM      2  C   UNL     1       1.399  11.853  19.270  0.00  0.00    +0.000 C 
ATOM      3  C   UNL     1       2.178  12.563  18.447  0.00  0.00    +0.000 C 
ATOM      4  C   UNL     1       2.692  13.709  19.227  0.00  0.00    +0.000 C 
ATOM      5  O   UNL     1       3.633  14.401  18.887  0.00  0.00    +0.000 OA
ATOM      6  N   UNL     1       1.962  13.781  20.424  0.00  0.00    +0.000 N 
ENDROOT
BRANCH   6   7
ATOM      7  C   UNL     1       2.481  14.556  21.581  0.00  0.00    +0.000 C 
ATOM      8  C   UNL     1       1.430  15.425  22.302  0.00  0.00    +0.000 C 
ATOM      9  C   UNL     1       1.233  16.669  21.447  0.00  0.00    +0.000 C 
ATOM     10  S   UNL     1       2.881  17.137  20.984  0.00  0.00    +0.000 S 
ATOM     11  O   UNL     1       3.374  18.061  21.985  0.00  0.00    +0.000 OA
ATOM     12  O   UNL     1       2.890  17.443  19.572  0.00  0.00    +0.000 OA
ATOM     13  C   UNL     1       3.629  15.542  21.268  0.00  0.00    +0.000 C 
ENDBRANCH   6   7
BRANCH   1  17
ATOM     14  C   UNL     1      -2.898  13.237  21.703  0.00  0.00    +0.000 A 
ATOM     15  C   UNL     1      -2.119  12.325  22.425  0.00  0.00    +0.000 A 
ATOM     16  C   UNL     1      -0.801  12.075  22.047  0.00  0.00    +0.000 A 
ATOM     17  C   UNL     1      -0.234  12.745  20.950  0.00  0.00    +0.000 A 
ATOM     18  C   UNL     1      -1.026  13.646  20.221  0.00  0.00    +0.000 A 
ATOM     19  C   UNL     1      -2.343  13.902  20.605  0.00  0.00    +0.000 A 
BRANCH  14  20
ATOM     20  C   UNL     1      -4.304  13.448  22.131  0.00  0.00    +0.000 C 
ATOM     21  O   UNL     1      -4.957  14.436  21.838  0.00  0.00    +0.000 OA
BRANCH  20  23
ATOM     22  C   UNL     1      -5.155  12.812  24.208  0.00  0.00    +0.000 C 
ATOM     23  O   UNL     1      -4.714  12.418  22.911  0.00  0.00    +0.000 OA
ENDBRANCH  20  23
ENDBRANCH  14  20
ENDBRANCH   1  17
BRANCH   2  24
ATOM     24  C   UNL     1       0.762  10.614  18.783  0.00  0.00    +0.000 C 
ATOM     25  O   UNL     1      -0.269  10.690  18.113  0.00  0.00    +0.000 OA
BRANCH  24  26
ATOM     26  C   UNL     1       1.353   9.279  19.054  0.00  0.00    +0.000 A 
ATOM     27  C   UNL     1       2.112   8.674  18.042  0.00  0.00    +0.000 A 
ATOM     28  C   UNL     1       2.737   7.445  18.269  0.00  0.00    +0.000 A 
ATOM     29  C   UNL     1       2.595   6.811  19.501  0.00  0.00    +0.000 A 
ATOM     30 CL   UNL     1       3.369   5.303  19.789  0.00  0.00    +0.000 Cl
ATOM     31  C   UNL     1       1.852   7.407  20.514  0.00  0.00    +0.000 A 
ATOM     32  C   UNL     1       1.257   8.654  20.303  0.00  0.00    +0.000 A 
ENDBRANCH  24  26
ENDBRANCH   2  24
BRANCH   3  33
ATOM     33  O   UNL     1       2.513  12.302  17.148  0.00  0.00    +0.000 OA
ATOM     34  H   UNL     1       1.721  12.490  16.599  0.00  0.00    +0.000 HD
ENDBRANCH   3  33
TORSDOF 7
ENDMDL
MODEL 6
REMARK VINA RESULT:      -6.7      4.035      6.741
REMARK  Name = 
REMARK  8 active torsions:
REMARK  status: ('A' for Active; 'I' for Inactive)
REMARK    1  A    between atoms: C_1  and  O_2
REMARK    2  A    between atoms: O_2  and  C_3
REMARK    3  A    between atoms: C_3  and  C_5
REMARK    4  A    between atoms: C_8  and  C_9
REMARK    5  A    between atoms: C_10  and  C_11
REMARK    6  A    between atoms: C_11  and  C_13
REMARK    7  A    between atoms: C_20  and  O_21
REMARK    8  A    between atoms: N_24  and  C_25
REMARK                            x       y       z     vdW  Elec       q    Type
REMARK                         _______ _______ _______ _____ _____    ______ ____
ROOT
ATOM      1  C   UNL     1      -2.308  11.365  19.298  0.00  0.00    +0.000 C 
ATOM      2  C   UNL     1      -1.034  12.105  19.548  0.00  0.00    +0.000 C 
ATOM      3  C   UNL     1      -1.246  13.288  20.132  0.00  0.00    +0.000 C 
ATOM      4  C   UNL     1      -2.690  13.359  20.443  0.00  0.00    +0.000 C 
ATOM      5  O   UNL     1      -3.185  14.161  21.211  0.00  0.00    +0.000 OA
ATOM      6  N   UNL     1      -3.331  12.308  19.768  0.00  0.00    +0.000 N 
ENDROOT
BRANCH   6   7
ATOM      7  C   UNL     1      -4.690  11.866  20.174  0.00  0.00    +0.000 C 
ATOM      8  C   UNL     1      -5.630  11.503  19.005  0.00  0.00    +0.000 C 
ATOM      9  C   UNL     1      -6.135  12.817  18.430  0.00  0.00    +0.000 C 
ATOM     10  S   UNL     1      -6.527  13.791  19.861  0.00  0.00    +0.000 S 
ATOM     11  O   UNL     1      -7.916  13.550  20.192  0.00  0.00    +0.000 OA
ATOM     12  O   UNL     1      -5.992  15.120  19.670  0.00  0.00    +0.000 OA
ATOM     13  C   UNL     1      -5.505  12.881  21.007  0.00  0.00    +0.000 C 
ENDBRANCH   6   7
BRANCH   1  17
ATOM     14  C   UNL     1      -2.946  10.215  15.178  0.00  0.00    +0.000 A 
ATOM     15  C   UNL     1      -2.575   9.258  16.130  0.00  0.00    +0.000 A 
ATOM     16  C   UNL     1      -2.340   9.636  17.451  0.00  0.00    +0.000 A 
ATOM     17  C   UNL     1      -2.490  10.975  17.847  0.00  0.00    +0.000 A 
ATOM     18  C   UNL     1      -2.848  11.932  16.884  0.00  0.00    +0.000 A 
ATOM     19  C   UNL     1      -3.090  11.553  15.564  0.00  0.00    +0.000 A 
BRANCH  14  20
ATOM     20  C   UNL     1      -3.159   9.765  13.780  0.00  0.00    +0.000 C 
ATOM     21  O   UNL     1      -2.251   9.573  12.988  0.00  0.00    +0.000 OA
BRANCH  20  23
ATOM     22  C   UNL     1      -4.809   9.654  12.135  0.00  0.00    +0.000 C 
ATOM     23  O   UNL     1      -4.484   9.649  13.523  0.00  0.00    +0.000 OA
ENDBRANCH  20  23
ENDBRANCH  14  20
ENDBRANCH   1  17
BRANCH   2  24
ATOM     24  C   UNL     1       0.335  11.723  19.147  0.00  0.00    +0.000 C 
ATOM     25  O   UNL     1       1.086  12.579  18.680  0.00  0.00    +0.000 OA
BRANCH  24  26
ATOM     26  C   UNL     1       0.837  10.337  19.326  0.00  0.00    +0.000 A 
ATOM     27  C   UNL     1       1.450   9.709  18.233  0.00  0.00    +0.000 A 
ATOM     28  C   UNL     1       1.991   8.427  18.368  0.00  0.00    +0.000 A 
ATOM     29  C   UNL     1       1.910   7.765  19.590  0.00  0.00    +0.000 A 
ATOM     30 CL   UNL     1       2.581   6.192  19.766  0.00  0.00    +0.000 Cl
ATOM     31  C   UNL     1       1.313   8.383  20.684  0.00  0.00    +0.000 A 
ATOM     32  C   UNL     1       0.805   9.680  20.562  0.00  0.00    +0.000 A 
ENDBRANCH  24  26
ENDBRANCH   2  24
BRANCH   3  33
ATOM     33  O   UNL     1      -0.340  14.258  20.453  0.00  0.00    +0.000 OA
ATOM     34  H   UNL     1       0.514  14.011  20.036  0.00  0.00    +0.000 HD
ENDBRANCH   3  33
TORSDOF 7
ENDMDL
MODEL 7
REMARK VINA RESULT:      -6.6      5.594      9.303
REMARK  Name = 
REMARK  8 active torsions:
REMARK  status: ('A' for Active; 'I' for Inactive)
REMARK    1  A    between atoms: C_1  and  O_2
REMARK    2  A    between atoms: O_2  and  C_3
REMARK    3  A    between atoms: C_3  and  C_5
REMARK    4  A    between atoms: C_8  and  C_9
REMARK    5  A    between atoms: C_10  and  C_11
REMARK    6  A    between atoms: C_11  and  C_13
REMARK    7  A    between atoms: C_20  and  O_21
REMARK    8  A    between atoms: N_24  and  C_25
REMARK                            x       y       z     vdW  Elec       q    Type
REMARK                         _______ _______ _______ _____ _____    ______ ____
ROOT
ATOM      1  C   UNL     1       3.722   5.374  18.450  0.00  0.00    +0.000 C 
ATOM      2  C   UNL     1       5.133   5.477  17.970  0.00  0.00    +0.000 C 
ATOM      3  C   UNL     1       5.995   4.907  18.817  0.00  0.00    +0.000 C 
ATOM      4  C   UNL     1       5.191   4.253  19.870  0.00  0.00    +0.000 C 
ATOM      5  O   UNL     1       5.625   3.419  20.643  0.00  0.00    +0.000 OA
ATOM      6  N   UNL     1       3.867   4.704  19.749  0.00  0.00    +0.000 N 
ENDROOT
BRANCH   6   7
ATOM      7  C   UNL     1       2.752   3.957  20.385  0.00  0.00    +0.000 C 
ATOM      8  C   UNL     1       2.922   2.423  20.395  0.00  0.00    +0.000 C 
ATOM      9  C   UNL     1       2.564   1.938  18.997  0.00  0.00    +0.000 C 
ATOM     10  S   UNL     1       1.102   2.855  18.584  0.00  0.00    +0.000 S 
ATOM     11  O   UNL     1      -0.042   2.075  19.008  0.00  0.00    +0.000 OA
ATOM     12  O   UNL     1       1.244   3.360  17.237  0.00  0.00    +0.000 OA
ATOM     13  C   UNL     1       1.355   4.174  19.760  0.00  0.00    +0.000 C 
ENDBRANCH   6   7
BRANCH   1  17
ATOM     14  C   UNL     1       1.648   9.160  18.712  0.00  0.00    +0.000 A 
ATOM     15  C   UNL     1       2.175   8.725  17.490  0.00  0.00    +0.000 A 
ATOM     16  C   UNL     1       2.870   7.519  17.414  0.00  0.00    +0.000 A 
ATOM     17  C   UNL     1       3.033   6.717  18.556  0.00  0.00    +0.000 A 
ATOM     18  C   UNL     1       2.517   7.167  19.781  0.00  0.00    +0.000 A 
ATOM     19  C   UNL     1       1.815   8.370  19.855  0.00  0.00    +0.000 A 
BRANCH  14  20
ATOM     20  C   UNL     1       0.941  10.464  18.744  0.00  0.00    +0.000 C 
ATOM     21  O   UNL     1       1.508  11.541  18.664  0.00  0.00    +0.000 OA
BRANCH  20  23
ATOM     22  C   UNL     1      -1.039  11.305  19.647  0.00  0.00    +0.000 C 
ATOM     23  O   UNL     1      -0.390  10.270  18.913  0.00  0.00    +0.000 OA
ENDBRANCH  20  23
ENDBRANCH  14  20
ENDBRANCH   1  17
BRANCH   2  24
ATOM     24  C   UNL     1       5.640   6.188  16.779  0.00  0.00    +0.000 C 
ATOM     25  O   UNL     1       5.876   7.394  16.854  0.00  0.00    +0.000 OA
BRANCH  24  26
ATOM     26  C   UNL     1       5.905   5.475  15.504  0.00  0.00    +0.000 A 
ATOM     27  C   UNL     1       7.180   5.594  14.932  0.00  0.00    +0.000 A 
ATOM     28  C   UNL     1       7.497   4.896  13.764  0.00  0.00    +0.000 A 
ATOM     29  C   UNL     1       6.538   4.088  13.157  0.00  0.00    +0.000 A 
ATOM     30 CL   UNL     1       6.925   3.218  11.725  0.00  0.00    +0.000 Cl
ATOM     31  C   UNL     1       5.274   3.954  13.722  0.00  0.00    +0.000 A 
ATOM     32  C   UNL     1       4.967   4.622  14.911  0.00  0.00    +0.000 A 
ENDBRANCH  24  26
ENDBRANCH   2  24
BRANCH   3  33
ATOM     33  O   UNL     1       7.359   4.861  18.747  0.00  0.00    +0.000 OA
ATOM     34  H   UNL     1       7.599   4.680  17.812  0.00  0.00    +0.000 HD
ENDBRANCH   3  33
TORSDOF 7
ENDMDL
MODEL 8
REMARK VINA RESULT:      -6.4      1.417      1.635
REMARK  Name = 
REMARK  8 active torsions:
REMARK  status: ('A' for Active; 'I' for Inactive)
REMARK    1  A    between atoms: C_1  and  O_2
REMARK    2  A    between atoms: O_2  and  C_3
REMARK    3  A    between atoms: C_3  and  C_5
REMARK    4  A    between atoms: C_8  and  C_9
REMARK    5  A    between atoms: C_10  and  C_11
REMARK    6  A    between atoms: C_11  and  C_13
REMARK    7  A    between atoms: C_20  and  O_21
REMARK    8  A    between atoms: N_24  and  C_25
REMARK                            x       y       z     vdW  Elec       q    Type
REMARK                         _______ _______ _______ _____ _____    ______ ____
ROOT
ATOM      1  C   UNL     1       0.205  12.814  21.237  0.00  0.00    +0.000 C 
ATOM      2  C   UNL     1       0.384  12.157  19.908  0.00  0.00    +0.000 C 
ATOM      3  C   UNL     1       0.991  12.960  19.028  0.00  0.00    +0.000 C 
ATOM      4  C   UNL     1       1.388  14.179  19.764  0.00  0.00    +0.000 C 
ATOM      5  O   UNL     1       2.192  14.995  19.354  0.00  0.00    +0.000 OA
ATOM      6  N   UNL     1       0.744  14.162  21.012  0.00  0.00    +0.000 N 
ENDROOT
BRANCH   6   7
ATOM      7  C   UNL     1       1.227  15.019  22.125  0.00  0.00    +0.000 C 
ATOM      8  C   UNL     1       0.114  15.646  22.990  0.00  0.00    +0.000 C 
ATOM      9  C   UNL     1      -0.434  16.827  22.204  0.00  0.00    +0.000 C 
ATOM     10  S   UNL     1       1.014  17.631  21.569  0.00  0.00    +0.000 S 
ATOM     11  O   UNL     1       1.424  18.630  22.535  0.00  0.00    +0.000 OA
ATOM     12  O   UNL     1       0.791  17.943  20.175  0.00  0.00    +0.000 OA
ATOM     13  C   UNL     1       2.103  16.224  21.713  0.00  0.00    +0.000 C 
ENDBRANCH   6   7
BRANCH   1  17
ATOM     14  C   UNL     1      -3.934  12.755  22.487  0.00  0.00    +0.000 A 
ATOM     15  C   UNL     1      -3.563  13.401  21.302  0.00  0.00    +0.000 A 
ATOM     16  C   UNL     1      -2.224  13.446  20.917  0.00  0.00    +0.000 A 
ATOM     17  C   UNL     1      -1.235  12.828  21.701  0.00  0.00    +0.000 A 
ATOM     18  C   UNL     1      -1.613  12.196  22.896  0.00  0.00    +0.000 A 
ATOM     19  C   UNL     1      -2.953  12.145  23.277  0.00  0.00    +0.000 A 
BRANCH  14  20
ATOM     20  C   UNL     1      -5.369  12.760  22.866  0.00  0.00    +0.000 C 
ATOM     21  O   UNL     1      -5.787  13.209  23.921  0.00  0.00    +0.000 OA
BRANCH  20  23
ATOM     22  C   UNL     1      -7.371  12.788  21.668  0.00  0.00    +0.000 C 
ATOM     23  O   UNL     1      -6.109  12.165  21.899  0.00  0.00    +0.000 OA
ENDBRANCH  20  23
ENDBRANCH  14  20
ENDBRANCH   1  17
BRANCH   2  24
ATOM     24  C   UNL     1      -0.101  10.833  19.473  0.00  0.00    +0.000 C 
ATOM     25  O   UNL     1      -1.262  10.716  19.080  0.00  0.00    +0.000 OA
BRANCH  24  26
ATOM     26  C   UNL     1       0.790   9.644  19.466  0.00  0.00    +0.000 A 
ATOM     27  C   UNL     1       0.890   8.886  20.641  0.00  0.00    +0.000 A 
ATOM     28  C   UNL     1       1.670   7.726  20.668  0.00  0.00    +0.000 A 
ATOM     29  C   UNL     1       2.361   7.328  19.526  0.00  0.00    +0.000 A 
ATOM     30 CL   UNL     1       3.314   5.897  19.549  0.00  0.00    +0.000 Cl
ATOM     31  C   UNL     1       2.260   8.068  18.352  0.00  0.00    +0.000 A 
ATOM     32  C   UNL     1       1.451   9.208  18.312  0.00  0.00    +0.000 A 
ENDBRANCH  24  26
ENDBRANCH   2  24
BRANCH   3  33
ATOM     33  O   UNL     1       1.265  12.733  17.709  0.00  0.00    +0.000 OA
ATOM     34  H   UNL     1       0.957  11.825  17.498  0.00  0.00    +0.000 HD
ENDBRANCH   3  33
TORSDOF 7
ENDMDL
MODEL 9
REMARK VINA RESULT:      -6.4      5.591      9.342
REMARK  Name = 
REMARK  8 active torsions:
REMARK  status: ('A' for Active; 'I' for Inactive)
REMARK    1  A    between atoms: C_1  and  O_2
REMARK    2  A    between atoms: O_2  and  C_3
REMARK    3  A    between atoms: C_3  and  C_5
REMARK    4  A    between atoms: C_8  and  C_9
REMARK    5  A    between atoms: C_10  and  C_11
REMARK    6  A    between atoms: C_11  and  C_13
REMARK    7  A    between atoms: C_20  and  O_21
REMARK    8  A    between atoms: N_24  and  C_25
REMARK                            x       y       z     vdW  Elec       q    Type
REMARK                         _______ _______ _______ _____ _____    ______ ____
ROOT
ATOM      1  C   UNL     1       3.604   5.380  18.524  0.00  0.00    +0.000 C 
ATOM      2  C   UNL     1       5.038   5.497  18.120  0.00  0.00    +0.000 C 
ATOM      3  C   UNL     1       5.859   4.933  19.011  0.00  0.00    +0.000 C 
ATOM      4  C   UNL     1       5.005   4.269  20.020  0.00  0.00    +0.000 C 
ATOM      5  O   UNL     1       5.403   3.438  20.813  0.00  0.00    +0.000 OA
ATOM      6  N   UNL     1       3.686   4.710  19.828  0.00  0.00    +0.000 N 
ENDROOT
BRANCH   6   7
ATOM      7  C   UNL     1       2.544   3.952  20.403  0.00  0.00    +0.000 C 
ATOM      8  C   UNL     1       2.782   2.435  20.549  0.00  0.00    +0.000 C 
ATOM      9  C   UNL     1       2.598   1.830  19.165  0.00  0.00    +0.000 C 
ATOM     10  S   UNL     1       1.148   2.635  18.534  0.00  0.00    +0.000 S 
ATOM     11  O   UNL     1       0.002   1.827  18.898  0.00  0.00    +0.000 OA
ATOM     12  O   UNL     1       1.409   3.047  17.173  0.00  0.00    +0.000 OA
ATOM     13  C   UNL     1       1.214   4.048  19.622  0.00  0.00    +0.000 C 
ENDBRANCH   6   7
BRANCH   1  17
ATOM     14  C   UNL     1       1.697   9.254  18.765  0.00  0.00    +0.000 A 
ATOM     15  C   UNL     1       1.805   8.447  19.904  0.00  0.00    +0.000 A 
ATOM     16  C   UNL     1       2.393   7.186  19.818  0.00  0.00    +0.000 A 
ATOM     17  C   UNL     1       2.900   6.718  18.594  0.00  0.00    +0.000 A 
ATOM     18  C   UNL     1       2.773   7.525  17.453  0.00  0.00    +0.000 A 
ATOM     19  C   UNL     1       2.192   8.790  17.541  0.00  0.00    +0.000 A 
BRANCH  14  20
ATOM     20  C   UNL     1       1.038  10.577  18.906  0.00  0.00    +0.000 C 
ATOM     21  O   UNL     1       1.610  11.638  18.715  0.00  0.00    +0.000 OA
BRANCH  20  23
ATOM     22  C   UNL     1      -1.211  10.767  18.319  0.00  0.00    +0.000 C 
ATOM     23  O   UNL     1      -0.246  10.419  19.308  0.00  0.00    +0.000 OA
ENDBRANCH  20  23
ENDBRANCH  14  20
ENDBRANCH   1  17
BRANCH   2  24
ATOM     24  C   UNL     1       5.602   6.213  16.959  0.00  0.00    +0.000 C 
ATOM     25  O   UNL     1       5.798   7.426  17.038  0.00  0.00    +0.000 OA
BRANCH  24  26
ATOM     26  C   UNL     1       5.970   5.499  15.710  0.00  0.00    +0.000 A 
ATOM     27  C   UNL     1       5.007   4.676  15.110  0.00  0.00    +0.000 A 
ATOM     28  C   UNL     1       5.285   4.029  13.903  0.00  0.00    +0.000 A 
ATOM     29  C   UNL     1       6.530   4.190  13.300  0.00  0.00    +0.000 A 
ATOM     30 CL   UNL     1       6.876   3.404  11.811  0.00  0.00    +0.000 Cl
ATOM     31  C   UNL     1       7.489   5.012  13.882  0.00  0.00    +0.000 A 
ATOM     32  C   UNL     1       7.200   5.691  15.070  0.00  0.00    +0.000 A 
ENDBRANCH  24  26
ENDBRANCH   2  24
BRANCH   3  33
ATOM     33  O   UNL     1       7.224   4.898  19.015  0.00  0.00    +0.000 OA
ATOM     34  H   UNL     1       7.541   5.827  19.015  0.00  0.00    +0.000 HD
ENDBRANCH   3  33
TORSDOF 7
ENDMDL
