MODEL 1
REMARK VINA RESULT:      -8.4      0.000      0.000
REMARK  Name = 
REMARK  10 active torsions:
REMARK  status: ('A' for Active; 'I' for Inactive)
REMARK    1  A    between atoms: C_1  and  C_2
REMARK    2  A    between atoms: C_2  and  C_3
REMARK    3  A    between atoms: C_3  and  N_4
REMARK    4  A    between atoms: C_8  and  C_10
REMARK    5  A    between atoms: C_10  and  O_11
REMARK    6  A    between atoms: O_11  and  C_12
REMARK    7  A    between atoms: C_12  and  C_14
REMARK    8  A    between atoms: C_18  and  N_19
REMARK    9  A    between atoms: N_19  and  S_20
REMARK   10  A    between atoms: S_20  and  C_23
REMARK                            x       y       z     vdW  Elec       q    Type
REMARK                         _______ _______ _______ _____ _____    ______ ____
ROOT
ATOM      1  C   UNL     1       1.838   5.245  19.727  0.00  0.00    +0.000 A 
ATOM      2  C   UNL     1       2.141   5.715  18.441  0.00  0.00    +0.000 A 
ATOM      3  C   UNL     1       2.280   7.084  18.204  0.00  0.00    +0.000 A 
ATOM      4  C   UNL     1       2.121   7.989  19.251  0.00  0.00    +0.000 A 
ATOM      5  C   UNL     1       1.849   7.523  20.535  0.00  0.00    +0.000 A 
ATOM      6  C   UNL     1       1.692   6.158  20.780  0.00  0.00    +0.000 A 
ENDROOT
BRANCH   1   7
ATOM      7  C   UNL     1       1.678   3.779  19.911  0.00  0.00    +0.000 C 
ATOM      8  O   UNL     1       0.926   3.086  19.242  0.00  0.00    +0.000 OA
BRANCH   7   9
ATOM      9  O   UNL     1       2.436   3.323  20.935  0.00  0.00    +0.000 OA
BRANCH   9  10
ATOM     10  C   UNL     1       3.449   2.383  20.571  0.00  0.00    +0.000 C 
BRANCH  10  15
ATOM     11  N   UNL     1       5.813   3.935  17.281  0.00  0.00    +0.000 N 
ATOM     12  C   UNL     1       5.943   4.393  18.558  0.00  0.00    +0.000 C 
ATOM     13  O   UNL     1       6.672   5.329  18.878  0.00  0.00    +0.000 OA
ATOM     14  N   UNL     1       5.179   3.754  19.501  0.00  0.00    +0.000 N 
ATOM     15  C   UNL     1       4.235   2.759  19.314  0.00  0.00    +0.000 C 
ATOM     16  O   UNL     1       4.066   2.168  18.246  0.00  0.00    +0.000 OA
ATOM     17  H   UNL     1       5.242   3.101  17.149  0.00  0.00    +0.000 HD
ATOM     18  H   UNL     1       5.279   4.155  20.431  0.00  0.00    +0.000 HD
BRANCH  11  19
ATOM     19  C   UNL     1       6.569   4.443  16.160  0.00  0.00    +0.000 C 
BRANCH  19  21
ATOM     20  C   UNL     1       5.769   4.027  13.785  0.00  0.00    +0.000 C 
ATOM     21  C   UNL     1       5.678   4.919  15.016  0.00  0.00    +0.000 C 
ENDBRANCH  19  21
ENDBRANCH  11  19
ENDBRANCH  10  15
ENDBRANCH   9  10
ENDBRANCH   7   9
ENDBRANCH   1   7
BRANCH   5  22
ATOM     22  N   UNL     1       1.724   8.450  21.593  0.00  0.00    +0.000 N 
ATOM     23  H   UNL     1       2.496   8.629  22.232  0.00  0.00    +0.000 HD
BRANCH  22  24
ATOM     24  S   UNL     1       0.253   9.170  21.935  0.00  0.00    +0.000 S 
ATOM     25  O   UNL     1      -0.754   8.150  21.731  0.00  0.00    +0.000 OA
ATOM     26  O   UNL     1       0.353   9.891  23.185  0.00  0.00    +0.000 OA
BRANCH  24  27
ATOM     27  C   UNL     1       0.059  10.373  20.634  0.00  0.00    +0.000 A 
ATOM     28  C   UNL     1       0.656  11.636  20.760  0.00  0.00    +0.000 A 
ATOM     29  C   UNL     1       0.435  12.608  19.782  0.00  0.00    +0.000 A 
ATOM     30  C   UNL     1      -0.391  12.319  18.700  0.00  0.00    +0.000 A 
ATOM     31  F   UNL     1      -0.617  13.262  17.776  0.00  0.00    +0.000 F 
ATOM     32  C   UNL     1      -0.988  11.067  18.584  0.00  0.00    +0.000 A 
ATOM     33  F   UNL     1      -1.791  10.801  17.545  0.00  0.00    +0.000 F 
ATOM     34  C   UNL     1      -0.771  10.084  19.545  0.00  0.00    +0.000 A 
ENDBRANCH  24  27
ENDBRANCH  22  24
ENDBRANCH   5  22
TORSDOF 9
ENDMDL
MODEL 2
REMARK VINA RESULT:      -8.4      0.604      1.269
REMARK  Name = 
REMARK  10 active torsions:
REMARK  status: ('A' for Active; 'I' for Inactive)
REMARK    1  A    between atoms: C_1  and  C_2
REMARK    2  A    between atoms: C_2  and  C_3
REMARK    3  A    between atoms: C_3  and  N_4
REMARK    4  A    between atoms: C_8  and  C_10
REMARK    5  A    between atoms: C_10  and  O_11
REMARK    6  A    between atoms: O_11  and  C_12
REMARK    7  A    between atoms: C_12  and  C_14
REMARK    8  A    between atoms: C_18  and  N_19
REMARK    9  A    between atoms: N_19  and  S_20
REMARK   10  A    between atoms: S_20  and  C_23
REMARK                            x       y       z     vdW  Elec       q    Type
REMARK                         _______ _______ _______ _____ _____    ______ ____
ROOT
ATOM      1  C   UNL     1       1.739   5.279  19.871  0.00  0.00    +0.000 A 
ATOM      2  C   UNL     1       2.098   5.681  18.577  0.00  0.00    +0.000 A 
ATOM      3  C   UNL     1       2.297   7.033  18.287  0.00  0.00    +0.000 A 
ATOM      4  C   UNL     1       2.143   7.987  19.291  0.00  0.00    +0.000 A 
ATOM      5  C   UNL     1       1.817   7.587  20.584  0.00  0.00    +0.000 A 
ATOM      6  C   UNL     1       1.599   6.241  20.880  0.00  0.00    +0.000 A 
ENDROOT
BRANCH   1   7
ATOM      7  C   UNL     1       1.517   3.829  20.111  0.00  0.00    +0.000 C 
ATOM      8  O   UNL     1       0.637   3.176  19.571  0.00  0.00    +0.000 OA
BRANCH   7   9
ATOM      9  O   UNL     1       2.382   3.341  21.030  0.00  0.00    +0.000 OA
BRANCH   9  10
ATOM     10  C   UNL     1       3.249   2.306  20.560  0.00  0.00    +0.000 C 
BRANCH  10  15
ATOM     11  N   UNL     1       5.813   3.883  17.436  0.00  0.00    +0.000 N 
ATOM     12  C   UNL     1       5.917   4.274  18.738  0.00  0.00    +0.000 C 
ATOM     13  O   UNL     1       6.679   5.155  19.128  0.00  0.00    +0.000 OA
ATOM     14  N   UNL     1       5.086   3.633  19.621  0.00  0.00    +0.000 N 
ATOM     15  C   UNL     1       4.100   2.698  19.352  0.00  0.00    +0.000 C 
ATOM     16  O   UNL     1       3.943   2.167  18.252  0.00  0.00    +0.000 OA
ATOM     17  H   UNL     1       5.206   3.087  17.244  0.00  0.00    +0.000 HD
ATOM     18  H   UNL     1       5.170   3.985  20.572  0.00  0.00    +0.000 HD
BRANCH  11  19
ATOM     19  C   UNL     1       6.636   4.402  16.369  0.00  0.00    +0.000 C 
BRANCH  19  21
ATOM     20  C   UNL     1       6.869   4.741  13.862  0.00  0.00    +0.000 C 
ATOM     21  C   UNL     1       6.071   4.093  14.985  0.00  0.00    +0.000 C 
ENDBRANCH  19  21
ENDBRANCH  11  19
ENDBRANCH  10  15
ENDBRANCH   9  10
ENDBRANCH   7   9
ENDBRANCH   1   7
BRANCH   5  22
ATOM     22  N   UNL     1       1.697   8.562  21.598  0.00  0.00    +0.000 N 
ATOM     23  H   UNL     1       2.496   8.831  22.170  0.00  0.00    +0.000 HD
BRANCH  22  24
ATOM     24  S   UNL     1       0.205   9.199  22.007  0.00  0.00    +0.000 S 
ATOM     25  O   UNL     1      -0.761   8.145  21.774  0.00  0.00    +0.000 OA
ATOM     26  O   UNL     1       0.303   9.861  23.289  0.00  0.00    +0.000 OA
BRANCH  24  27
ATOM     27  C   UNL     1      -0.073  10.454  20.772  0.00  0.00    +0.000 A 
ATOM     28  C   UNL     1      -0.841  10.154  19.637  0.00  0.00    +0.000 A 
ATOM     29  C   UNL     1      -0.989  11.109  18.629  0.00  0.00    +0.000 A 
ATOM     30  C   UNL     1      -0.357  12.342  18.753  0.00  0.00    +0.000 A 
ATOM     31  F   UNL     1      -0.485  13.247  17.772  0.00  0.00    +0.000 F 
ATOM     32  C   UNL     1       0.411  12.631  19.877  0.00  0.00    +0.000 A 
ATOM     33  F   UNL     1       1.025  13.818  19.983  0.00  0.00    +0.000 F 
ATOM     34  C   UNL     1       0.561  11.695  20.894  0.00  0.00    +0.000 A 
ENDBRANCH  24  27
ENDBRANCH  22  24
ENDBRANCH   5  22
TORSDOF 9
ENDMDL
MODEL 3
REMARK VINA RESULT:      -8.0      4.507      9.508
REMARK  Name = 
REMARK  10 active torsions:
REMARK  status: ('A' for Active; 'I' for Inactive)
REMARK    1  A    between atoms: C_1  and  C_2
REMARK    2  A    between atoms: C_2  and  C_3
REMARK    3  A    between atoms: C_3  and  N_4
REMARK    4  A    between atoms: C_8  and  C_10
REMARK    5  A    between atoms: C_10  and  O_11
REMARK    6  A    between atoms: O_11  and  C_12
REMARK    7  A    between atoms: C_12  and  C_14
REMARK    8  A    between atoms: C_18  and  N_19
REMARK    9  A    between atoms: N_19  and  S_20
REMARK   10  A    between atoms: S_20  and  C_23
REMARK                            x       y       z     vdW  Elec       q    Type
REMARK                         _______ _______ _______ _____ _____    ______ ____
ROOT
ATOM      1  C   UNL     1       1.208   8.869  19.721  0.00  0.00    +0.000 A 
ATOM      2  C   UNL     1       1.538   9.216  18.403  0.00  0.00    +0.000 A 
ATOM      3  C   UNL     1       2.412   8.419  17.660  0.00  0.00    +0.000 A 
ATOM      4  C   UNL     1       2.955   7.269  18.229  0.00  0.00    +0.000 A 
ATOM      5  C   UNL     1       2.605   6.906  19.527  0.00  0.00    +0.000 A 
ATOM      6  C   UNL     1       1.746   7.704  20.284  0.00  0.00    +0.000 A 
ENDROOT
BRANCH   1   7
ATOM      7  C   UNL     1       0.293   9.771  20.468  0.00  0.00    +0.000 C 
ATOM      8  O   UNL     1      -0.304   9.447  21.484  0.00  0.00    +0.000 OA
BRANCH   7   9
ATOM      9  O   UNL     1       0.175  10.972  19.859  0.00  0.00    +0.000 OA
BRANCH   9  10
ATOM     10  C   UNL     1      -0.734  11.883  20.480  0.00  0.00    +0.000 C 
BRANCH  10  15
ATOM     11  N   UNL     1      -4.288  12.104  18.001  0.00  0.00    +0.000 N 
ATOM     12  C   UNL     1      -3.148  11.477  17.594  0.00  0.00    +0.000 C 
ATOM     13  O   UNL     1      -2.994  10.994  16.475  0.00  0.00    +0.000 OA
ATOM     14  N   UNL     1      -2.133  11.427  18.517  0.00  0.00    +0.000 N 
ATOM     15  C   UNL     1      -2.088  11.999  19.777  0.00  0.00    +0.000 C 
ATOM     16  O   UNL     1      -3.061  12.512  20.332  0.00  0.00    +0.000 OA
ATOM     17  H   UNL     1      -4.329  12.393  18.977  0.00  0.00    +0.000 HD
ATOM     18  H   UNL     1      -1.290  10.986  18.157  0.00  0.00    +0.000 HD
BRANCH  11  19
ATOM     19  C   UNL     1      -5.480  12.213  17.193  0.00  0.00    +0.000 C 
BRANCH  19  21
ATOM     20  C   UNL     1      -7.705  12.971  18.155  0.00  0.00    +0.000 C 
ATOM     21  C   UNL     1      -6.743  11.810  17.950  0.00  0.00    +0.000 C 
ENDBRANCH  19  21
ENDBRANCH  11  19
ENDBRANCH  10  15
ENDBRANCH   9  10
ENDBRANCH   7   9
ENDBRANCH   1   7
BRANCH   5  22
ATOM     22  N   UNL     1       3.137   5.720  20.078  0.00  0.00    +0.000 N 
ATOM     23  H   UNL     1       3.642   5.728  20.961  0.00  0.00    +0.000 HD
BRANCH  22  24
ATOM     24  S   UNL     1       3.096   4.281  19.224  0.00  0.00    +0.000 S 
ATOM     25  O   UNL     1       3.455   3.242  20.166  0.00  0.00    +0.000 OA
ATOM     26  O   UNL     1       1.869   4.215  18.460  0.00  0.00    +0.000 OA
BRANCH  24  27
ATOM     27  C   UNL     1       4.443   4.437  18.067  0.00  0.00    +0.000 A 
ATOM     28  C   UNL     1       4.222   4.182  16.706  0.00  0.00    +0.000 A 
ATOM     29  C   UNL     1       5.294   4.222  15.811  0.00  0.00    +0.000 A 
ATOM     30  C   UNL     1       6.574   4.494  16.284  0.00  0.00    +0.000 A 
ATOM     31  F   UNL     1       7.602   4.509  15.424  0.00  0.00    +0.000 F 
ATOM     32  C   UNL     1       6.789   4.738  17.637  0.00  0.00    +0.000 A 
ATOM     33  F   UNL     1       8.027   4.989  18.086  0.00  0.00    +0.000 F 
ATOM     34  C   UNL     1       5.731   4.712  18.540  0.00  0.00    +0.000 A 
ENDBRANCH  24  27
ENDBRANCH  22  24
ENDBRANCH   5  22
TORSDOF 9
ENDMDL
MODEL 4
REMARK VINA RESULT:      -7.9      2.022      2.775
REMARK  Name = 
REMARK  10 active torsions:
REMARK  status: ('A' for Active; 'I' for Inactive)
REMARK    1  A    between atoms: C_1  and  C_2
REMARK    2  A    between atoms: C_2  and  C_3
REMARK    3  A    between atoms: C_3  and  N_4
REMARK    4  A    between atoms: C_8  and  C_10
REMARK    5  A    between atoms: C_10  and  O_11
REMARK    6  A    between atoms: O_11  and  C_12
REMARK    7  A    between atoms: C_12  and  C_14
REMARK    8  A    between atoms: C_18  and  N_19
REMARK    9  A    between atoms: N_19  and  S_20
REMARK   10  A    between atoms: S_20  and  C_23
REMARK                            x       y       z     vdW  Elec       q    Type
REMARK                         _______ _______ _______ _____ _____    ______ ____
ROOT
ATOM      1  C   UNL     1       2.275   5.448  19.454  0.00  0.00    +0.000 A 
ATOM      2  C   UNL     1       2.330   6.063  18.195  0.00  0.00    +0.000 A 
ATOM      3  C   UNL     1       2.172   7.445  18.077  0.00  0.00    +0.000 A 
ATOM      4  C   UNL     1       1.964   8.220  19.216  0.00  0.00    +0.000 A 
ATOM      5  C   UNL     1       1.939   7.615  20.470  0.00  0.00    +0.000 A 
ATOM      6  C   UNL     1       2.079   6.232  20.598  0.00  0.00    +0.000 A 
ENDROOT
BRANCH   1   7
ATOM      7  C   UNL     1       2.425   3.970  19.512  0.00  0.00    +0.000 C 
ATOM      8  O   UNL     1       1.837   3.256  20.310  0.00  0.00    +0.000 OA
BRANCH   7   9
ATOM      9  O   UNL     1       3.323   3.527  18.603  0.00  0.00    +0.000 OA
BRANCH   9  10
ATOM     10  C   UNL     1       4.680   3.506  19.049  0.00  0.00    +0.000 C 
BRANCH  10  15
ATOM     11  N   UNL     1       7.102   6.889  17.819  0.00  0.00    +0.000 N 
ATOM     12  C   UNL     1       6.786   5.867  16.974  0.00  0.00    +0.000 C 
ATOM     13  O   UNL     1       7.217   5.769  15.828  0.00  0.00    +0.000 OA
ATOM     14  N   UNL     1       5.952   4.906  17.486  0.00  0.00    +0.000 N 
ATOM     15  C   UNL     1       5.455   4.795  18.774  0.00  0.00    +0.000 C 
ATOM     16  O   UNL     1       5.562   5.678  19.627  0.00  0.00    +0.000 OA
ATOM     17  H   UNL     1       6.620   6.906  18.717  0.00  0.00    +0.000 HD
ATOM     18  H   UNL     1       5.776   4.144  16.835  0.00  0.00    +0.000 HD
BRANCH  11  19
ATOM     19  C   UNL     1       7.922   8.019  17.448  0.00  0.00    +0.000 C 
BRANCH  19  21
ATOM     20  C   UNL     1       8.934  10.152  18.385  0.00  0.00    +0.000 C 
ATOM     21  C   UNL     1       8.568   8.698  18.652  0.00  0.00    +0.000 C 
ENDBRANCH  19  21
ENDBRANCH  11  19
ENDBRANCH  10  15
ENDBRANCH   9  10
ENDBRANCH   7   9
ENDBRANCH   1   7
BRANCH   5  22
ATOM     22  N   UNL     1       1.761   8.416  21.619  0.00  0.00    +0.000 N 
ATOM     23  H   UNL     1       2.507   8.534  22.302  0.00  0.00    +0.000 HD
BRANCH  22  24
ATOM     24  S   UNL     1       0.267   9.076  21.984  0.00  0.00    +0.000 S 
ATOM     25  O   UNL     1      -0.712   8.058  21.666  0.00  0.00    +0.000 OA
ATOM     26  O   UNL     1       0.322   9.686  23.294  0.00  0.00    +0.000 OA
BRANCH  24  27
ATOM     27  C   UNL     1       0.079  10.384  20.787  0.00  0.00    +0.000 A 
ATOM     28  C   UNL     1      -0.861  10.251  19.755  0.00  0.00    +0.000 A 
ATOM     29  C   UNL     1      -0.952  11.236  18.769  0.00  0.00    +0.000 A 
ATOM     30  C   UNL     1      -0.094  12.331  18.811  0.00  0.00    +0.000 A 
ATOM     31  F   UNL     1      -0.170  13.262  17.850  0.00  0.00    +0.000 F 
ATOM     32  C   UNL     1       0.843  12.453  19.833  0.00  0.00    +0.000 A 
ATOM     33  F   UNL     1       1.673  13.506  19.859  0.00  0.00    +0.000 F 
ATOM     34  C   UNL     1       0.940  11.486  20.828  0.00  0.00    +0.000 A 
ENDBRANCH  24  27
ENDBRANCH  22  24
ENDBRANCH   5  22
TORSDOF 9
ENDMDL
MODEL 5
REMARK VINA RESULT:      -7.9      2.265      2.876
REMARK  Name = 
REMARK  10 active torsions:
REMARK  status: ('A' for Active; 'I' for Inactive)
REMARK    1  A    between atoms: C_1  and  C_2
REMARK    2  A    between atoms: C_2  and  C_3
REMARK    3  A    between atoms: C_3  and  N_4
REMARK    4  A    between atoms: C_8  and  C_10
REMARK    5  A    between atoms: C_10  and  O_11
REMARK    6  A    between atoms: O_11  and  C_12
REMARK    7  A    between atoms: C_12  and  C_14
REMARK    8  A    between atoms: C_18  and  N_19
REMARK    9  A    between atoms: N_19  and  S_20
REMARK   10  A    between atoms: S_20  and  C_23
REMARK                            x       y       z     vdW  Elec       q    Type
REMARK                         _______ _______ _______ _____ _____    ______ ____
ROOT
ATOM      1  C   UNL     1       2.600   6.760  19.416  0.00  0.00    +0.000 A 
ATOM      2  C   UNL     1       3.019   7.070  18.114  0.00  0.00    +0.000 A 
ATOM      3  C   UNL     1       2.604   8.254  17.502  0.00  0.00    +0.000 A 
ATOM      4  C   UNL     1       1.772   9.136  18.189  0.00  0.00    +0.000 A 
ATOM      5  C   UNL     1       1.380   8.845  19.493  0.00  0.00    +0.000 A 
ATOM      6  C   UNL     1       1.775   7.656  20.108  0.00  0.00    +0.000 A 
ENDROOT
BRANCH   1   7
ATOM      7  C   UNL     1       3.055   5.473  20.004  0.00  0.00    +0.000 C 
ATOM      8  O   UNL     1       2.399   4.816  20.798  0.00  0.00    +0.000 OA
BRANCH   7   9
ATOM      9  O   UNL     1       4.298   5.148  19.581  0.00  0.00    +0.000 OA
BRANCH   9  10
ATOM     10  C   UNL     1       4.434   3.828  19.050  0.00  0.00    +0.000 C 
BRANCH  10  15
ATOM     11  N   UNL     1       5.882   4.004  14.965  0.00  0.00    +0.000 N 
ATOM     12  C   UNL     1       6.688   4.237  16.039  0.00  0.00    +0.000 C 
ATOM     13  O   UNL     1       7.860   4.593  15.951  0.00  0.00    +0.000 OA
ATOM     14  N   UNL     1       6.104   4.073  17.269  0.00  0.00    +0.000 N 
ATOM     15  C   UNL     1       4.782   3.780  17.562  0.00  0.00    +0.000 C 
ATOM     16  O   UNL     1       3.951   3.445  16.716  0.00  0.00    +0.000 OA
ATOM     17  H   UNL     1       4.953   3.635  15.160  0.00  0.00    +0.000 HD
ATOM     18  H   UNL     1       6.730   4.296  18.040  0.00  0.00    +0.000 HD
BRANCH  11  19
ATOM     19  C   UNL     1       6.327   4.075  13.592  0.00  0.00    +0.000 C 
BRANCH  19  21
ATOM     20  C   UNL     1       4.621   3.614  11.767  0.00  0.00    +0.000 C 
ATOM     21  C   UNL     1       5.666   3.024  12.704  0.00  0.00    +0.000 C 
ENDBRANCH  19  21
ENDBRANCH  11  19
ENDBRANCH  10  15
ENDBRANCH   9  10
ENDBRANCH   7   9
ENDBRANCH   1   7
BRANCH   5  22
ATOM     22  N   UNL     1       0.565   9.764  20.189  0.00  0.00    +0.000 N 
ATOM     23  H   UNL     1       0.173  10.580  19.724  0.00  0.00    +0.000 HD
BRANCH  22  24
ATOM     24  S   UNL     1       0.341   9.634  21.842  0.00  0.00    +0.000 S 
ATOM     25  O   UNL     1      -0.604   8.555  22.038  0.00  0.00    +0.000 OA
ATOM     26  O   UNL     1       1.630   9.635  22.500  0.00  0.00    +0.000 OA
BRANCH  24  27
ATOM     27  C   UNL     1      -0.487  11.150  22.279  0.00  0.00    +0.000 A 
ATOM     28  C   UNL     1      -1.573  11.118  23.166  0.00  0.00    +0.000 A 
ATOM     29  C   UNL     1      -2.276  12.293  23.444  0.00  0.00    +0.000 A 
ATOM     30  C   UNL     1      -1.904  13.480  22.820  0.00  0.00    +0.000 A 
ATOM     31  F   UNL     1      -2.596  14.600  23.073  0.00  0.00    +0.000 F 
ATOM     32  C   UNL     1      -0.831  13.504  21.933  0.00  0.00    +0.000 A 
ATOM     33  F   UNL     1      -0.486  14.650  21.329  0.00  0.00    +0.000 F 
ATOM     34  C   UNL     1      -0.114  12.345  21.653  0.00  0.00    +0.000 A 
ENDBRANCH  24  27
ENDBRANCH  22  24
ENDBRANCH   5  22
TORSDOF 9
ENDMDL
MODEL 6
REMARK VINA RESULT:      -7.8      3.764      7.694
REMARK  Name = 
REMARK  10 active torsions:
REMARK  status: ('A' for Active; 'I' for Inactive)
REMARK    1  A    between atoms: C_1  and  C_2
REMARK    2  A    between atoms: C_2  and  C_3
REMARK    3  A    between atoms: C_3  and  N_4
REMARK    4  A    between atoms: C_8  and  C_10
REMARK    5  A    between atoms: C_10  and  O_11
REMARK    6  A    between atoms: O_11  and  C_12
REMARK    7  A    between atoms: C_12  and  C_14
REMARK    8  A    between atoms: C_18  and  N_19
REMARK    9  A    between atoms: N_19  and  S_20
REMARK   10  A    between atoms: S_20  and  C_23
REMARK                            x       y       z     vdW  Elec       q    Type
REMARK                         _______ _______ _______ _____ _____    ______ ____
ROOT
ATOM      1  C   UNL     1       2.429   3.381  20.040  0.00  0.00    +0.000 A 
ATOM      2  C   UNL     1       1.354   2.709  19.441  0.00  0.00    +0.000 A 
ATOM      3  C   UNL     1       1.490   2.151  18.169  0.00  0.00    +0.000 A 
ATOM      4  C   UNL     1       2.702   2.258  17.490  0.00  0.00    +0.000 A 
ATOM      5  C   UNL     1       3.781   2.898  18.096  0.00  0.00    +0.000 A 
ATOM      6  C   UNL     1       3.651   3.474  19.360  0.00  0.00    +0.000 A 
ENDROOT
BRANCH   1   7
ATOM      7  C   UNL     1       2.215   3.975  21.386  0.00  0.00    +0.000 C 
ATOM      8  O   UNL     1       2.390   3.372  22.433  0.00  0.00    +0.000 OA
BRANCH   7   9
ATOM      9  O   UNL     1       1.762   5.247  21.299  0.00  0.00    +0.000 OA
BRANCH   9  10
ATOM     10  C   UNL     1       2.418   6.061  20.324  0.00  0.00    +0.000 C 
BRANCH  10  15
ATOM     11  N   UNL     1       1.025  10.056  19.364  0.00  0.00    +0.000 N 
ATOM     12  C   UNL     1       1.714   9.286  18.474  0.00  0.00    +0.000 C 
ATOM     13  O   UNL     1       2.071   9.674  17.365  0.00  0.00    +0.000 OA
ATOM     14  N   UNL     1       2.024   8.018  18.898  0.00  0.00    +0.000 N 
ATOM     15  C   UNL     1       1.798   7.446  20.140  0.00  0.00    +0.000 C 
ATOM     16  O   UNL     1       1.106   7.966  21.017  0.00  0.00    +0.000 OA
ATOM     17  H   UNL     1       0.714   9.600  20.220  0.00  0.00    +0.000 HD
ATOM     18  H   UNL     1       2.571   7.494  18.219  0.00  0.00    +0.000 HD
BRANCH  11  19
ATOM     19  C   UNL     1       0.565  11.396  19.083  0.00  0.00    +0.000 C 
BRANCH  19  21
ATOM     20  C   UNL     1      -1.663  11.818  17.938  0.00  0.00    +0.000 C 
ATOM     21  C   UNL     1      -0.944  11.548  19.253  0.00  0.00    +0.000 C 
ENDBRANCH  19  21
ENDBRANCH  11  19
ENDBRANCH  10  15
ENDBRANCH   9  10
ENDBRANCH   7   9
ENDBRANCH   1   7
BRANCH   5  22
ATOM     22  N   UNL     1       5.014   2.969  17.410  0.00  0.00    +0.000 N 
ATOM     23  H   UNL     1       5.783   2.343  17.641  0.00  0.00    +0.000 HD
BRANCH  22  24
ATOM     24  S   UNL     1       5.312   4.187  16.303  0.00  0.00    +0.000 S 
ATOM     25  O   UNL     1       6.028   3.569  15.206  0.00  0.00    +0.000 OA
ATOM     26  O   UNL     1       4.097   4.939  16.081  0.00  0.00    +0.000 OA
BRANCH  24  27
ATOM     27  C   UNL     1       6.461   5.256  17.149  0.00  0.00    +0.000 A 
ATOM     28  C   UNL     1       7.188   4.767  18.243  0.00  0.00    +0.000 A 
ATOM     29  C   UNL     1       8.025   5.626  18.959  0.00  0.00    +0.000 A 
ATOM     30  C   UNL     1       8.113   6.964  18.590  0.00  0.00    +0.000 A 
ATOM     31  F   UNL     1       8.901   7.789  19.294  0.00  0.00    +0.000 F 
ATOM     32  C   UNL     1       7.382   7.447  17.508  0.00  0.00    +0.000 A 
ATOM     33  F   UNL     1       7.465   8.740  17.166  0.00  0.00    +0.000 F 
ATOM     34  C   UNL     1       6.551   6.603  16.779  0.00  0.00    +0.000 A 
ENDBRANCH  24  27
ENDBRANCH  22  24
ENDBRANCH   5  22
TORSDOF 9
ENDMDL
MODEL 7
REMARK VINA RESULT:      -7.7      4.650      9.927
REMARK  Name = 
REMARK  10 active torsions:
REMARK  status: ('A' for Active; 'I' for Inactive)
REMARK    1  A    between atoms: C_1  and  C_2
REMARK    2  A    between atoms: C_2  and  C_3
REMARK    3  A    between atoms: C_3  and  N_4
REMARK    4  A    between atoms: C_8  and  C_10
REMARK    5  A    between atoms: C_10  and  O_11
REMARK    6  A    between atoms: O_11  and  C_12
REMARK    7  A    between atoms: C_12  and  C_14
REMARK    8  A    between atoms: C_18  and  N_19
REMARK    9  A    between atoms: N_19  and  S_20
REMARK   10  A    between atoms: S_20  and  C_23
REMARK                            x       y       z     vdW  Elec       q    Type
REMARK                         _______ _______ _______ _____ _____    ______ ____
ROOT
ATOM      1  C   UNL     1       0.913   9.327  19.802  0.00  0.00    +0.000 A 
ATOM      2  C   UNL     1       1.193   9.604  18.456  0.00  0.00    +0.000 A 
ATOM      3  C   UNL     1       2.042   8.771  17.725  0.00  0.00    +0.000 A 
ATOM      4  C   UNL     1       2.612   7.654  18.334  0.00  0.00    +0.000 A 
ATOM      5  C   UNL     1       2.310   7.360  19.661  0.00  0.00    +0.000 A 
ATOM      6  C   UNL     1       1.476   8.196  20.406  0.00  0.00    +0.000 A 
ENDROOT
BRANCH   1   7
ATOM      7  C   UNL     1       0.021  10.265  20.533  0.00  0.00    +0.000 C 
ATOM      8  O   UNL     1      -0.184  10.212  21.736  0.00  0.00    +0.000 OA
BRANCH   7   9
ATOM      9  O   UNL     1      -0.561  11.151  19.693  0.00  0.00    +0.000 OA
BRANCH   9  10
ATOM     10  C   UNL     1      -1.101  12.317  20.317  0.00  0.00    +0.000 C 
BRANCH  10  15
ATOM     11  N   UNL     1      -5.354  12.333  21.173  0.00  0.00    +0.000 N 
ATOM     12  C   UNL     1      -4.418  12.683  22.100  0.00  0.00    +0.000 C 
ATOM     13  O   UNL     1      -4.680  12.952  23.270  0.00  0.00    +0.000 OA
ATOM     14  N   UNL     1      -3.119  12.699  21.659  0.00  0.00    +0.000 N 
ATOM     15  C   UNL     1      -2.627  12.329  20.418  0.00  0.00    +0.000 C 
ATOM     16  O   UNL     1      -3.340  12.085  19.444  0.00  0.00    +0.000 OA
ATOM     17  H   UNL     1      -5.027  12.211  20.216  0.00  0.00    +0.000 HD
ATOM     18  H   UNL     1      -2.453  12.926  22.393  0.00  0.00    +0.000 HD
BRANCH  11  19
ATOM     19  C   UNL     1      -6.775  12.308  21.431  0.00  0.00    +0.000 C 
BRANCH  19  21
ATOM     20  C   UNL     1      -6.969  11.288  19.113  0.00  0.00    +0.000 C 
ATOM     21  C   UNL     1      -7.520  11.325  20.532  0.00  0.00    +0.000 C 
ENDBRANCH  19  21
ENDBRANCH  11  19
ENDBRANCH  10  15
ENDBRANCH   9  10
ENDBRANCH   7   9
ENDBRANCH   1   7
BRANCH   5  22
ATOM     22  N   UNL     1       2.868   6.206  20.255  0.00  0.00    +0.000 N 
ATOM     23  H   UNL     1       3.426   6.267  21.104  0.00  0.00    +0.000 HD
BRANCH  22  24
ATOM     24  S   UNL     1       2.765   4.717  19.501  0.00  0.00    +0.000 S 
ATOM     25  O   UNL     1       3.000   3.726  20.530  0.00  0.00    +0.000 OA
ATOM     26  O   UNL     1       1.577   4.680  18.676  0.00  0.00    +0.000 OA
BRANCH  24  27
ATOM     27  C   UNL     1       4.177   4.695  18.413  0.00  0.00    +0.000 A 
ATOM     28  C   UNL     1       4.020   4.291  17.079  0.00  0.00    +0.000 A 
ATOM     29  C   UNL     1       5.138   4.193  16.248  0.00  0.00    +0.000 A 
ATOM     30  C   UNL     1       6.401   4.479  16.760  0.00  0.00    +0.000 A 
ATOM     31  F   UNL     1       7.473   4.362  15.964  0.00  0.00    +0.000 F 
ATOM     32  C   UNL     1       6.552   4.871  18.087  0.00  0.00    +0.000 A 
ATOM     33  F   UNL     1       7.773   5.134  18.573  0.00  0.00    +0.000 F 
ATOM     34  C   UNL     1       5.447   4.983  18.925  0.00  0.00    +0.000 A 
ENDBRANCH  24  27
ENDBRANCH  22  24
ENDBRANCH   5  22
TORSDOF 9
ENDMDL
MODEL 8
REMARK VINA RESULT:      -7.7      4.444      9.631
REMARK  Name = 
REMARK  10 active torsions:
REMARK  status: ('A' for Active; 'I' for Inactive)
REMARK    1  A    between atoms: C_1  and  C_2
REMARK    2  A    between atoms: C_2  and  C_3
REMARK    3  A    between atoms: C_3  and  N_4
REMARK    4  A    between atoms: C_8  and  C_10
REMARK    5  A    between atoms: C_10  and  O_11
REMARK    6  A    between atoms: O_11  and  C_12
REMARK    7  A    between atoms: C_12  and  C_14
REMARK    8  A    between atoms: C_18  and  N_19
REMARK    9  A    between atoms: N_19  and  S_20
REMARK   10  A    between atoms: S_20  and  C_23
REMARK                            x       y       z     vdW  Elec       q    Type
REMARK                         _______ _______ _______ _____ _____    ______ ____
ROOT
ATOM      1  C   UNL     1       1.345   8.672  19.667  0.00  0.00    +0.000 A 
ATOM      2  C   UNL     1       1.652   9.075  18.360  0.00  0.00    +0.000 A 
ATOM      3  C   UNL     1       2.572   8.354  17.595  0.00  0.00    +0.000 A 
ATOM      4  C   UNL     1       3.186   7.224  18.133  0.00  0.00    +0.000 A 
ATOM      5  C   UNL     1       2.860   6.804  19.420  0.00  0.00    +0.000 A 
ATOM      6  C   UNL     1       1.955   7.527  20.198  0.00  0.00    +0.000 A 
ENDROOT
BRANCH   1   7
ATOM      7  C   UNL     1       0.378   9.495  20.439  0.00  0.00    +0.000 C 
ATOM      8  O   UNL     1      -0.150   9.131  21.479  0.00  0.00    +0.000 OA
BRANCH   7   9
ATOM      9  O   UNL     1       0.126  10.672  19.821  0.00  0.00    +0.000 OA
BRANCH   9  10
ATOM     10  C   UNL     1      -0.726  11.566  20.540  0.00  0.00    +0.000 C 
BRANCH  10  15
ATOM     11  N   UNL     1      -4.665  12.582  19.034  0.00  0.00    +0.000 N 
ATOM     12  C   UNL     1      -4.262  12.890  20.300  0.00  0.00    +0.000 C 
ATOM     13  O   UNL     1      -4.991  13.402  21.145  0.00  0.00    +0.000 OA
ATOM     14  N   UNL     1      -2.964  12.569  20.606  0.00  0.00    +0.000 N 
ATOM     15  C   UNL     1      -2.035  11.902  19.824  0.00  0.00    +0.000 C 
ATOM     16  O   UNL     1      -2.203  11.643  18.632  0.00  0.00    +0.000 OA
ATOM     17  H   UNL     1      -3.950  12.235  18.397  0.00  0.00    +0.000 HD
ATOM     18  H   UNL     1      -2.719  12.779  21.571  0.00  0.00    +0.000 HD
BRANCH  11  19
ATOM     19  C   UNL     1      -5.975  12.888  18.509  0.00  0.00    +0.000 C 
BRANCH  19  21
ATOM     20  C   UNL     1      -6.847  10.540  18.935  0.00  0.00    +0.000 C 
ATOM     21  C   UNL     1      -6.675  11.664  17.923  0.00  0.00    +0.000 C 
ENDBRANCH  19  21
ENDBRANCH  11  19
ENDBRANCH  10  15
ENDBRANCH   9  10
ENDBRANCH   7   9
ENDBRANCH   1   7
BRANCH   5  22
ATOM     22  N   UNL     1       3.464   5.638  19.939  0.00  0.00    +0.000 N 
ATOM     23  H   UNL     1       4.072   5.677  20.755  0.00  0.00    +0.000 HD
BRANCH  22  24
ATOM     24  S   UNL     1       3.334   4.174  19.140  0.00  0.00    +0.000 S 
ATOM     25  O   UNL     1       3.672   3.153  20.109  0.00  0.00    +0.000 OA
ATOM     26  O   UNL     1       2.084   4.138  18.412  0.00  0.00    +0.000 OA
BRANCH  24  27
ATOM     27  C   UNL     1       4.653   4.227  17.942  0.00  0.00    +0.000 A 
ATOM     28  C   UNL     1       5.965   4.487  18.365  0.00  0.00    +0.000 A 
ATOM     29  C   UNL     1       6.986   4.612  17.420  0.00  0.00    +0.000 A 
ATOM     30  C   UNL     1       6.687   4.495  16.066  0.00  0.00    +0.000 A 
ATOM     31  F   UNL     1       7.666   4.638  15.163  0.00  0.00    +0.000 F 
ATOM     32  C   UNL     1       5.382   4.246  15.652  0.00  0.00    +0.000 A 
ATOM     33  F   UNL     1       5.100   4.146  14.345  0.00  0.00    +0.000 F 
ATOM     34  C   UNL     1       4.355   4.110  16.580  0.00  0.00    +0.000 A 
ENDBRANCH  24  27
ENDBRANCH  22  24
ENDBRANCH   5  22
TORSDOF 9
ENDMDL
MODEL 9
REMARK VINA RESULT:      -7.7      4.362      9.873
REMARK  Name = 
REMARK  10 active torsions:
REMARK  status: ('A' for Active; 'I' for Inactive)
REMARK    1  A    between atoms: C_1  and  C_2
REMARK    2  A    between atoms: C_2  and  C_3
REMARK    3  A    between atoms: C_3  and  N_4
REMARK    4  A    between atoms: C_8  and  C_10
REMARK    5  A    between atoms: C_10  and  O_11
REMARK    6  A    between atoms: O_11  and  C_12
REMARK    7  A    between atoms: C_12  and  C_14
REMARK    8  A    between atoms: C_18  and  N_19
REMARK    9  A    between atoms: N_19  and  S_20
REMARK   10  A    between atoms: S_20  and  C_23
REMARK                            x       y       z     vdW  Elec       q    Type
REMARK                         _______ _______ _______ _____ _____    ______ ____
ROOT
ATOM      1  C   UNL     1       1.000   9.234  19.537  0.00  0.00    +0.000 A 
ATOM      2  C   UNL     1       1.464   9.502  18.241  0.00  0.00    +0.000 A 
ATOM      3  C   UNL     1       2.391   8.653  17.633  0.00  0.00    +0.000 A 
ATOM      4  C   UNL     1       2.856   7.531  18.316  0.00  0.00    +0.000 A 
ATOM      5  C   UNL     1       2.374   7.247  19.591  0.00  0.00    +0.000 A 
ATOM      6  C   UNL     1       1.460   8.098  20.214  0.00  0.00    +0.000 A 
ENDROOT
BRANCH   1   7
ATOM      7  C   UNL     1       0.033  10.189  20.139  0.00  0.00    +0.000 C 
ATOM      8  O   UNL     1      -1.036  10.488  19.629  0.00  0.00    +0.000 OA
BRANCH   7   9
ATOM      9  O   UNL     1       0.506  10.711  21.294  0.00  0.00    +0.000 OA
BRANCH   9  10
ATOM     10  C   UNL     1      -0.344  10.542  22.431  0.00  0.00    +0.000 C 
BRANCH  10  15
ATOM     11  N   UNL     1      -3.053  13.744  23.538  0.00  0.00    +0.000 N 
ATOM     12  C   UNL     1      -3.353  12.429  23.734  0.00  0.00    +0.000 C 
ATOM     13  O   UNL     1      -4.434  12.030  24.160  0.00  0.00    +0.000 OA
ATOM     14  N   UNL     1      -2.366  11.536  23.400  0.00  0.00    +0.000 N 
ATOM     15  C   UNL     1      -1.136  11.792  22.816  0.00  0.00    +0.000 C 
ATOM     16  O   UNL     1      -0.672  12.923  22.665  0.00  0.00    +0.000 OA
ATOM     17  H   UNL     1      -2.098  13.960  23.257  0.00  0.00    +0.000 HD
ATOM     18  H   UNL     1      -2.648  10.567  23.525  0.00  0.00    +0.000 HD
BRANCH  11  19
ATOM     19  C   UNL     1      -3.940  14.833  23.876  0.00  0.00    +0.000 C 
BRANCH  19  21
ATOM     20  C   UNL     1      -3.697  16.716  22.189  0.00  0.00    +0.000 C 
ATOM     21  C   UNL     1      -4.523  15.522  22.645  0.00  0.00    +0.000 C 
ENDBRANCH  19  21
ENDBRANCH  11  19
ENDBRANCH  10  15
ENDBRANCH   9  10
ENDBRANCH   7   9
ENDBRANCH   1   7
BRANCH   5  22
ATOM     22  N   UNL     1       2.829   6.088  20.258  0.00  0.00    +0.000 N 
ATOM     23  H   UNL     1       3.325   6.148  21.145  0.00  0.00    +0.000 HD
BRANCH  22  24
ATOM     24  S   UNL     1       2.711   4.581  19.539  0.00  0.00    +0.000 S 
ATOM     25  O   UNL     1       2.881   3.612  20.601  0.00  0.00    +0.000 OA
ATOM     26  O   UNL     1       1.551   4.555  18.674  0.00  0.00    +0.000 OA
BRANCH  24  27
ATOM     27  C   UNL     1       4.158   4.492  18.503  0.00  0.00    +0.000 A 
ATOM     28  C   UNL     1       5.421   4.768  19.048  0.00  0.00    +0.000 A 
ATOM     29  C   UNL     1       6.546   4.780  18.220  0.00  0.00    +0.000 A 
ATOM     30  C   UNL     1       6.398   4.538  16.858  0.00  0.00    +0.000 A 
ATOM     31  F   UNL     1       7.478   4.573  16.064  0.00  0.00    +0.000 F 
ATOM     32  C   UNL     1       5.142   4.273  16.320  0.00  0.00    +0.000 A 
ATOM     33  F   UNL     1       5.008   4.051  15.006  0.00  0.00    +0.000 F 
ATOM     34  C   UNL     1       4.013   4.247  17.133  0.00  0.00    +0.000 A 
ENDBRANCH  24  27
ENDBRANCH  22  24
ENDBRANCH   5  22
TORSDOF 9
ENDMDL
