MODEL 1
REMARK VINA RESULT:      -8.0      0.000      0.000
REMARK  Name = 
REMARK  9 active torsions:
REMARK  status: ('A' for Active; 'I' for Inactive)
REMARK    1  A    between atoms: C_1  and  C_2
REMARK    2  A    between atoms: C_2  and  C_3
REMARK    3  A    between atoms: C_2  and  C_4
REMARK    4  A    between atoms: C_4  and  N_5
REMARK    5  A    between atoms: C_6  and  C_7
REMARK    6  A    between atoms: C_18  and  C_19
REMARK    7  A    between atoms: C_22  and  C_23
REMARK    8  A    between atoms: C_24  and  C_25
REMARK    9  A    between atoms: C_25  and  O_27
REMARK                            x       y       z     vdW  Elec       q    Type
REMARK                         _______ _______ _______ _____ _____    ______ ____
ROOT
ATOM      1  N   UNL     1       4.695   4.943  18.046  0.00  0.00    +0.000 NA
ATOM      2  C   UNL     1       3.864   3.875  17.402  0.00  0.00    +0.000 C 
ATOM      3  C   UNL     1       4.161   2.424  17.817  0.00  0.00    +0.000 C 
ATOM      4  C   UNL     1       3.860   3.919  15.838  0.00  0.00    +0.000 C 
ATOM      5  C   UNL     1       5.200   4.232  15.293  0.00  0.00    +0.000 A 
ATOM      6  C   UNL     1       6.175   4.809  16.080  0.00  0.00    +0.000 A 
ATOM      7  N   UNL     1       7.254   5.067  15.279  0.00  0.00    +0.000 N 
ATOM      8  C   UNL     1       7.010   4.619  13.995  0.00  0.00    +0.000 A 
ATOM      9  C   UNL     1       7.814   4.673  12.851  0.00  0.00    +0.000 A 
ATOM     10  C   UNL     1       7.309   4.098  11.681  0.00  0.00    +0.000 A 
ATOM     11  C   UNL     1       6.054   3.491  11.658  0.00  0.00    +0.000 A 
ATOM     12  C   UNL     1       5.254   3.470  12.806  0.00  0.00    +0.000 A 
ATOM     13  C   UNL     1       5.735   4.052  13.998  0.00  0.00    +0.000 A 
ATOM     14  C   UNL     1       6.090   5.087  17.557  0.00  0.00    +0.000 C 
ATOM     15  H   UNL     1       8.103   5.533  15.573  0.00  0.00    +0.000 HD
ENDROOT
BRANCH  14  16
ATOM     16  C   UNL     1       6.748   6.436  17.875  0.00  0.00    +0.000 A 
ATOM     17  C   UNL     1       6.342   7.629  17.255  0.00  0.00    +0.000 A 
ATOM     18  C   UNL     1       7.074   8.813  17.432  0.00  0.00    +0.000 A 
ATOM     19  C   UNL     1       8.207   8.843  18.257  0.00  0.00    +0.000 A 
ATOM     20  C   UNL     1       8.581   7.667  18.915  0.00  0.00    +0.000 A 
ATOM     21  C   UNL     1       7.864   6.481  18.726  0.00  0.00    +0.000 A 
BRANCH  19  22
ATOM     22  C   UNL     1       9.025  10.065  18.319  0.00  0.00    +0.000 C 
ATOM     23  C   UNL     1       9.580  10.552  19.441  0.00  0.00    +0.000 C 
BRANCH  23  24
ATOM     24  C   UNL     1      10.436  11.754  19.371  0.00  0.00    +0.000 C 
ATOM     25  O   UNL     1      10.473  12.526  18.430  0.00  0.00    +0.000 OA
BRANCH  24  26
ATOM     26  O   UNL     1      11.196  11.898  20.475  0.00  0.00    +0.000 OA
ATOM     27  H   UNL     1      10.764  11.682  21.320  0.00  0.00    +0.000 HD
ENDBRANCH  24  26
ENDBRANCH  23  24
ENDBRANCH  19  22
ENDBRANCH  14  16
BRANCH   1  28
ATOM     28  C   UNL     1       4.501   5.139  19.497  0.00  0.00    +0.000 C 
BRANCH  28  30
ATOM     29  C   UNL     1       2.551   6.798  19.113  0.00  0.00    +0.000 C 
ATOM     30  C   UNL     1       3.224   5.819  20.070  0.00  0.00    +0.000 C 
ATOM     31  C   UNL     1       2.184   4.777  20.506  0.00  0.00    +0.000 C 
ENDBRANCH  28  30
ENDBRANCH   1  28
TORSDOF 6
ENDMDL
MODEL 2
REMARK VINA RESULT:      -7.3      0.454      1.003
REMARK  Name = 
REMARK  9 active torsions:
REMARK  status: ('A' for Active; 'I' for Inactive)
REMARK    1  A    between atoms: C_1  and  C_2
REMARK    2  A    between atoms: C_2  and  C_3
REMARK    3  A    between atoms: C_2  and  C_4
REMARK    4  A    between atoms: C_4  and  N_5
REMARK    5  A    between atoms: C_6  and  C_7
REMARK    6  A    between atoms: C_18  and  C_19
REMARK    7  A    between atoms: C_22  and  C_23
REMARK    8  A    between atoms: C_24  and  C_25
REMARK    9  A    between atoms: C_25  and  O_27
REMARK                            x       y       z     vdW  Elec       q    Type
REMARK                         _______ _______ _______ _____ _____    ______ ____
ROOT
ATOM      1  N   UNL     1       4.747   5.015  18.006  0.00  0.00    +0.000 NA
ATOM      2  C   UNL     1       3.753   4.085  17.379  0.00  0.00    +0.000 C 
ATOM      3  C   UNL     1       3.836   2.605  17.791  0.00  0.00    +0.000 C 
ATOM      4  C   UNL     1       3.727   4.131  15.815  0.00  0.00    +0.000 C 
ATOM      5  C   UNL     1       5.088   4.240  15.245  0.00  0.00    +0.000 A 
ATOM      6  C   UNL     1       6.153   4.662  16.013  0.00  0.00    +0.000 A 
ATOM      7  N   UNL     1       7.243   4.756  15.191  0.00  0.00    +0.000 N 
ATOM      8  C   UNL     1       6.911   4.352  13.913  0.00  0.00    +0.000 A 
ATOM      9  C   UNL     1       7.692   4.285  12.754  0.00  0.00    +0.000 A 
ATOM     10  C   UNL     1       7.084   3.794  11.595  0.00  0.00    +0.000 A 
ATOM     11  C   UNL     1       5.752   3.383  11.596  0.00  0.00    +0.000 A 
ATOM     12  C   UNL     1       4.980   3.482  12.759  0.00  0.00    +0.000 A 
ATOM     13  C   UNL     1       5.565   3.982  13.941  0.00  0.00    +0.000 A 
ATOM     14  C   UNL     1       6.139   4.948  17.491  0.00  0.00    +0.000 C 
ATOM     15  H   UNL     1       8.159   5.088  15.469  0.00  0.00    +0.000 HD
ENDROOT
BRANCH  14  16
ATOM     16  C   UNL     1       6.998   6.183  17.794  0.00  0.00    +0.000 A 
ATOM     17  C   UNL     1       7.941   6.198  18.833  0.00  0.00    +0.000 A 
ATOM     18  C   UNL     1       8.583   7.391  19.200  0.00  0.00    +0.000 A 
ATOM     19  C   UNL     1       8.324   8.588  18.518  0.00  0.00    +0.000 A 
ATOM     20  C   UNL     1       7.421   8.562  17.450  0.00  0.00    +0.000 A 
ATOM     21  C   UNL     1       6.767   7.378  17.094  0.00  0.00    +0.000 A 
BRANCH  19  22
ATOM     22  C   UNL     1       8.915   9.843  19.008  0.00  0.00    +0.000 C 
ATOM     23  C   UNL     1       9.464  10.784  18.222  0.00  0.00    +0.000 C 
BRANCH  23  24
ATOM     24  C   UNL     1       9.970  12.035  18.823  0.00  0.00    +0.000 C 
ATOM     25  O   UNL     1       9.670  13.154  18.451  0.00  0.00    +0.000 OA
BRANCH  24  26
ATOM     26  O   UNL     1      10.827  11.797  19.837  0.00  0.00    +0.000 OA
ATOM     27  H   UNL     1      11.383  12.548  20.109  0.00  0.00    +0.000 HD
ENDBRANCH  24  26
ENDBRANCH  23  24
ENDBRANCH  19  22
ENDBRANCH  14  16
BRANCH   1  28
ATOM     28  C   UNL     1       4.612   5.237  19.460  0.00  0.00    +0.000 C 
BRANCH  28  30
ATOM     29  C   UNL     1       2.584   6.815  19.152  0.00  0.00    +0.000 C 
ATOM     30  C   UNL     1       3.329   5.860  20.080  0.00  0.00    +0.000 C 
ATOM     31  C   UNL     1       2.348   4.773  20.544  0.00  0.00    +0.000 C 
ENDBRANCH  28  30
ENDBRANCH   1  28
TORSDOF 6
ENDMDL
MODEL 3
REMARK VINA RESULT:      -7.0      4.425      5.903
REMARK  Name = 
REMARK  9 active torsions:
REMARK  status: ('A' for Active; 'I' for Inactive)
REMARK    1  A    between atoms: C_1  and  C_2
REMARK    2  A    between atoms: C_2  and  C_3
REMARK    3  A    between atoms: C_2  and  C_4
REMARK    4  A    between atoms: C_4  and  N_5
REMARK    5  A    between atoms: C_6  and  C_7
REMARK    6  A    between atoms: C_18  and  C_19
REMARK    7  A    between atoms: C_22  and  C_23
REMARK    8  A    between atoms: C_24  and  C_25
REMARK    9  A    between atoms: C_25  and  O_27
REMARK                            x       y       z     vdW  Elec       q    Type
REMARK                         _______ _______ _______ _____ _____    ______ ____
ROOT
ATOM      1  N   UNL     1       2.789   4.423  19.336  0.00  0.00    +0.000 NA
ATOM      2  C   UNL     1       3.318   3.068  18.974  0.00  0.00    +0.000 C 
ATOM      3  C   UNL     1       4.432   2.499  19.869  0.00  0.00    +0.000 C 
ATOM      4  C   UNL     1       3.803   2.943  17.492  0.00  0.00    +0.000 C 
ATOM      5  C   UNL     1       4.527   4.154  17.046  0.00  0.00    +0.000 A 
ATOM      6  C   UNL     1       4.400   5.351  17.719  0.00  0.00    +0.000 A 
ATOM      7  N   UNL     1       5.098   6.296  17.018  0.00  0.00    +0.000 N 
ATOM      8  C   UNL     1       5.718   5.716  15.927  0.00  0.00    +0.000 A 
ATOM      9  C   UNL     1       6.524   6.288  14.937  0.00  0.00    +0.000 A 
ATOM     10  C   UNL     1       7.049   5.434  13.962  0.00  0.00    +0.000 A 
ATOM     11  C   UNL     1       6.782   4.066  13.980  0.00  0.00    +0.000 A 
ATOM     12  C   UNL     1       5.952   3.518  14.965  0.00  0.00    +0.000 A 
ATOM     13  C   UNL     1       5.401   4.358  15.955  0.00  0.00    +0.000 A 
ATOM     14  C   UNL     1       3.653   5.585  19.005  0.00  0.00    +0.000 C 
ATOM     15  H   UNL     1       5.145   7.281  17.248  0.00  0.00    +0.000 HD
ENDROOT
BRANCH  14  16
ATOM     16  C   UNL     1       2.922   6.934  18.949  0.00  0.00    +0.000 A 
ATOM     17  C   UNL     1       2.202   7.438  20.043  0.00  0.00    +0.000 A 
ATOM     18  C   UNL     1       1.401   8.583  19.907  0.00  0.00    +0.000 A 
ATOM     19  C   UNL     1       1.328   9.269  18.688  0.00  0.00    +0.000 A 
ATOM     20  C   UNL     1       2.085   8.796  17.611  0.00  0.00    +0.000 A 
ATOM     21  C   UNL     1       2.870   7.644  17.739  0.00  0.00    +0.000 A 
BRANCH  19  22
ATOM     22  C   UNL     1       0.382  10.388  18.543  0.00  0.00    +0.000 C 
ATOM     23  C   UNL     1      -0.899  10.256  18.161  0.00  0.00    +0.000 C 
BRANCH  23  24
ATOM     24  C   UNL     1      -1.773  11.446  18.112  0.00  0.00    +0.000 C 
ATOM     25  O   UNL     1      -2.857  11.534  18.658  0.00  0.00    +0.000 OA
BRANCH  24  26
ATOM     26  O   UNL     1      -1.235  12.436  17.370  0.00  0.00    +0.000 OA
ATOM     27  H   UNL     1      -0.390  12.230  16.935  0.00  0.00    +0.000 HD
ENDBRANCH  24  26
ENDBRANCH  23  24
ENDBRANCH  19  22
ENDBRANCH  14  16
BRANCH   1  28
ATOM     28  C   UNL     1       2.048   4.518  20.611  0.00  0.00    +0.000 C 
BRANCH  28  30
ATOM     29  C   UNL     1       0.320   2.770  19.800  0.00  0.00    +0.000 C 
ATOM     30  C   UNL     1       0.934   3.502  20.991  0.00  0.00    +0.000 C 
ATOM     31  C   UNL     1       1.449   2.454  21.989  0.00  0.00    +0.000 C 
ENDBRANCH  28  30
ENDBRANCH   1  28
TORSDOF 6
ENDMDL
MODEL 4
REMARK VINA RESULT:      -6.8      5.306     11.546
REMARK  Name = 
REMARK  9 active torsions:
REMARK  status: ('A' for Active; 'I' for Inactive)
REMARK    1  A    between atoms: C_1  and  C_2
REMARK    2  A    between atoms: C_2  and  C_3
REMARK    3  A    between atoms: C_2  and  C_4
REMARK    4  A    between atoms: C_4  and  N_5
REMARK    5  A    between atoms: C_6  and  C_7
REMARK    6  A    between atoms: C_18  and  C_19
REMARK    7  A    between atoms: C_22  and  C_23
REMARK    8  A    between atoms: C_24  and  C_25
REMARK    9  A    between atoms: C_25  and  O_27
REMARK                            x       y       z     vdW  Elec       q    Type
REMARK                         _______ _______ _______ _____ _____    ______ ____
ROOT
ATOM      1  N   UNL     1      11.013  15.046  19.647  0.00  0.00    +0.000 NA
ATOM      2  C   UNL     1      11.069  16.429  20.220  0.00  0.00    +0.000 C 
ATOM      3  C   UNL     1      12.044  16.653  21.390  0.00  0.00    +0.000 C 
ATOM      4  C   UNL     1       9.680  17.002  20.657  0.00  0.00    +0.000 C 
ATOM      5  C   UNL     1       8.842  15.972  21.310  0.00  0.00    +0.000 A 
ATOM      6  C   UNL     1       9.110  14.628  21.155  0.00  0.00    +0.000 A 
ATOM      7  N   UNL     1       8.115  13.932  21.786  0.00  0.00    +0.000 N 
ATOM      8  C   UNL     1       7.234  14.808  22.390  0.00  0.00    +0.000 A 
ATOM      9  C   UNL     1       6.076  14.555  23.135  0.00  0.00    +0.000 A 
ATOM     10  C   UNL     1       5.395  15.657  23.661  0.00  0.00    +0.000 A 
ATOM     11  C   UNL     1       5.855  16.956  23.455  0.00  0.00    +0.000 A 
ATOM     12  C   UNL     1       7.001  17.190  22.686  0.00  0.00    +0.000 A 
ATOM     13  C   UNL     1       7.702  16.097  22.135  0.00  0.00    +0.000 A 
ATOM     14  C   UNL     1      10.292  14.023  20.446  0.00  0.00    +0.000 C 
ATOM     15  H   UNL     1       8.022  12.924  21.799  0.00  0.00    +0.000 HD
ENDROOT
BRANCH  14  16
ATOM     16  C   UNL     1       9.850  12.783  19.656  0.00  0.00    +0.000 A 
ATOM     17  C   UNL     1       9.070  12.878  18.493  0.00  0.00    +0.000 A 
ATOM     18  C   UNL     1       8.535  11.727  17.893  0.00  0.00    +0.000 A 
ATOM     19  C   UNL     1       8.793  10.454  18.420  0.00  0.00    +0.000 A 
ATOM     20  C   UNL     1       9.612  10.356  19.550  0.00  0.00    +0.000 A 
ATOM     21  C   UNL     1      10.132  11.503  20.160  0.00  0.00    +0.000 A 
BRANCH  19  22
ATOM     22  C   UNL     1       8.114   9.282  17.846  0.00  0.00    +0.000 C 
ATOM     23  C   UNL     1       8.253   8.025  18.299  0.00  0.00    +0.000 C 
BRANCH  23  24
ATOM     24  C   UNL     1       7.470   6.935  17.681  0.00  0.00    +0.000 C 
ATOM     25  O   UNL     1       6.648   6.253  18.266  0.00  0.00    +0.000 OA
BRANCH  24  26
ATOM     26  O   UNL     1       7.781   6.765  16.380  0.00  0.00    +0.000 OA
ATOM     27  H   UNL     1       7.028   6.697  15.768  0.00  0.00    +0.000 HD
ENDBRANCH  24  26
ENDBRANCH  23  24
ENDBRANCH  19  22
ENDBRANCH  14  16
BRANCH   1  28
ATOM     28  C   UNL     1      12.227  14.575  18.948  0.00  0.00    +0.000 C 
BRANCH  28  30
ATOM     29  C   UNL     1      12.187  13.194  16.760  0.00  0.00    +0.000 C 
ATOM     30  C   UNL     1      12.333  14.573  17.397  0.00  0.00    +0.000 C 
ATOM     31  C   UNL     1      11.293  15.509  16.764  0.00  0.00    +0.000 C 
ENDBRANCH  28  30
ENDBRANCH   1  28
TORSDOF 6
ENDMDL
MODEL 5
REMARK VINA RESULT:      -6.7      4.417      5.653
REMARK  Name = 
REMARK  9 active torsions:
REMARK  status: ('A' for Active; 'I' for Inactive)
REMARK    1  A    between atoms: C_1  and  C_2
REMARK    2  A    between atoms: C_2  and  C_3
REMARK    3  A    between atoms: C_2  and  C_4
REMARK    4  A    between atoms: C_4  and  N_5
REMARK    5  A    between atoms: C_6  and  C_7
REMARK    6  A    between atoms: C_18  and  C_19
REMARK    7  A    between atoms: C_22  and  C_23
REMARK    8  A    between atoms: C_24  and  C_25
REMARK    9  A    between atoms: C_25  and  O_27
REMARK                            x       y       z     vdW  Elec       q    Type
REMARK                         _______ _______ _______ _____ _____    ______ ____
ROOT
ATOM      1  N   UNL     1       2.825   4.271  19.429  0.00  0.00    +0.000 NA
ATOM      2  C   UNL     1       3.475   2.956  19.120  0.00  0.00    +0.000 C 
ATOM      3  C   UNL     1       4.652   2.539  20.018  0.00  0.00    +0.000 C 
ATOM      4  C   UNL     1       3.947   2.805  17.636  0.00  0.00    +0.000 C 
ATOM      5  C   UNL     1       4.544   4.056  17.119  0.00  0.00    +0.000 A 
ATOM      6  C   UNL     1       4.314   5.268  17.738  0.00  0.00    +0.000 A 
ATOM      7  N   UNL     1       4.908   6.239  16.979  0.00  0.00    +0.000 N 
ATOM      8  C   UNL     1       5.563   5.668  15.905  0.00  0.00    +0.000 A 
ATOM      9  C   UNL     1       6.295   6.264  14.872  0.00  0.00    +0.000 A 
ATOM     10  C   UNL     1       6.884   5.417  13.928  0.00  0.00    +0.000 A 
ATOM     11  C   UNL     1       6.749   4.032  14.016  0.00  0.00    +0.000 A 
ATOM     12  C   UNL     1       5.991   3.457  15.042  0.00  0.00    +0.000 A 
ATOM     13  C   UNL     1       5.378   4.288  16.003  0.00  0.00    +0.000 A 
ATOM     14  C   UNL     1       3.568   5.492  19.026  0.00  0.00    +0.000 C 
ATOM     15  H   UNL     1       4.865   7.234  17.162  0.00  0.00    +0.000 HD
ENDROOT
BRANCH  14  16
ATOM     16  C   UNL     1       2.712   6.761  18.921  0.00  0.00    +0.000 A 
ATOM     17  C   UNL     1       2.536   7.445  17.708  0.00  0.00    +0.000 A 
ATOM     18  C   UNL     1       1.897   8.694  17.676  0.00  0.00    +0.000 A 
ATOM     19  C   UNL     1       1.390   9.274  18.847  0.00  0.00    +0.000 A 
ATOM     20  C   UNL     1       1.521   8.569  20.048  0.00  0.00    +0.000 A 
ATOM     21  C   UNL     1       2.173   7.332  20.085  0.00  0.00    +0.000 A 
BRANCH  19  22
ATOM     22  C   UNL     1       0.842  10.639  18.801  0.00  0.00    +0.000 C 
ATOM     23  C   UNL     1      -0.455  10.932  18.609  0.00  0.00    +0.000 C 
BRANCH  23  24
ATOM     24  C   UNL     1      -0.899  12.340  18.645  0.00  0.00    +0.000 C 
ATOM     25  O   UNL     1      -1.096  12.980  19.661  0.00  0.00    +0.000 OA
BRANCH  24  26
ATOM     26  O   UNL     1      -1.080  12.844  17.407  0.00  0.00    +0.000 OA
ATOM     27  H   UNL     1      -1.490  12.244  16.759  0.00  0.00    +0.000 HD
ENDBRANCH  24  26
ENDBRANCH  23  24
ENDBRANCH  19  22
ENDBRANCH  14  16
BRANCH   1  28
ATOM     28  C   UNL     1       2.098   4.357  20.712  0.00  0.00    +0.000 C 
BRANCH  28  30
ATOM     29  C   UNL     1       0.349   2.639  19.882  0.00  0.00    +0.000 C 
ATOM     30  C   UNL     1       0.957   3.366  21.079  0.00  0.00    +0.000 C 
ATOM     31  C   UNL     1       1.434   2.314  22.091  0.00  0.00    +0.000 C 
ENDBRANCH  28  30
ENDBRANCH   1  28
TORSDOF 6
ENDMDL
MODEL 6
REMARK VINA RESULT:      -6.7      4.974     11.092
REMARK  Name = 
REMARK  9 active torsions:
REMARK  status: ('A' for Active; 'I' for Inactive)
REMARK    1  A    between atoms: C_1  and  C_2
REMARK    2  A    between atoms: C_2  and  C_3
REMARK    3  A    between atoms: C_2  and  C_4
REMARK    4  A    between atoms: C_4  and  N_5
REMARK    5  A    between atoms: C_6  and  C_7
REMARK    6  A    between atoms: C_18  and  C_19
REMARK    7  A    between atoms: C_22  and  C_23
REMARK    8  A    between atoms: C_24  and  C_25
REMARK    9  A    between atoms: C_25  and  O_27
REMARK                            x       y       z     vdW  Elec       q    Type
REMARK                         _______ _______ _______ _____ _____    ______ ____
ROOT
ATOM      1  N   UNL     1       9.530  14.695  19.426  0.00  0.00    +0.000 NA
ATOM      2  C   UNL     1       9.476  15.918  20.289  0.00  0.00    +0.000 C 
ATOM      3  C   UNL     1      10.824  16.497  20.751  0.00  0.00    +0.000 C 
ATOM      4  C   UNL     1       8.575  15.769  21.560  0.00  0.00    +0.000 C 
ATOM      5  C   UNL     1       8.723  14.437  22.186  0.00  0.00    +0.000 A 
ATOM      6  C   UNL     1       9.256  13.373  21.487  0.00  0.00    +0.000 A 
ATOM      7  N   UNL     1       9.170  12.268  22.289  0.00  0.00    +0.000 N 
ATOM      8  C   UNL     1       8.635  12.611  23.515  0.00  0.00    +0.000 A 
ATOM      9  C   UNL     1       8.359  11.817  24.635  0.00  0.00    +0.000 A 
ATOM     10  C   UNL     1       7.843  12.457  25.766  0.00  0.00    +0.000 A 
ATOM     11  C   UNL     1       7.618  13.832  25.778  0.00  0.00    +0.000 A 
ATOM     12  C   UNL     1       7.875  14.604  24.640  0.00  0.00    +0.000 A 
ATOM     13  C   UNL     1       8.387  13.983  23.481  0.00  0.00    +0.000 A 
ATOM     14  C   UNL     1       9.850  13.413  20.105  0.00  0.00    +0.000 C 
ATOM     15  H   UNL     1       9.440  11.329  22.023  0.00  0.00    +0.000 HD
ENDROOT
BRANCH  14  16
ATOM     16  C   UNL     1       9.448  12.154  19.326  0.00  0.00    +0.000 A 
ATOM     17  C   UNL     1       8.605  12.207  18.205  0.00  0.00    +0.000 A 
ATOM     18  C   UNL     1       8.115  11.029  17.620  0.00  0.00    +0.000 A 
ATOM     19  C   UNL     1       8.480   9.771  18.120  0.00  0.00    +0.000 A 
ATOM     20  C   UNL     1       9.360   9.718  19.207  0.00  0.00    +0.000 A 
ATOM     21  C   UNL     1       9.836  10.891  19.801  0.00  0.00    +0.000 A 
BRANCH  19  22
ATOM     22  C   UNL     1       7.848   8.562  17.569  0.00  0.00    +0.000 C 
ATOM     23  C   UNL     1       7.969   7.332  18.097  0.00  0.00    +0.000 C 
BRANCH  23  24
ATOM     24  C   UNL     1       7.236   6.202  17.491  0.00  0.00    +0.000 C 
ATOM     25  O   UNL     1       7.341   5.041  17.839  0.00  0.00    +0.000 OA
BRANCH  24  26
ATOM     26  O   UNL     1       6.435   6.602  16.483  0.00  0.00    +0.000 OA
ATOM     27  H   UNL     1       6.876   6.782  15.634  0.00  0.00    +0.000 HD
ENDBRANCH  24  26
ENDBRANCH  23  24
ENDBRANCH  19  22
ENDBRANCH  14  16
BRANCH   1  28
ATOM     28  C   UNL     1      10.110  14.868  18.078  0.00  0.00    +0.000 C 
BRANCH  28  30
ATOM     29  C   UNL     1      11.853  13.453  16.790  0.00  0.00    +0.000 C 
ATOM     30  C   UNL     1      11.611  14.582  17.787  0.00  0.00    +0.000 C 
ATOM     31  C   UNL     1      12.331  15.839  17.277  0.00  0.00    +0.000 C 
ENDBRANCH  28  30
ENDBRANCH   1  28
TORSDOF 6
ENDMDL
MODEL 7
REMARK VINA RESULT:      -6.6      5.190     11.295
REMARK  Name = 
REMARK  9 active torsions:
REMARK  status: ('A' for Active; 'I' for Inactive)
REMARK    1  A    between atoms: C_1  and  C_2
REMARK    2  A    between atoms: C_2  and  C_3
REMARK    3  A    between atoms: C_2  and  C_4
REMARK    4  A    between atoms: C_4  and  N_5
REMARK    5  A    between atoms: C_6  and  C_7
REMARK    6  A    between atoms: C_18  and  C_19
REMARK    7  A    between atoms: C_22  and  C_23
REMARK    8  A    between atoms: C_24  and  C_25
REMARK    9  A    between atoms: C_25  and  O_27
REMARK                            x       y       z     vdW  Elec       q    Type
REMARK                         _______ _______ _______ _____ _____    ______ ____
ROOT
ATOM      1  N   UNL     1      10.151  14.794  20.030  0.00  0.00    +0.000 NA
ATOM      2  C   UNL     1      10.147  15.977  20.950  0.00  0.00    +0.000 C 
ATOM      3  C   UNL     1      11.489  16.346  21.606  0.00  0.00    +0.000 C 
ATOM      4  C   UNL     1       9.078  15.903  22.089  0.00  0.00    +0.000 C 
ATOM      5  C   UNL     1       8.968  14.538  22.652  0.00  0.00    +0.000 A 
ATOM      6  C   UNL     1       9.442  13.441  21.964  0.00  0.00    +0.000 A 
ATOM      7  N   UNL     1       9.108  12.326  22.683  0.00  0.00    +0.000 N 
ATOM      8  C   UNL     1       8.469  12.690  23.853  0.00  0.00    +0.000 A 
ATOM      9  C   UNL     1       7.950  11.897  24.883  0.00  0.00    +0.000 A 
ATOM     10  C   UNL     1       7.381  12.556  25.978  0.00  0.00    +0.000 A 
ATOM     11  C   UNL     1       7.338  13.947  26.041  0.00  0.00    +0.000 A 
ATOM     12  C   UNL     1       7.840  14.722  24.989  0.00  0.00    +0.000 A 
ATOM     13  C   UNL     1       8.411  14.084  23.868  0.00  0.00    +0.000 A 
ATOM     14  C   UNL     1      10.209  13.454  20.669  0.00  0.00    +0.000 C 
ATOM     15  H   UNL     1       9.285  11.370  22.399  0.00  0.00    +0.000 HD
ENDROOT
BRANCH  14  16
ATOM     16  C   UNL     1       9.749  12.295  19.775  0.00  0.00    +0.000 A 
ATOM     17  C   UNL     1       8.960  12.500  18.632  0.00  0.00    +0.000 A 
ATOM     18  C   UNL     1       8.410  11.413  17.937  0.00  0.00    +0.000 A 
ATOM     19  C   UNL     1       8.660  10.096  18.345  0.00  0.00    +0.000 A 
ATOM     20  C   UNL     1       9.487   9.889  19.454  0.00  0.00    +0.000 A 
ATOM     21  C   UNL     1      10.023  10.972  20.159  0.00  0.00    +0.000 A 
BRANCH  19  22
ATOM     22  C   UNL     1       7.965   8.985  17.674  0.00  0.00    +0.000 C 
ATOM     23  C   UNL     1       7.973   7.713  18.103  0.00  0.00    +0.000 C 
BRANCH  23  24
ATOM     24  C   UNL     1       7.185   6.693  17.381  0.00  0.00    +0.000 C 
ATOM     25  O   UNL     1       6.238   6.088  17.849  0.00  0.00    +0.000 OA
BRANCH  24  26
ATOM     26  O   UNL     1       7.646   6.491  16.130  0.00  0.00    +0.000 OA
ATOM     27  H   UNL     1       7.323   5.691  15.681  0.00  0.00    +0.000 HD
ENDBRANCH  24  26
ENDBRANCH  23  24
ENDBRANCH  19  22
ENDBRANCH  14  16
BRANCH   1  28
ATOM     28  C   UNL     1      10.918  14.940  18.776  0.00  0.00    +0.000 C 
BRANCH  28  30
ATOM     29  C   UNL     1       8.866  16.084  17.688  0.00  0.00    +0.000 C 
ATOM     30  C   UNL     1      10.308  15.614  17.514  0.00  0.00    +0.000 C 
ATOM     31  C   UNL     1      11.154  16.811  17.056  0.00  0.00    +0.000 C 
ENDBRANCH  28  30
ENDBRANCH   1  28
TORSDOF 6
ENDMDL
MODEL 8
REMARK VINA RESULT:      -6.4      8.306     10.897
REMARK  Name = 
REMARK  9 active torsions:
REMARK  status: ('A' for Active; 'I' for Inactive)
REMARK    1  A    between atoms: C_1  and  C_2
REMARK    2  A    between atoms: C_2  and  C_3
REMARK    3  A    between atoms: C_2  and  C_4
REMARK    4  A    between atoms: C_4  and  N_5
REMARK    5  A    between atoms: C_6  and  C_7
REMARK    6  A    between atoms: C_18  and  C_19
REMARK    7  A    between atoms: C_22  and  C_23
REMARK    8  A    between atoms: C_24  and  C_25
REMARK    9  A    between atoms: C_25  and  O_27
REMARK                            x       y       z     vdW  Elec       q    Type
REMARK                         _______ _______ _______ _____ _____    ______ ____
ROOT
ATOM      1  N   UNL     1       8.842  13.753  20.209  0.00  0.00    +0.000 NA
ATOM      2  C   UNL     1       8.885  14.175  18.772  0.00  0.00    +0.000 C 
ATOM      3  C   UNL     1       9.629  15.486  18.458  0.00  0.00    +0.000 C 
ATOM      4  C   UNL     1       7.482  14.262  18.084  0.00  0.00    +0.000 C 
ATOM      5  C   UNL     1       6.463  14.840  18.987  0.00  0.00    +0.000 A 
ATOM      6  C   UNL     1       6.659  14.887  20.352  0.00  0.00    +0.000 A 
ATOM      7  N   UNL     1       5.514  15.377  20.918  0.00  0.00    +0.000 N 
ATOM      8  C   UNL     1       4.597  15.696  19.935  0.00  0.00    +0.000 A 
ATOM      9  C   UNL     1       3.303  16.216  20.042  0.00  0.00    +0.000 A 
ATOM     10  C   UNL     1       2.613  16.475  18.853  0.00  0.00    +0.000 A 
ATOM     11  C   UNL     1       3.195  16.227  17.611  0.00  0.00    +0.000 A 
ATOM     12  C   UNL     1       4.482  15.682  17.526  0.00  0.00    +0.000 A 
ATOM     13  C   UNL     1       5.197  15.403  18.710  0.00  0.00    +0.000 A 
ATOM     14  C   UNL     1       7.910  14.497  21.093  0.00  0.00    +0.000 C 
ATOM     15  H   UNL     1       5.349  15.479  21.912  0.00  0.00    +0.000 HD
ENDROOT
BRANCH  14  16
ATOM     16  C   UNL     1       7.542  13.772  22.395  0.00  0.00    +0.000 A 
ATOM     17  C   UNL     1       7.112  12.436  22.410  0.00  0.00    +0.000 A 
ATOM     18  C   UNL     1       6.616  11.855  23.587  0.00  0.00    +0.000 A 
ATOM     19  C   UNL     1       6.568  12.583  24.784  0.00  0.00    +0.000 A 
ATOM     20  C   UNL     1       7.043  13.899  24.781  0.00  0.00    +0.000 A 
ATOM     21  C   UNL     1       7.522  14.485  23.604  0.00  0.00    +0.000 A 
BRANCH  19  22
ATOM     22  C   UNL     1       5.925  11.990  25.967  0.00  0.00    +0.000 C 
ATOM     23  C   UNL     1       5.130  10.907  25.938  0.00  0.00    +0.000 C 
BRANCH  23  24
ATOM     24  C   UNL     1       4.590  10.363  27.201  0.00  0.00    +0.000 C 
ATOM     25  O   UNL     1       3.522  10.678  27.692  0.00  0.00    +0.000 OA
BRANCH  24  26
ATOM     26  O   UNL     1       5.431   9.474  27.768  0.00  0.00    +0.000 OA
ATOM     27  H   UNL     1       6.351   9.498  27.452  0.00  0.00    +0.000 HD
ENDBRANCH  24  26
ENDBRANCH  23  24
ENDBRANCH  19  22
ENDBRANCH  14  16
BRANCH   1  28
ATOM     28  C   UNL     1      10.132  13.366  20.817  0.00  0.00    +0.000 C 
BRANCH  28  30
ATOM     29  C   UNL     1       9.701  10.890  20.201  0.00  0.00    +0.000 C 
ATOM     30  C   UNL     1      10.714  11.932  20.665  0.00  0.00    +0.000 C 
ATOM     31  C   UNL     1      11.905  11.912  19.697  0.00  0.00    +0.000 C 
ENDBRANCH  28  30
ENDBRANCH   1  28
TORSDOF 6
ENDMDL
MODEL 9
REMARK VINA RESULT:      -6.4      9.134     13.214
REMARK  Name = 
REMARK  9 active torsions:
REMARK  status: ('A' for Active; 'I' for Inactive)
REMARK    1  A    between atoms: C_1  and  C_2
REMARK    2  A    between atoms: C_2  and  C_3
REMARK    3  A    between atoms: C_2  and  C_4
REMARK    4  A    between atoms: C_4  and  N_5
REMARK    5  A    between atoms: C_6  and  C_7
REMARK    6  A    between atoms: C_18  and  C_19
REMARK    7  A    between atoms: C_22  and  C_23
REMARK    8  A    between atoms: C_24  and  C_25
REMARK    9  A    between atoms: C_25  and  O_27
REMARK                            x       y       z     vdW  Elec       q    Type
REMARK                         _______ _______ _______ _____ _____    ______ ____
ROOT
ATOM      1  N   UNL     1      -0.410  11.240  19.827  0.00  0.00    +0.000 NA
ATOM      2  C   UNL     1       0.066  11.985  21.037  0.00  0.00    +0.000 C 
ATOM      3  C   UNL     1      -0.057  11.260  22.388  0.00  0.00    +0.000 C 
ATOM      4  C   UNL     1      -0.571  13.403  21.212  0.00  0.00    +0.000 C 
ATOM      5  C   UNL     1      -2.011  13.404  20.871  0.00  0.00    +0.000 A 
ATOM      6  C   UNL     1      -2.568  12.394  20.115  0.00  0.00    +0.000 A 
ATOM      7  N   UNL     1      -3.876  12.722  19.885  0.00  0.00    +0.000 N 
ATOM      8  C   UNL     1      -4.188  13.906  20.525  0.00  0.00    +0.000 A 
ATOM      9  C   UNL     1      -5.390  14.622  20.567  0.00  0.00    +0.000 A 
ATOM     10  C   UNL     1      -5.418  15.788  21.338  0.00  0.00    +0.000 A 
ATOM     11  C   UNL     1      -4.294  16.218  22.040  0.00  0.00    +0.000 A 
ATOM     12  C   UNL     1      -3.093  15.502  21.964  0.00  0.00    +0.000 A 
ATOM     13  C   UNL     1      -3.033  14.327  21.187  0.00  0.00    +0.000 A 
ATOM     14  C   UNL     1      -1.880  11.142  19.642  0.00  0.00    +0.000 C 
ATOM     15  H   UNL     1      -4.523  12.189  19.317  0.00  0.00    +0.000 HD
ENDROOT
BRANCH  14  16
ATOM     16  C   UNL     1      -2.328  10.805  18.213  0.00  0.00    +0.000 A 
ATOM     17  C   UNL     1      -2.053  11.650  17.127  0.00  0.00    +0.000 A 
ATOM     18  C   UNL     1      -2.623  11.407  15.868  0.00  0.00    +0.000 A 
ATOM     19  C   UNL     1      -3.454  10.298  15.656  0.00  0.00    +0.000 A 
ATOM     20  C   UNL     1      -3.688   9.428  16.726  0.00  0.00    +0.000 A 
ATOM     21  C   UNL     1      -3.134   9.678  17.986  0.00  0.00    +0.000 A 
BRANCH  19  22
ATOM     22  C   UNL     1      -4.139  10.143  14.362  0.00  0.00    +0.000 C 
ATOM     23  C   UNL     1      -3.515   9.923  13.193  0.00  0.00    +0.000 C 
BRANCH  23  24
ATOM     24  C   UNL     1      -4.313   9.721  11.966  0.00  0.00    +0.000 C 
ATOM     25  O   UNL     1      -5.520   9.570  11.940  0.00  0.00    +0.000 OA
BRANCH  24  26
ATOM     26  O   UNL     1      -3.541   9.705  10.860  0.00  0.00    +0.000 OA
ATOM     27  H   UNL     1      -2.610   9.958  10.987  0.00  0.00    +0.000 HD
ENDBRANCH  24  26
ENDBRANCH  23  24
ENDBRANCH  19  22
ENDBRANCH  14  16
BRANCH   1  28
ATOM     28  C   UNL     1       0.366  10.042  19.447  0.00  0.00    +0.000 C 
BRANCH  28  30
ATOM     29  C   UNL     1       2.162  11.176  17.969  0.00  0.00    +0.000 C 
ATOM     30  C   UNL     1       1.216   9.992  18.146  0.00  0.00    +0.000 C 
ATOM     31  C   UNL     1       2.041   8.699  18.066  0.00  0.00    +0.000 C 
ENDBRANCH  28  30
ENDBRANCH   1  28
TORSDOF 6
ENDMDL
