MODEL 1
REMARK VINA RESULT:      -6.6      0.000      0.000
REMARK  Name = 
REMARK  14 active torsions:
REMARK  status: ('A' for Active; 'I' for Inactive)
REMARK    1  A    between atoms: C_1  and  O_2
REMARK    2  A    between atoms: O_2  and  P_3
REMARK    3  A    between atoms: P_3  and  C_5
REMARK    4  A    between atoms: P_3  and  O_11
REMARK    5  A    between atoms: C_6  and  C_7
REMARK    6  A    between atoms: C_8  and  C_9
REMARK    7  A    between atoms: C_8  and  C_10
REMARK    8  A    between atoms: O_11  and  C_12
REMARK    9  A    between atoms: C_12  and  O_13
REMARK   10  A    between atoms: O_13  and  C_14
REMARK   11  A    between atoms: C_14  and  C_16
REMARK   12  A    between atoms: C_16  and  C_17
REMARK   13  A    between atoms: C_16  and  C_18
REMARK   14  A    between atoms: C_16  and  C_19
REMARK                            x       y       z     vdW  Elec       q    Type
REMARK                         _______ _______ _______ _____ _____    ______ ____
ROOT
ATOM      1  P   UNL     1       6.851   5.607  17.839  0.00  0.00    +0.000 P 
ATOM      2  O   UNL     1       5.597   6.456  18.112  0.00  0.00    +0.000 OA
ENDROOT
BRANCH   1   4
ATOM      3  C   UNL     1       7.802   8.019  17.414  0.00  0.00    +0.000 C 
ATOM      4  O   UNL     1       7.376   6.843  16.748  0.00  0.00    +0.000 OA
ENDBRANCH   1   4
BRANCH   1   5
ATOM      5  C   UNL     1       6.741   4.487  16.342  0.00  0.00    +0.000 C 
ATOM      6  C   UNL     1       6.171   4.817  15.162  0.00  0.00    +0.000 C 
BRANCH   6   7
ATOM      7  C   UNL     1       5.974   3.861  14.095  0.00  0.00    +0.000 C 
ATOM      8  C   UNL     1       6.551   3.899  12.872  0.00  0.00    +0.000 C 
ATOM      9  C   UNL     1       7.503   4.967  12.399  0.00  0.00    +0.000 C 
ATOM     10  C   UNL     1       6.287   2.819  11.854  0.00  0.00    +0.000 C 
ENDBRANCH   6   7
ENDBRANCH   1   5
BRANCH   1  11
ATOM     11  O   UNL     1       6.326   4.372  18.930  0.00  0.00    +0.000 OA
BRANCH  11  12
ATOM     12  C   UNL     1       5.024   4.479  19.480  0.00  0.00    +0.000 C 
BRANCH  12  13
ATOM     13  O   UNL     1       4.251   3.275  19.325  0.00  0.00    +0.000 OA
BRANCH  13  14
ATOM     14  C   UNL     1       2.943   3.431  19.631  0.00  0.00    +0.000 C 
ATOM     15  O   UNL     1       2.539   3.796  20.737  0.00  0.00    +0.000 OA
BRANCH  14  16
ATOM     16  C   UNL     1       2.007   3.146  18.474  0.00  0.00    +0.000 C 
ATOM     17  C   UNL     1       1.664   4.465  17.777  0.00  0.00    +0.000 C 
ATOM     18  C   UNL     1       2.718   2.191  17.497  0.00  0.00    +0.000 C 
ATOM     19  C   UNL     1       0.729   2.474  18.985  0.00  0.00    +0.000 C 
ENDBRANCH  14  16
ENDBRANCH  13  14
ENDBRANCH  12  13
ENDBRANCH  11  12
ENDBRANCH   1  11
TORSDOF 8
ENDMDL
MODEL 2
REMARK VINA RESULT:      -6.6      0.772      1.074
REMARK  Name = 
REMARK  14 active torsions:
REMARK  status: ('A' for Active; 'I' for Inactive)
REMARK    1  A    between atoms: C_1  and  O_2
REMARK    2  A    between atoms: O_2  and  P_3
REMARK    3  A    between atoms: P_3  and  C_5
REMARK    4  A    between atoms: P_3  and  O_11
REMARK    5  A    between atoms: C_6  and  C_7
REMARK    6  A    between atoms: C_8  and  C_9
REMARK    7  A    between atoms: C_8  and  C_10
REMARK    8  A    between atoms: O_11  and  C_12
REMARK    9  A    between atoms: C_12  and  O_13
REMARK   10  A    between atoms: O_13  and  C_14
REMARK   11  A    between atoms: C_14  and  C_16
REMARK   12  A    between atoms: C_16  and  C_17
REMARK   13  A    between atoms: C_16  and  C_18
REMARK   14  A    between atoms: C_16  and  C_19
REMARK                            x       y       z     vdW  Elec       q    Type
REMARK                         _______ _______ _______ _____ _____    ______ ____
ROOT
ATOM      1  P   UNL     1       6.871   5.366  17.904  0.00  0.00    +0.000 P 
ATOM      2  O   UNL     1       5.703   6.319  18.215  0.00  0.00    +0.000 OA
ENDROOT
BRANCH   1   4
ATOM      3  C   UNL     1       7.782   7.785  17.435  0.00  0.00    +0.000 C 
ATOM      4  O   UNL     1       7.469   6.557  16.801  0.00  0.00    +0.000 OA
ENDBRANCH   1   4
BRANCH   1   5
ATOM      5  C   UNL     1       6.622   4.266  16.409  0.00  0.00    +0.000 C 
ATOM      6  C   UNL     1       6.314   4.698  15.166  0.00  0.00    +0.000 C 
BRANCH   6   7
ATOM      7  C   UNL     1       5.979   3.797  14.086  0.00  0.00    +0.000 C 
ATOM      8  C   UNL     1       6.481   3.834  12.830  0.00  0.00    +0.000 C 
ATOM      9  C   UNL     1       7.481   4.844  12.329  0.00  0.00    +0.000 C 
ATOM     10  C   UNL     1       6.073   2.811  11.800  0.00  0.00    +0.000 C 
ENDBRANCH   6   7
ENDBRANCH   1   5
BRANCH   1  11
ATOM     11  O   UNL     1       6.272   4.176  19.008  0.00  0.00    +0.000 OA
BRANCH  11  12
ATOM     12  C   UNL     1       4.934   4.300  19.459  0.00  0.00    +0.000 C 
BRANCH  12  13
ATOM     13  O   UNL     1       3.975   3.814  18.502  0.00  0.00    +0.000 OA
BRANCH  13  14
ATOM     14  C   UNL     1       3.003   3.052  19.054  0.00  0.00    +0.000 C 
ATOM     15  O   UNL     1       3.209   1.952  19.572  0.00  0.00    +0.000 OA
BRANCH  14  16
ATOM     16  C   UNL     1       1.628   3.687  19.007  0.00  0.00    +0.000 C 
ATOM     17  C   UNL     1       1.394   4.459  20.308  0.00  0.00    +0.000 C 
ATOM     18  C   UNL     1       1.574   4.642  17.799  0.00  0.00    +0.000 C 
ATOM     19  C   UNL     1       0.556   2.607  18.836  0.00  0.00    +0.000 C 
ENDBRANCH  14  16
ENDBRANCH  13  14
ENDBRANCH  12  13
ENDBRANCH  11  12
ENDBRANCH   1  11
TORSDOF 8
ENDMDL
MODEL 3
REMARK VINA RESULT:      -6.5      1.556      2.130
REMARK  Name = 
REMARK  14 active torsions:
REMARK  status: ('A' for Active; 'I' for Inactive)
REMARK    1  A    between atoms: C_1  and  O_2
REMARK    2  A    between atoms: O_2  and  P_3
REMARK    3  A    between atoms: P_3  and  C_5
REMARK    4  A    between atoms: P_3  and  O_11
REMARK    5  A    between atoms: C_6  and  C_7
REMARK    6  A    between atoms: C_8  and  C_9
REMARK    7  A    between atoms: C_8  and  C_10
REMARK    8  A    between atoms: O_11  and  C_12
REMARK    9  A    between atoms: C_12  and  O_13
REMARK   10  A    between atoms: O_13  and  C_14
REMARK   11  A    between atoms: C_14  and  C_16
REMARK   12  A    between atoms: C_16  and  C_17
REMARK   13  A    between atoms: C_16  and  C_18
REMARK   14  A    between atoms: C_16  and  C_19
REMARK                            x       y       z     vdW  Elec       q    Type
REMARK                         _______ _______ _______ _____ _____    ______ ____
ROOT
ATOM      1  P   UNL     1       5.885   5.443  16.851  0.00  0.00    +0.000 P 
ATOM      2  O   UNL     1       5.634   6.941  16.605  0.00  0.00    +0.000 OA
ENDROOT
BRANCH   1   4
ATOM      3  C   UNL     1       7.705   6.373  18.501  0.00  0.00    +0.000 C 
ATOM      4  O   UNL     1       7.533   5.838  17.201  0.00  0.00    +0.000 OA
ENDBRANCH   1   4
BRANCH   1   5
ATOM      5  C   UNL     1       6.541   4.494  15.376  0.00  0.00    +0.000 C 
ATOM      6  C   UNL     1       5.863   4.271  14.229  0.00  0.00    +0.000 C 
BRANCH   6   7
ATOM      7  C   UNL     1       6.358   3.399  13.186  0.00  0.00    +0.000 C 
ATOM      8  C   UNL     1       5.673   2.995  12.091  0.00  0.00    +0.000 C 
ATOM      9  C   UNL     1       4.250   3.377  11.773  0.00  0.00    +0.000 C 
ATOM     10  C   UNL     1       6.316   2.107  11.056  0.00  0.00    +0.000 C 
ENDBRANCH   6   7
ENDBRANCH   1   5
BRANCH   1  11
ATOM     11  O   UNL     1       4.237   5.049  16.503  0.00  0.00    +0.000 OA
BRANCH  11  12
ATOM     12  C   UNL     1       3.601   4.073  17.311  0.00  0.00    +0.000 C 
BRANCH  12  13
ATOM     13  O   UNL     1       3.669   4.382  18.716  0.00  0.00    +0.000 OA
BRANCH  13  14
ATOM     14  C   UNL     1       3.225   3.380  19.509  0.00  0.00    +0.000 C 
ATOM     15  O   UNL     1       3.755   2.269  19.567  0.00  0.00    +0.000 OA
BRANCH  14  16
ATOM     16  C   UNL     1       2.023   3.756  20.352  0.00  0.00    +0.000 C 
ATOM     17  C   UNL     1       1.927   5.282  20.426  0.00  0.00    +0.000 C 
ATOM     18  C   UNL     1       0.762   3.169  19.692  0.00  0.00    +0.000 C 
ATOM     19  C   UNL     1       2.166   3.170  21.761  0.00  0.00    +0.000 C 
ENDBRANCH  14  16
ENDBRANCH  13  14
ENDBRANCH  12  13
ENDBRANCH  11  12
ENDBRANCH   1  11
TORSDOF 8
ENDMDL
MODEL 4
REMARK VINA RESULT:      -6.4      1.157      1.405
REMARK  Name = 
REMARK  14 active torsions:
REMARK  status: ('A' for Active; 'I' for Inactive)
REMARK    1  A    between atoms: C_1  and  O_2
REMARK    2  A    between atoms: O_2  and  P_3
REMARK    3  A    between atoms: P_3  and  C_5
REMARK    4  A    between atoms: P_3  and  O_11
REMARK    5  A    between atoms: C_6  and  C_7
REMARK    6  A    between atoms: C_8  and  C_9
REMARK    7  A    between atoms: C_8  and  C_10
REMARK    8  A    between atoms: O_11  and  C_12
REMARK    9  A    between atoms: C_12  and  O_13
REMARK   10  A    between atoms: O_13  and  C_14
REMARK   11  A    between atoms: C_14  and  C_16
REMARK   12  A    between atoms: C_16  and  C_17
REMARK   13  A    between atoms: C_16  and  C_18
REMARK   14  A    between atoms: C_16  and  C_19
REMARK                            x       y       z     vdW  Elec       q    Type
REMARK                         _______ _______ _______ _____ _____    ______ ____
ROOT
ATOM      1  P   UNL     1       6.372   5.453  17.770  0.00  0.00    +0.000 P 
ATOM      2  O   UNL     1       5.266   6.517  17.878  0.00  0.00    +0.000 OA
ENDROOT
BRANCH   1   4
ATOM      3  C   UNL     1       7.655   7.701  17.319  0.00  0.00    +0.000 C 
ATOM      4  O   UNL     1       7.205   6.515  16.687  0.00  0.00    +0.000 OA
ENDBRANCH   1   4
BRANCH   1   5
ATOM      5  C   UNL     1       6.209   4.281  16.318  0.00  0.00    +0.000 C 
ATOM      6  C   UNL     1       6.158   4.651  15.020  0.00  0.00    +0.000 C 
BRANCH   6   7
ATOM      7  C   UNL     1       5.873   3.719  13.952  0.00  0.00    +0.000 C 
ATOM      8  C   UNL     1       6.402   3.744  12.707  0.00  0.00    +0.000 C 
ATOM      9  C   UNL     1       7.384   4.773  12.206  0.00  0.00    +0.000 C 
ATOM     10  C   UNL     1       6.047   2.690  11.690  0.00  0.00    +0.000 C 
ENDBRANCH   6   7
ENDBRANCH   1   5
BRANCH   1  11
ATOM     11  O   UNL     1       5.540   4.392  18.854  0.00  0.00    +0.000 OA
BRANCH  11  12
ATOM     12  C   UNL     1       4.738   3.366  18.295  0.00  0.00    +0.000 C 
BRANCH  12  13
ATOM     13  O   UNL     1       3.349   3.484  18.655  0.00  0.00    +0.000 OA
BRANCH  13  14
ATOM     14  C   UNL     1       3.068   2.993  19.884  0.00  0.00    +0.000 C 
ATOM     15  O   UNL     1       3.873   2.355  20.565  0.00  0.00    +0.000 OA
BRANCH  14  16
ATOM     16  C   UNL     1       1.671   3.324  20.368  0.00  0.00    +0.000 C 
ATOM     17  C   UNL     1       1.544   4.842  20.515  0.00  0.00    +0.000 C 
ATOM     18  C   UNL     1       0.659   2.798  19.334  0.00  0.00    +0.000 C 
ATOM     19  C   UNL     1       1.406   2.642  21.714  0.00  0.00    +0.000 C 
ENDBRANCH  14  16
ENDBRANCH  13  14
ENDBRANCH  12  13
ENDBRANCH  11  12
ENDBRANCH   1  11
TORSDOF 8
ENDMDL
MODEL 5
REMARK VINA RESULT:      -6.4      0.926      1.077
REMARK  Name = 
REMARK  14 active torsions:
REMARK  status: ('A' for Active; 'I' for Inactive)
REMARK    1  A    between atoms: C_1  and  O_2
REMARK    2  A    between atoms: O_2  and  P_3
REMARK    3  A    between atoms: P_3  and  C_5
REMARK    4  A    between atoms: P_3  and  O_11
REMARK    5  A    between atoms: C_6  and  C_7
REMARK    6  A    between atoms: C_8  and  C_9
REMARK    7  A    between atoms: C_8  and  C_10
REMARK    8  A    between atoms: O_11  and  C_12
REMARK    9  A    between atoms: C_12  and  O_13
REMARK   10  A    between atoms: O_13  and  C_14
REMARK   11  A    between atoms: C_14  and  C_16
REMARK   12  A    between atoms: C_16  and  C_17
REMARK   13  A    between atoms: C_16  and  C_18
REMARK   14  A    between atoms: C_16  and  C_19
REMARK                            x       y       z     vdW  Elec       q    Type
REMARK                         _______ _______ _______ _____ _____    ______ ____
ROOT
ATOM      1  P   UNL     1       6.510   5.985  17.296  0.00  0.00    +0.000 P 
ATOM      2  O   UNL     1       5.479   7.123  17.201  0.00  0.00    +0.000 OA
ENDROOT
BRANCH   1   4
ATOM      3  C   UNL     1       7.919   8.189  17.536  0.00  0.00    +0.000 C 
ATOM      4  O   UNL     1       7.693   7.085  16.677  0.00  0.00    +0.000 OA
ENDBRANCH   1   4
BRANCH   1   5
ATOM      5  C   UNL     1       6.759   5.005  15.719  0.00  0.00    +0.000 C 
ATOM      6  C   UNL     1       5.797   4.734  14.810  0.00  0.00    +0.000 C 
BRANCH   6   7
ATOM      7  C   UNL     1       6.007   3.841  13.692  0.00  0.00    +0.000 C 
ATOM      8  C   UNL     1       6.848   4.047  12.653  0.00  0.00    +0.000 C 
ATOM      9  C   UNL     1       7.714   5.267  12.471  0.00  0.00    +0.000 C 
ATOM     10  C   UNL     1       7.001   3.018  11.561  0.00  0.00    +0.000 C 
ENDBRANCH   6   7
ENDBRANCH   1   5
BRANCH   1  11
ATOM     11  O   UNL     1       5.327   4.885  17.915  0.00  0.00    +0.000 OA
BRANCH  11  12
ATOM     12  C   UNL     1       5.210   4.757  19.322  0.00  0.00    +0.000 C 
BRANCH  12  13
ATOM     13  O   UNL     1       3.842   4.732  19.769  0.00  0.00    +0.000 OA
BRANCH  13  14
ATOM     14  C   UNL     1       3.262   3.515  19.659  0.00  0.00    +0.000 C 
ATOM     15  O   UNL     1       3.832   2.458  19.937  0.00  0.00    +0.000 OA
BRANCH  14  16
ATOM     16  C   UNL     1       1.823   3.566  19.187  0.00  0.00    +0.000 C 
ATOM     17  C   UNL     1       1.738   4.464  17.951  0.00  0.00    +0.000 C 
ATOM     18  C   UNL     1       1.373   2.133  18.843  0.00  0.00    +0.000 C 
ATOM     19  C   UNL     1       0.924   4.116  20.299  0.00  0.00    +0.000 C 
ENDBRANCH  14  16
ENDBRANCH  13  14
ENDBRANCH  12  13
ENDBRANCH  11  12
ENDBRANCH   1  11
TORSDOF 8
ENDMDL
MODEL 6
REMARK VINA RESULT:      -6.4      1.278      1.755
REMARK  Name = 
REMARK  14 active torsions:
REMARK  status: ('A' for Active; 'I' for Inactive)
REMARK    1  A    between atoms: C_1  and  O_2
REMARK    2  A    between atoms: O_2  and  P_3
REMARK    3  A    between atoms: P_3  and  C_5
REMARK    4  A    between atoms: P_3  and  O_11
REMARK    5  A    between atoms: C_6  and  C_7
REMARK    6  A    between atoms: C_8  and  C_9
REMARK    7  A    between atoms: C_8  and  C_10
REMARK    8  A    between atoms: O_11  and  C_12
REMARK    9  A    between atoms: C_12  and  O_13
REMARK   10  A    between atoms: O_13  and  C_14
REMARK   11  A    between atoms: C_14  and  C_16
REMARK   12  A    between atoms: C_16  and  C_17
REMARK   13  A    between atoms: C_16  and  C_18
REMARK   14  A    between atoms: C_16  and  C_19
REMARK                            x       y       z     vdW  Elec       q    Type
REMARK                         _______ _______ _______ _____ _____    ______ ____
ROOT
ATOM      1  P   UNL     1       5.770   5.961  17.742  0.00  0.00    +0.000 P 
ATOM      2  O   UNL     1       4.552   6.897  17.657  0.00  0.00    +0.000 OA
ENDROOT
BRANCH   1   4
ATOM      3  C   UNL     1       7.682   7.728  17.393  0.00  0.00    +0.000 C 
ATOM      4  O   UNL     1       6.620   7.072  16.724  0.00  0.00    +0.000 OA
ENDBRANCH   1   4
BRANCH   1   5
ATOM      5  C   UNL     1       5.924   4.730  16.339  0.00  0.00    +0.000 C 
ATOM      6  C   UNL     1       6.019   5.048  15.029  0.00  0.00    +0.000 C 
BRANCH   6   7
ATOM      7  C   UNL     1       5.977   4.056  13.978  0.00  0.00    +0.000 C 
ATOM      8  C   UNL     1       6.704   4.070  12.837  0.00  0.00    +0.000 C 
ATOM      9  C   UNL     1       7.686   5.145  12.451  0.00  0.00    +0.000 C 
ATOM     10  C   UNL     1       6.591   2.952  11.831  0.00  0.00    +0.000 C 
ENDBRANCH   6   7
ENDBRANCH   1   5
BRANCH   1  11
ATOM     11  O   UNL     1       4.920   4.850  18.760  0.00  0.00    +0.000 OA
BRANCH  11  12
ATOM     12  C   UNL     1       4.546   3.598  18.212  0.00  0.00    +0.000 C 
BRANCH  12  13
ATOM     13  O   UNL     1       3.210   3.205  18.578  0.00  0.00    +0.000 OA
BRANCH  13  14
ATOM     14  C   UNL     1       3.078   2.903  19.890  0.00  0.00    +0.000 C 
ATOM     15  O   UNL     1       3.961   2.362  20.559  0.00  0.00    +0.000 OA
BRANCH  14  16
ATOM     16  C   UNL     1       1.746   3.321  20.481  0.00  0.00    +0.000 C 
ATOM     17  C   UNL     1       1.515   2.544  21.779  0.00  0.00    +0.000 C 
ATOM     18  C   UNL     1       1.791   4.834  20.761  0.00  0.00    +0.000 C 
ATOM     19  C   UNL     1       0.617   3.032  19.487  0.00  0.00    +0.000 C 
ENDBRANCH  14  16
ENDBRANCH  13  14
ENDBRANCH  12  13
ENDBRANCH  11  12
ENDBRANCH   1  11
TORSDOF 8
ENDMDL
MODEL 7
REMARK VINA RESULT:      -6.4      1.540      2.185
REMARK  Name = 
REMARK  14 active torsions:
REMARK  status: ('A' for Active; 'I' for Inactive)
REMARK    1  A    between atoms: C_1  and  O_2
REMARK    2  A    between atoms: O_2  and  P_3
REMARK    3  A    between atoms: P_3  and  C_5
REMARK    4  A    between atoms: P_3  and  O_11
REMARK    5  A    between atoms: C_6  and  C_7
REMARK    6  A    between atoms: C_8  and  C_9
REMARK    7  A    between atoms: C_8  and  C_10
REMARK    8  A    between atoms: O_11  and  C_12
REMARK    9  A    between atoms: C_12  and  O_13
REMARK   10  A    between atoms: O_13  and  C_14
REMARK   11  A    between atoms: C_14  and  C_16
REMARK   12  A    between atoms: C_16  and  C_17
REMARK   13  A    between atoms: C_16  and  C_18
REMARK   14  A    between atoms: C_16  and  C_19
REMARK                            x       y       z     vdW  Elec       q    Type
REMARK                         _______ _______ _______ _____ _____    ______ ____
ROOT
ATOM      1  P   UNL     1       5.838   5.611  16.476  0.00  0.00    +0.000 P 
ATOM      2  O   UNL     1       5.256   6.925  15.927  0.00  0.00    +0.000 OA
ENDROOT
BRANCH   1   4
ATOM      3  C   UNL     1       7.515   7.502  17.191  0.00  0.00    +0.000 C 
ATOM      4  O   UNL     1       7.405   6.339  16.390  0.00  0.00    +0.000 OA
ENDBRANCH   1   4
BRANCH   1   5
ATOM      5  C   UNL     1       6.447   4.407  15.176  0.00  0.00    +0.000 C 
ATOM      6  C   UNL     1       6.751   4.728  13.900  0.00  0.00    +0.000 C 
BRANCH   6   7
ATOM      7  C   UNL     1       7.066   3.733  12.898  0.00  0.00    +0.000 C 
ATOM      8  C   UNL     1       6.185   3.134  12.063  0.00  0.00    +0.000 C 
ATOM      9  C   UNL     1       4.701   3.395  12.041  0.00  0.00    +0.000 C 
ATOM     10  C   UNL     1       6.647   2.132  11.036  0.00  0.00    +0.000 C 
ENDBRANCH   6   7
ENDBRANCH   1   5
BRANCH   1  11
ATOM     11  O   UNL     1       4.270   4.883  16.563  0.00  0.00    +0.000 OA
BRANCH  11  12
ATOM     12  C   UNL     1       4.053   3.889  17.549  0.00  0.00    +0.000 C 
BRANCH  12  13
ATOM     13  O   UNL     1       3.450   4.412  18.747  0.00  0.00    +0.000 OA
BRANCH  13  14
ATOM     14  C   UNL     1       3.271   3.480  19.711  0.00  0.00    +0.000 C 
ATOM     15  O   UNL     1       4.146   2.688  20.066  0.00  0.00    +0.000 OA
BRANCH  14  16
ATOM     16  C   UNL     1       1.895   3.515  20.346  0.00  0.00    +0.000 C 
ATOM     17  C   UNL     1       1.940   2.747  21.669  0.00  0.00    +0.000 C 
ATOM     18  C   UNL     1       1.509   4.986  20.591  0.00  0.00    +0.000 C 
ATOM     19  C   UNL     1       0.866   2.881  19.404  0.00  0.00    +0.000 C 
ENDBRANCH  14  16
ENDBRANCH  13  14
ENDBRANCH  12  13
ENDBRANCH  11  12
ENDBRANCH   1  11
TORSDOF 8
ENDMDL
MODEL 8
REMARK VINA RESULT:      -6.3      1.375      1.907
REMARK  Name = 
REMARK  14 active torsions:
REMARK  status: ('A' for Active; 'I' for Inactive)
REMARK    1  A    between atoms: C_1  and  O_2
REMARK    2  A    between atoms: O_2  and  P_3
REMARK    3  A    between atoms: P_3  and  C_5
REMARK    4  A    between atoms: P_3  and  O_11
REMARK    5  A    between atoms: C_6  and  C_7
REMARK    6  A    between atoms: C_8  and  C_9
REMARK    7  A    between atoms: C_8  and  C_10
REMARK    8  A    between atoms: O_11  and  C_12
REMARK    9  A    between atoms: C_12  and  O_13
REMARK   10  A    between atoms: O_13  and  C_14
REMARK   11  A    between atoms: C_14  and  C_16
REMARK   12  A    between atoms: C_16  and  C_17
REMARK   13  A    between atoms: C_16  and  C_18
REMARK   14  A    between atoms: C_16  and  C_19
REMARK                            x       y       z     vdW  Elec       q    Type
REMARK                         _______ _______ _______ _____ _____    ______ ____
ROOT
ATOM      1  P   UNL     1       5.545   5.922  17.350  0.00  0.00    +0.000 P 
ATOM      2  O   UNL     1       4.129   6.495  17.163  0.00  0.00    +0.000 OA
ENDROOT
BRANCH   1   4
ATOM      3  C   UNL     1       7.525   7.648  17.344  0.00  0.00    +0.000 C 
ATOM      4  O   UNL     1       6.165   7.493  16.978  0.00  0.00    +0.000 OA
ENDBRANCH   1   4
BRANCH   1   5
ATOM      5  C   UNL     1       6.381   5.341  15.778  0.00  0.00    +0.000 C 
ATOM      6  C   UNL     1       5.843   4.488  14.879  0.00  0.00    +0.000 C 
BRANCH   6   7
ATOM      7  C   UNL     1       6.593   3.951  13.764  0.00  0.00    +0.000 C 
ATOM      8  C   UNL     1       6.077   3.490  12.602  0.00  0.00    +0.000 C 
ATOM      9  C   UNL     1       4.608   3.443  12.268  0.00  0.00    +0.000 C 
ATOM     10  C   UNL     1       6.973   2.984  11.500  0.00  0.00    +0.000 C 
ENDBRANCH   6   7
ENDBRANCH   1   5
BRANCH   1  11
ATOM     11  O   UNL     1       4.925   4.350  17.723  0.00  0.00    +0.000 OA
BRANCH  11  12
ATOM     12  C   UNL     1       5.034   3.893  19.061  0.00  0.00    +0.000 C 
BRANCH  12  13
ATOM     13  O   UNL     1       3.813   4.049  19.806  0.00  0.00    +0.000 OA
BRANCH  13  14
ATOM     14  C   UNL     1       2.965   3.004  19.677  0.00  0.00    +0.000 C 
ATOM     15  O   UNL     1       3.277   1.931  19.155  0.00  0.00    +0.000 OA
BRANCH  14  16
ATOM     16  C   UNL     1       1.591   3.256  20.264  0.00  0.00    +0.000 C 
ATOM     17  C   UNL     1       0.532   2.751  19.282  0.00  0.00    +0.000 C 
ATOM     18  C   UNL     1       1.487   2.500  21.602  0.00  0.00    +0.000 C 
ATOM     19  C   UNL     1       1.397   4.753  20.523  0.00  0.00    +0.000 C 
ENDBRANCH  14  16
ENDBRANCH  13  14
ENDBRANCH  12  13
ENDBRANCH  11  12
ENDBRANCH   1  11
TORSDOF 8
ENDMDL
MODEL 9
REMARK VINA RESULT:      -6.3      1.304      1.755
REMARK  Name = 
REMARK  14 active torsions:
REMARK  status: ('A' for Active; 'I' for Inactive)
REMARK    1  A    between atoms: C_1  and  O_2
REMARK    2  A    between atoms: O_2  and  P_3
REMARK    3  A    between atoms: P_3  and  C_5
REMARK    4  A    between atoms: P_3  and  O_11
REMARK    5  A    between atoms: C_6  and  C_7
REMARK    6  A    between atoms: C_8  and  C_9
REMARK    7  A    between atoms: C_8  and  C_10
REMARK    8  A    between atoms: O_11  and  C_12
REMARK    9  A    between atoms: C_12  and  O_13
REMARK   10  A    between atoms: O_13  and  C_14
REMARK   11  A    between atoms: C_14  and  C_16
REMARK   12  A    between atoms: C_16  and  C_17
REMARK   13  A    between atoms: C_16  and  C_18
REMARK   14  A    between atoms: C_16  and  C_19
REMARK                            x       y       z     vdW  Elec       q    Type
REMARK                         _______ _______ _______ _____ _____    ______ ____
ROOT
ATOM      1  P   UNL     1       6.530   4.861  17.831  0.00  0.00    +0.000 P 
ATOM      2  O   UNL     1       5.808   6.161  18.227  0.00  0.00    +0.000 OA
ENDROOT
BRANCH   1   4
ATOM      3  C   UNL     1       7.563   7.174  17.135  0.00  0.00    +0.000 C 
ATOM      4  O   UNL     1       7.523   5.805  16.774  0.00  0.00    +0.000 OA
ENDBRANCH   1   4
BRANCH   1   5
ATOM      5  C   UNL     1       5.874   4.026  16.288  0.00  0.00    +0.000 C 
ATOM      6  C   UNL     1       6.009   4.498  15.029  0.00  0.00    +0.000 C 
BRANCH   6   7
ATOM      7  C   UNL     1       5.347   3.895  13.893  0.00  0.00    +0.000 C 
ATOM      8  C   UNL     1       5.872   3.734  12.656  0.00  0.00    +0.000 C 
ATOM      9  C   UNL     1       7.252   4.174  12.239  0.00  0.00    +0.000 C 
ATOM     10  C   UNL     1       5.087   3.057  11.561  0.00  0.00    +0.000 C 
ENDBRANCH   6   7
ENDBRANCH   1   5
BRANCH   1  11
ATOM     11  O   UNL     1       5.538   3.917  18.888  0.00  0.00    +0.000 OA
BRANCH  11  12
ATOM     12  C   UNL     1       4.161   3.794  18.575  0.00  0.00    +0.000 C 
BRANCH  12  13
ATOM     13  O   UNL     1       3.585   2.567  19.059  0.00  0.00    +0.000 OA
BRANCH  13  14
ATOM     14  C   UNL     1       3.239   2.613  20.366  0.00  0.00    +0.000 C 
ATOM     15  O   UNL     1       3.992   2.282  21.284  0.00  0.00    +0.000 OA
BRANCH  14  16
ATOM     16  C   UNL     1       1.840   3.142  20.608  0.00  0.00    +0.000 C 
ATOM     17  C   UNL     1       0.955   2.768  19.417  0.00  0.00    +0.000 C 
ATOM     18  C   UNL     1       1.296   2.506  21.901  0.00  0.00    +0.000 C 
ATOM     19  C   UNL     1       1.876   4.664  20.779  0.00  0.00    +0.000 C 
ENDBRANCH  14  16
ENDBRANCH  13  14
ENDBRANCH  12  13
ENDBRANCH  11  12
ENDBRANCH   1  11
TORSDOF 8
ENDMDL
